MODEL 1
REMARK VINA RESULT:      -7.6      0.000      0.000
REMARK  Name = 
REMARK  8 active torsions:
REMARK  status: ('A' for Active; 'I' for Inactive)
REMARK    1  A    between atoms: C_1  and  C_2
REMARK    2  A    between atoms: C_2  and  C_3
REMARK    3  A    between atoms: C_3  and  N_4
REMARK    4  A    between atoms: C_7  and  C_8
REMARK    5  A    between atoms: C_13  and  O_14
REMARK    6  A    between atoms: O_14  and  C_15
REMARK    7  A    between atoms: C_15  and  C_16
REMARK    8  A    between atoms: C_24  and  C_25
REMARK                            x       y       z     vdW  Elec       q    Type
REMARK                         _______ _______ _______ _____ _____    ______ ____
ROOT
ATOM      1  C   UNL     1       2.567   6.329  19.016  0.00  0.00    +0.000 C 
ATOM      2  O   UNL     1       1.924   5.622  19.788  0.00  0.00    +0.000 OA
ATOM      3  N   UNL     1       3.592   5.779  18.241  0.00  0.00    +0.000 N 
ATOM      4  C   UNL     1       3.789   4.325  18.264  0.00  0.00    +0.000 C 
ATOM      5  C   UNL     1       5.118   3.977  18.939  0.00  0.00    +0.000 C 
ATOM      6  C   UNL     1       6.284   4.743  18.285  0.00  0.00    +0.000 C 
ATOM      7  C   UNL     1       5.965   6.245  18.314  0.00  0.00    +0.000 C 
ATOM      8  C   UNL     1       4.662   6.488  17.553  0.00  0.00    +0.000 C 
ENDROOT
BRANCH   1  12
ATOM      9  N   UNL     1       1.330   9.740  19.171  0.00  0.00    +0.000 N 
ATOM     10  N   UNL     1       1.816   9.814  17.922  0.00  0.00    +0.000 NA
ATOM     11  C   UNL     1       2.369   8.618  17.733  0.00  0.00    +0.000 A 
ATOM     12  C   UNL     1       2.196   7.736  18.822  0.00  0.00    +0.000 A 
ATOM     13  C   UNL     1       1.608   8.551  19.792  0.00  0.00    +0.000 A 
ATOM     14  C   UNL     1       1.284   8.293  21.221  0.00  0.00    +0.000 C 
BRANCH   9  15
ATOM     15  C   UNL     1       0.593  10.879  19.686  0.00  0.00    +0.000 C 
BRANCH  15  17
ATOM     16  C   UNL     1      -1.528  10.431  18.346  0.00  0.00    +0.000 C 
ATOM     17  C   UNL     1      -0.921  10.652  19.725  0.00  0.00    +0.000 C 
ENDBRANCH  15  17
ENDBRANCH   9  15
ENDBRANCH   1  12
BRANCH   6  18
ATOM     18  O   UNL     1       6.437   4.257  16.942  0.00  0.00    +0.000 OA
BRANCH  18  19
ATOM     19  C   UNL     1       7.197   5.132  16.098  0.00  0.00    +0.000 C 
BRANCH  19  20
ATOM     20  C   UNL     1       7.040   4.803  14.633  0.00  0.00    +0.000 A 
ATOM     21  C   UNL     1       6.142   3.832  14.200  0.00  0.00    +0.000 A 
ATOM     22  C   UNL     1       6.085   3.528  12.843  0.00  0.00    +0.000 A 
ATOM     23  C   UNL     1       6.921   4.198  11.958  0.00  0.00    +0.000 A 
ATOM     24  C   UNL     1       7.782   5.153  12.466  0.00  0.00    +0.000 A 
ATOM     25  N   UNL     1       7.864   5.463  13.777  0.00  0.00    +0.000 NA
ENDBRANCH  19  20
ENDBRANCH  18  19
ENDBRANCH   6  18
TORSDOF 6
ENDMDL
MODEL 2
REMARK VINA RESULT:      -7.5      3.596      8.289
REMARK  Name = 
REMARK  8 active torsions:
REMARK  status: ('A' for Active; 'I' for Inactive)
REMARK    1  A    between atoms: C_1  and  C_2
REMARK    2  A    between atoms: C_2  and  C_3
REMARK    3  A    between atoms: C_3  and  N_4
REMARK    4  A    between atoms: C_7  and  C_8
REMARK    5  A    between atoms: C_13  and  O_14
REMARK    6  A    between atoms: O_14  and  C_15
REMARK    7  A    between atoms: C_15  and  C_16
REMARK    8  A    between atoms: C_24  and  C_25
REMARK                            x       y       z     vdW  Elec       q    Type
REMARK                         _______ _______ _______ _____ _____    ______ ____
ROOT
ATOM      1  C   UNL     1       3.428   7.007  17.932  0.00  0.00    +0.000 C 
ATOM      2  O   UNL     1       4.092   7.528  17.039  0.00  0.00    +0.000 OA
ATOM      3  N   UNL     1       2.237   7.596  18.362  0.00  0.00    +0.000 N 
ATOM      4  C   UNL     1       1.725   8.763  17.634  0.00  0.00    +0.000 C 
ATOM      5  C   UNL     1       1.796  10.014  18.513  0.00  0.00    +0.000 C 
ATOM      6  C   UNL     1       1.091   9.778  19.863  0.00  0.00    +0.000 C 
ATOM      7  C   UNL     1       1.703   8.536  20.527  0.00  0.00    +0.000 C 
ATOM      8  C   UNL     1       1.513   7.336  19.599  0.00  0.00    +0.000 C 
ENDROOT
BRANCH   1  12
ATOM      9  N   UNL     1       3.770   3.580  19.083  0.00  0.00    +0.000 N 
ATOM     10  N   UNL     1       4.926   4.027  19.600  0.00  0.00    +0.000 NA
ATOM     11  C   UNL     1       4.972   5.296  19.203  0.00  0.00    +0.000 A 
ATOM     12  C   UNL     1       3.828   5.707  18.484  0.00  0.00    +0.000 A 
ATOM     13  C   UNL     1       3.115   4.516  18.328  0.00  0.00    +0.000 A 
ATOM     14  C   UNL     1       1.884   4.207  17.551  0.00  0.00    +0.000 C 
BRANCH   9  15
ATOM     15  C   UNL     1       3.369   2.217  19.382  0.00  0.00    +0.000 C 
BRANCH  15  17
ATOM     16  C   UNL     1       2.151   2.820  21.538  0.00  0.00    +0.000 C 
ATOM     17  C   UNL     1       2.067   2.132  20.181  0.00  0.00    +0.000 C 
ENDBRANCH  15  17
ENDBRANCH   9  15
ENDBRANCH   1  12
BRANCH   6  18
ATOM     18  O   UNL     1      -0.313   9.608  19.608  0.00  0.00    +0.000 OA
BRANCH  18  19
ATOM     19  C   UNL     1      -1.007  10.840  19.373  0.00  0.00    +0.000 C 
BRANCH  19  20
ATOM     20  C   UNL     1      -1.989  10.742  18.231  0.00  0.00    +0.000 A 
ATOM     21  C   UNL     1      -1.770   9.883  17.159  0.00  0.00    +0.000 A 
ATOM     22  C   UNL     1      -2.680   9.880  16.105  0.00  0.00    +0.000 A 
ATOM     23  C   UNL     1      -3.778  10.731  16.150  0.00  0.00    +0.000 A 
ATOM     24  C   UNL     1      -3.927  11.551  17.252  0.00  0.00    +0.000 A 
ATOM     25  N   UNL     1      -3.058  11.580  18.285  0.00  0.00    +0.000 NA
ENDBRANCH  19  20
ENDBRANCH  18  19
ENDBRANCH   6  18
TORSDOF 6
ENDMDL
MODEL 3
REMARK VINA RESULT:      -7.5      3.552      4.777
REMARK  Name = 
REMARK  8 active torsions:
REMARK  status: ('A' for Active; 'I' for Inactive)
REMARK    1  A    between atoms: C_1  and  C_2
REMARK    2  A    between atoms: C_2  and  C_3
REMARK    3  A    between atoms: C_3  and  N_4
REMARK    4  A    between atoms: C_7  and  C_8
REMARK    5  A    between atoms: C_13  and  O_14
REMARK    6  A    between atoms: O_14  and  C_15
REMARK    7  A    between atoms: C_15  and  C_16
REMARK    8  A    between atoms: C_24  and  C_25
REMARK                            x       y       z     vdW  Elec       q    Type
REMARK                         _______ _______ _______ _____ _____    ______ ____
ROOT
ATOM      1  C   UNL     1       5.850   4.616  19.108  0.00  0.00    +0.000 C 
ATOM      2  O   UNL     1       6.499   5.355  19.844  0.00  0.00    +0.000 OA
ATOM      3  N   UNL     1       6.244   4.413  17.784  0.00  0.00    +0.000 N 
ATOM      4  C   UNL     1       7.519   4.984  17.333  0.00  0.00    +0.000 C 
ATOM      5  C   UNL     1       7.275   6.098  16.312  0.00  0.00    +0.000 C 
ATOM      6  C   UNL     1       6.386   5.600  15.157  0.00  0.00    +0.000 C 
ATOM      7  C   UNL     1       5.090   5.023  15.746  0.00  0.00    +0.000 C 
ATOM      8  C   UNL     1       5.445   3.875  16.691  0.00  0.00    +0.000 C 
ENDROOT
BRANCH   1  12
ATOM      9  N   UNL     1       2.705   3.370  20.430  0.00  0.00    +0.000 N 
ATOM     10  N   UNL     1       3.386   2.220  20.557  0.00  0.00    +0.000 NA
ATOM     11  C   UNL     1       4.581   2.510  20.046  0.00  0.00    +0.000 A 
ATOM     12  C   UNL     1       4.713   3.858  19.644  0.00  0.00    +0.000 A 
ATOM     13  C   UNL     1       3.419   4.358  19.807  0.00  0.00    +0.000 A 
ATOM     14  C   UNL     1       2.826   5.673  19.440  0.00  0.00    +0.000 C 
BRANCH   9  15
ATOM     15  C   UNL     1       1.353   3.425  20.955  0.00  0.00    +0.000 C 
BRANCH  15  17
ATOM     16  C   UNL     1       0.637   2.330  18.768  0.00  0.00    +0.000 C 
ATOM     17  C   UNL     1       0.279   3.318  19.870  0.00  0.00    +0.000 C 
ENDBRANCH  15  17
ENDBRANCH   9  15
ENDBRANCH   1  12
BRANCH   6  18
ATOM     18  O   UNL     1       7.124   4.609  14.424  0.00  0.00    +0.000 OA
BRANCH  18  19
ATOM     19  C   UNL     1       7.130   4.828  13.007  0.00  0.00    +0.000 C 
BRANCH  19  20
ATOM     20  C   UNL     1       6.636   3.630  12.234  0.00  0.00    +0.000 A 
ATOM     21  C   UNL     1       5.277   3.367  12.094  0.00  0.00    +0.000 A 
ATOM     22  C   UNL     1       4.882   2.214  11.422  0.00  0.00    +0.000 A 
ATOM     23  C   UNL     1       5.849   1.357  10.911  0.00  0.00    +0.000 A 
ATOM     24  C   UNL     1       7.179   1.690  11.089  0.00  0.00    +0.000 A 
ATOM     25  N   UNL     1       7.592   2.798  11.741  0.00  0.00    +0.000 NA
ENDBRANCH  19  20
ENDBRANCH  18  19
ENDBRANCH   6  18
TORSDOF 6
ENDMDL
MODEL 4
REMARK VINA RESULT:      -7.4      3.984      6.529
REMARK  Name = 
REMARK  8 active torsions:
REMARK  status: ('A' for Active; 'I' for Inactive)
REMARK    1  A    between atoms: C_1  and  C_2
REMARK    2  A    between atoms: C_2  and  C_3
REMARK    3  A    between atoms: C_3  and  N_4
REMARK    4  A    between atoms: C_7  and  C_8
REMARK    5  A    between atoms: C_13  and  O_14
REMARK    6  A    between atoms: O_14  and  C_15
REMARK    7  A    between atoms: C_15  and  C_16
REMARK    8  A    between atoms: C_24  and  C_25
REMARK                            x       y       z     vdW  Elec       q    Type
REMARK                         _______ _______ _______ _____ _____    ______ ____
ROOT
ATOM      1  C   UNL     1       4.699   4.146  16.637  0.00  0.00    +0.000 C 
ATOM      2  O   UNL     1       4.890   3.846  15.461  0.00  0.00    +0.000 OA
ATOM      3  N   UNL     1       5.288   5.291  17.179  0.00  0.00    +0.000 N 
ATOM      4  C   UNL     1       6.020   6.197  16.286  0.00  0.00    +0.000 C 
ATOM      5  C   UNL     1       7.516   6.174  16.609  0.00  0.00    +0.000 C 
ATOM      6  C   UNL     1       7.760   6.459  18.103  0.00  0.00    +0.000 C 
ATOM      7  C   UNL     1       6.944   5.458  18.935  0.00  0.00    +0.000 C 
ATOM      8  C   UNL     1       5.465   5.616  18.588  0.00  0.00    +0.000 C 
ENDROOT
BRANCH   1  12
ATOM      9  N   UNL     1       2.047   2.826  18.737  0.00  0.00    +0.000 N 
ATOM     10  N   UNL     1       2.778   1.701  18.694  0.00  0.00    +0.000 NA
ATOM     11  C   UNL     1       3.790   2.018  17.890  0.00  0.00    +0.000 A 
ATOM     12  C   UNL     1       3.766   3.362  17.455  0.00  0.00    +0.000 A 
ATOM     13  C   UNL     1       2.541   3.825  17.941  0.00  0.00    +0.000 A 
ATOM     14  C   UNL     1       1.828   5.113  17.727  0.00  0.00    +0.000 C 
BRANCH   9  15
ATOM     15  C   UNL     1       0.875   2.848  19.593  0.00  0.00    +0.000 C 
BRANCH  15  17
ATOM     16  C   UNL     1       1.947   2.798  21.904  0.00  0.00    +0.000 C 
ATOM     17  C   UNL     1       1.104   3.589  20.912  0.00  0.00    +0.000 C 
ENDBRANCH  15  17
ENDBRANCH   9  15
ENDBRANCH   1  12
BRANCH   6  18
ATOM     18  O   UNL     1       7.367   7.815  18.367  0.00  0.00    +0.000 OA
BRANCH  18  19
ATOM     19  C   UNL     1       8.016   8.776  17.525  0.00  0.00    +0.000 C 
BRANCH  19  20
ATOM     20  C   UNL     1       8.558   9.952  18.301  0.00  0.00    +0.000 A 
ATOM     21  C   UNL     1       8.574  11.233  17.759  0.00  0.00    +0.000 A 
ATOM     22  C   UNL     1       9.141  12.267  18.498  0.00  0.00    +0.000 A 
ATOM     23  C   UNL     1       9.675  11.997  19.752  0.00  0.00    +0.000 A 
ATOM     24  C   UNL     1       9.617  10.698  20.222  0.00  0.00    +0.000 A 
ATOM     25  N   UNL     1       9.079   9.675  19.526  0.00  0.00    +0.000 NA
ENDBRANCH  19  20
ENDBRANCH  18  19
ENDBRANCH   6  18
TORSDOF 6
ENDMDL
MODEL 5
REMARK VINA RESULT:      -7.4      2.373      3.976
REMARK  Name = 
REMARK  8 active torsions:
REMARK  status: ('A' for Active; 'I' for Inactive)
REMARK    1  A    between atoms: C_1  and  C_2
REMARK    2  A    between atoms: C_2  and  C_3
REMARK    3  A    between atoms: C_3  and  N_4
REMARK    4  A    between atoms: C_7  and  C_8
REMARK    5  A    between atoms: C_13  and  O_14
REMARK    6  A    between atoms: O_14  and  C_15
REMARK    7  A    between atoms: C_15  and  C_16
REMARK    8  A    between atoms: C_24  and  C_25
REMARK                            x       y       z     vdW  Elec       q    Type
REMARK                         _______ _______ _______ _____ _____    ______ ____
ROOT
ATOM      1  C   UNL     1       1.497   8.577  19.283  0.00  0.00    +0.000 C 
ATOM      2  O   UNL     1       1.451   9.032  18.142  0.00  0.00    +0.000 OA
ATOM      3  N   UNL     1       2.171   7.382  19.541  0.00  0.00    +0.000 N 
ATOM      4  C   UNL     1       2.939   6.758  18.457  0.00  0.00    +0.000 C 
ATOM      5  C   UNL     1       2.290   5.439  18.033  0.00  0.00    +0.000 C 
ATOM      6  C   UNL     1       2.083   4.513  19.246  0.00  0.00    +0.000 C 
ATOM      7  C   UNL     1       1.276   5.270  20.311  0.00  0.00    +0.000 C 
ATOM      8  C   UNL     1       2.046   6.527  20.714  0.00  0.00    +0.000 C 
ENDROOT
BRANCH   1  12
ATOM      9  N   UNL     1      -0.303  10.770  21.550  0.00  0.00    +0.000 N 
ATOM     10  N   UNL     1       0.553  10.282  22.462  0.00  0.00    +0.000 NA
ATOM     11  C   UNL     1       1.267   9.395  21.774  0.00  0.00    +0.000 A 
ATOM     12  C   UNL     1       0.931   9.340  20.403  0.00  0.00    +0.000 A 
ATOM     13  C   UNL     1      -0.184  10.177  20.322  0.00  0.00    +0.000 A 
ATOM     14  C   UNL     1      -1.113  10.462  19.195  0.00  0.00    +0.000 C 
BRANCH   9  15
ATOM     15  C   UNL     1      -1.208  11.829  21.960  0.00  0.00    +0.000 C 
BRANCH  15  17
ATOM     16  C   UNL     1      -3.223  12.327  23.438  0.00  0.00    +0.000 C 
ATOM     17  C   UNL     1      -1.939  11.525  23.270  0.00  0.00    +0.000 C 
ENDBRANCH  15  17
ENDBRANCH   9  15
ENDBRANCH   1  12
BRANCH   6  18
ATOM     18  O   UNL     1       3.376   4.124  19.735  0.00  0.00    +0.000 OA
BRANCH  18  19
ATOM     19  C   UNL     1       4.041   3.164  18.903  0.00  0.00    +0.000 C 
BRANCH  19  20
ATOM     20  C   UNL     1       5.126   3.785  18.058  0.00  0.00    +0.000 A 
ATOM     21  C   UNL     1       5.088   3.723  16.669  0.00  0.00    +0.000 A 
ATOM     22  C   UNL     1       6.148   4.260  15.944  0.00  0.00    +0.000 A 
ATOM     23  C   UNL     1       7.212   4.842  16.621  0.00  0.00    +0.000 A 
ATOM     24  C   UNL     1       7.174   4.869  18.002  0.00  0.00    +0.000 A 
ATOM     25  N   UNL     1       6.163   4.351  18.732  0.00  0.00    +0.000 NA
ENDBRANCH  19  20
ENDBRANCH  18  19
ENDBRANCH   6  18
TORSDOF 6
ENDMDL
MODEL 6
REMARK VINA RESULT:      -7.3      0.601      1.050
REMARK  Name = 
REMARK  8 active torsions:
REMARK  status: ('A' for Active; 'I' for Inactive)
REMARK    1  A    between atoms: C_1  and  C_2
REMARK    2  A    between atoms: C_2  and  C_3
REMARK    3  A    between atoms: C_3  and  N_4
REMARK    4  A    between atoms: C_7  and  C_8
REMARK    5  A    between atoms: C_13  and  O_14
REMARK    6  A    between atoms: O_14  and  C_15
REMARK    7  A    between atoms: C_15  and  C_16
REMARK    8  A    between atoms: C_24  and  C_25
REMARK                            x       y       z     vdW  Elec       q    Type
REMARK                         _______ _______ _______ _____ _____    ______ ____
ROOT
ATOM      1  C   UNL     1       2.424   6.368  19.127  0.00  0.00    +0.000 C 
ATOM      2  O   UNL     1       1.819   5.675  19.941  0.00  0.00    +0.000 OA
ATOM      3  N   UNL     1       3.438   5.815  18.342  0.00  0.00    +0.000 N 
ATOM      4  C   UNL     1       3.668   4.367  18.406  0.00  0.00    +0.000 C 
ATOM      5  C   UNL     1       5.023   4.070  19.055  0.00  0.00    +0.000 C 
ATOM      6  C   UNL     1       6.153   4.837  18.343  0.00  0.00    +0.000 C 
ATOM      7  C   UNL     1       5.802   6.332  18.331  0.00  0.00    +0.000 C 
ATOM      8  C   UNL     1       4.473   6.523  17.601  0.00  0.00    +0.000 C 
ENDROOT
BRANCH   1  12
ATOM      9  N   UNL     1       1.145   9.766  19.219  0.00  0.00    +0.000 N 
ATOM     10  N   UNL     1       1.539   9.790  17.936  0.00  0.00    +0.000 NA
ATOM     11  C   UNL     1       2.097   8.594  17.761  0.00  0.00    +0.000 A 
ATOM     12  C   UNL     1       2.016   7.760  18.899  0.00  0.00    +0.000 A 
ATOM     13  C   UNL     1       1.486   8.611  19.871  0.00  0.00    +0.000 A 
ATOM     14  C   UNL     1       1.271   8.415  21.330  0.00  0.00    +0.000 C 
BRANCH   9  15
ATOM     15  C   UNL     1       0.428  10.918  19.735  0.00  0.00    +0.000 C 
BRANCH  15  17
ATOM     16  C   UNL     1       2.048  12.840  19.321  0.00  0.00    +0.000 C 
ATOM     17  C   UNL     1       1.347  11.972  20.357  0.00  0.00    +0.000 C 
ENDBRANCH  15  17
ENDBRANCH   9  15
ENDBRANCH   1  12
BRANCH   6  18
ATOM     18  O   UNL     1       6.279   4.311  17.012  0.00  0.00    +0.000 OA
BRANCH  18  19
ATOM     19  C   UNL     1       7.242   5.004  16.208  0.00  0.00    +0.000 C 
BRANCH  19  20
ATOM     20  C   UNL     1       7.065   4.736  14.734  0.00  0.00    +0.000 A 
ATOM     21  C   UNL     1       6.125   3.821  14.270  0.00  0.00    +0.000 A 
ATOM     22  C   UNL     1       6.048   3.571  12.903  0.00  0.00    +0.000 A 
ATOM     23  C   UNL     1       6.909   4.237  12.039  0.00  0.00    +0.000 A 
ATOM     24  C   UNL     1       7.812   5.134  12.576  0.00  0.00    +0.000 A 
ATOM     25  N   UNL     1       7.913   5.392  13.897  0.00  0.00    +0.000 NA
ENDBRANCH  19  20
ENDBRANCH  18  19
ENDBRANCH   6  18
TORSDOF 6
ENDMDL
MODEL 7
REMARK VINA RESULT:      -7.3      2.337      3.901
REMARK  Name = 
REMARK  8 active torsions:
REMARK  status: ('A' for Active; 'I' for Inactive)
REMARK    1  A    between atoms: C_1  and  C_2
REMARK    2  A    between atoms: C_2  and  C_3
REMARK    3  A    between atoms: C_3  and  N_4
REMARK    4  A    between atoms: C_7  and  C_8
REMARK    5  A    between atoms: C_13  and  O_14
REMARK    6  A    between atoms: O_14  and  C_15
REMARK    7  A    between atoms: C_15  and  C_16
REMARK    8  A    between atoms: C_24  and  C_25
REMARK                            x       y       z     vdW  Elec       q    Type
REMARK                         _______ _______ _______ _____ _____    ______ ____
ROOT
ATOM      1  C   UNL     1       1.179   9.182  19.055  0.00  0.00    +0.000 C 
ATOM      2  O   UNL     1       0.812   9.423  17.908  0.00  0.00    +0.000 OA
ATOM      3  N   UNL     1       2.053   8.122  19.310  0.00  0.00    +0.000 N 
ATOM      4  C   UNL     1       2.631   7.397  18.173  0.00  0.00    +0.000 C 
ATOM      5  C   UNL     1       2.090   5.966  18.121  0.00  0.00    +0.000 C 
ATOM      6  C   UNL     1       2.295   5.251  19.471  0.00  0.00    +0.000 C 
ATOM      7  C   UNL     1       1.657   6.101  20.580  0.00  0.00    +0.000 C 
ATOM      8  C   UNL     1       2.319   7.479  20.589  0.00  0.00    +0.000 C 
ENDROOT
BRANCH   1  12
ATOM      9  N   UNL     1      -0.253  10.857  21.941  0.00  0.00    +0.000 N 
ATOM     10  N   UNL     1       0.516  11.882  21.540  0.00  0.00    +0.000 NA
ATOM     11  C   UNL     1       1.167  11.389  20.489  0.00  0.00    +0.000 A 
ATOM     12  C   UNL     1       0.785  10.070  20.156  0.00  0.00    +0.000 A 
ATOM     13  C   UNL     1      -0.066   9.718  21.205  0.00  0.00    +0.000 A 
ATOM     14  C   UNL     1      -0.711   8.421  21.549  0.00  0.00    +0.000 C 
BRANCH   9  15
ATOM     15  C   UNL     1      -1.158  11.077  23.055  0.00  0.00    +0.000 C 
BRANCH  15  17
ATOM     16  C   UNL     1      -2.189  13.385  23.378  0.00  0.00    +0.000 C 
ATOM     17  C   UNL     1      -2.316  12.019  22.716  0.00  0.00    +0.000 C 
ENDBRANCH  15  17
ENDBRANCH   9  15
ENDBRANCH   1  12
BRANCH   6  18
ATOM     18  O   UNL     1       3.707   5.084  19.675  0.00  0.00    +0.000 OA
BRANCH  18  19
ATOM     19  C   UNL     1       4.228   3.870  19.118  0.00  0.00    +0.000 C 
BRANCH  19  20
ATOM     20  C   UNL     1       5.210   4.123  17.999  0.00  0.00    +0.000 A 
ATOM     21  C   UNL     1       4.854   3.944  16.667  0.00  0.00    +0.000 A 
ATOM     22  C   UNL     1       5.819   4.132  15.682  0.00  0.00    +0.000 A 
ATOM     23  C   UNL     1       7.109   4.493  16.052  0.00  0.00    +0.000 A 
ATOM     24  C   UNL     1       7.384   4.656  17.397  0.00  0.00    +0.000 A 
ATOM     25  N   UNL     1       6.470   4.474  18.374  0.00  0.00    +0.000 NA
ENDBRANCH  19  20
ENDBRANCH  18  19
ENDBRANCH   6  18
TORSDOF 6
ENDMDL
MODEL 8
REMARK VINA RESULT:      -7.2      4.048      6.450
REMARK  Name = 
REMARK  8 active torsions:
REMARK  status: ('A' for Active; 'I' for Inactive)
REMARK    1  A    between atoms: C_1  and  C_2
REMARK    2  A    between atoms: C_2  and  C_3
REMARK    3  A    between atoms: C_3  and  N_4
REMARK    4  A    between atoms: C_7  and  C_8
REMARK    5  A    between atoms: C_13  and  O_14
REMARK    6  A    between atoms: O_14  and  C_15
REMARK    7  A    between atoms: C_15  and  C_16
REMARK    8  A    between atoms: C_24  and  C_25
REMARK                            x       y       z     vdW  Elec       q    Type
REMARK                         _______ _______ _______ _____ _____    ______ ____
ROOT
ATOM      1  C   UNL     1       4.542   4.172  16.717  0.00  0.00    +0.000 C 
ATOM      2  O   UNL     1       4.594   3.964  15.507  0.00  0.00    +0.000 OA
ATOM      3  N   UNL     1       5.198   5.272  17.274  0.00  0.00    +0.000 N 
ATOM      4  C   UNL     1       5.827   6.247  16.376  0.00  0.00    +0.000 C 
ATOM      5  C   UNL     1       7.350   6.202  16.520  0.00  0.00    +0.000 C 
ATOM      6  C   UNL     1       7.768   6.371  17.993  0.00  0.00    +0.000 C 
ATOM      7  C   UNL     1       7.048   5.306  18.834  0.00  0.00    +0.000 C 
ATOM      8  C   UNL     1       5.539   5.487  18.674  0.00  0.00    +0.000 C 
ENDROOT
BRANCH   1  12
ATOM      9  N   UNL     1       2.047   2.646  18.870  0.00  0.00    +0.000 N 
ATOM     10  N   UNL     1       2.921   1.628  18.910  0.00  0.00    +0.000 NA
ATOM     11  C   UNL     1       3.898   2.026  18.098  0.00  0.00    +0.000 A 
ATOM     12  C   UNL     1       3.705   3.324  17.574  0.00  0.00    +0.000 A 
ATOM     13  C   UNL     1       2.420   3.649  18.015  0.00  0.00    +0.000 A 
ATOM     14  C   UNL     1       1.547   4.814  17.708  0.00  0.00    +0.000 C 
BRANCH   9  15
ATOM     15  C   UNL     1       0.865   2.566  19.709  0.00  0.00    +0.000 C 
BRANCH  15  17
ATOM     16  C   UNL     1       2.380   3.897  21.267  0.00  0.00    +0.000 C 
ATOM     17  C   UNL     1       1.095   3.091  21.128  0.00  0.00    +0.000 C 
ENDBRANCH  15  17
ENDBRANCH   9  15
ENDBRANCH   1  12
BRANCH   6  18
ATOM     18  O   UNL     1       7.417   7.701  18.405  0.00  0.00    +0.000 OA
BRANCH  18  19
ATOM     19  C   UNL     1       7.864   8.720  17.502  0.00  0.00    +0.000 C 
BRANCH  19  20
ATOM     20  C   UNL     1       8.531   9.871  18.213  0.00  0.00    +0.000 A 
ATOM     21  C   UNL     1       9.143   9.703  19.451  0.00  0.00    +0.000 A 
ATOM     22  C   UNL     1       9.688  10.814  20.088  0.00  0.00    +0.000 A 
ATOM     23  C   UNL     1       9.609  12.058  19.475  0.00  0.00    +0.000 A 
ATOM     24  C   UNL     1       8.989  12.143  18.242  0.00  0.00    +0.000 A 
ATOM     25  N   UNL     1       8.446  11.084  17.605  0.00  0.00    +0.000 NA
ENDBRANCH  19  20
ENDBRANCH  18  19
ENDBRANCH   6  18
TORSDOF 6
ENDMDL
MODEL 9
REMARK VINA RESULT:      -7.2      3.741      5.012
REMARK  Name = 
REMARK  8 active torsions:
REMARK  status: ('A' for Active; 'I' for Inactive)
REMARK    1  A    between atoms: C_1  and  C_2
REMARK    2  A    between atoms: C_2  and  C_3
REMARK    3  A    between atoms: C_3  and  N_4
REMARK    4  A    between atoms: C_7  and  C_8
REMARK    5  A    between atoms: C_13  and  O_14
REMARK    6  A    between atoms: O_14  and  C_15
REMARK    7  A    between atoms: C_15  and  C_16
REMARK    8  A    between atoms: C_24  and  C_25
REMARK                            x       y       z     vdW  Elec       q    Type
REMARK                         _______ _______ _______ _____ _____    ______ ____
ROOT
ATOM      1  C   UNL     1       5.493   4.038  18.410  0.00  0.00    +0.000 C 
ATOM      2  O   UNL     1       5.990   4.587  19.391  0.00  0.00    +0.000 OA
ATOM      3  N   UNL     1       6.134   4.093  17.170  0.00  0.00    +0.000 N 
ATOM      4  C   UNL     1       7.471   4.693  17.093  0.00  0.00    +0.000 C 
ATOM      5  C   UNL     1       7.425   6.000  16.298  0.00  0.00    +0.000 C 
ATOM      6  C   UNL     1       6.773   5.782  14.919  0.00  0.00    +0.000 C 
ATOM      7  C   UNL     1       5.389   5.148  15.124  0.00  0.00    +0.000 C 
ATOM      8  C   UNL     1       5.558   3.820  15.860  0.00  0.00    +0.000 C 
ENDROOT
BRANCH   1  12
ATOM      9  N   UNL     1       2.159   2.672  18.861  0.00  0.00    +0.000 N 
ATOM     10  N   UNL     1       2.800   1.493  18.823  0.00  0.00    +0.000 NA
ATOM     11  C   UNL     1       4.066   1.835  18.600  0.00  0.00    +0.000 A 
ATOM     12  C   UNL     1       4.275   3.232  18.555  0.00  0.00    +0.000 A 
ATOM     13  C   UNL     1       2.977   3.743  18.616  0.00  0.00    +0.000 A 
ATOM     14  C   UNL     1       2.466   5.133  18.478  0.00  0.00    +0.000 C 
BRANCH   9  15
ATOM     15  C   UNL     1       0.737   2.668  19.153  0.00  0.00    +0.000 C 
BRANCH  15  17
ATOM     16  C   UNL     1       1.515   2.754  21.579  0.00  0.00    +0.000 C 
ATOM     17  C   UNL     1       0.414   3.101  20.585  0.00  0.00    +0.000 C 
ENDBRANCH  15  17
ENDBRANCH   9  15
ENDBRANCH   1  12
BRANCH   6  18
ATOM     18  O   UNL     1       7.638   4.933  14.148  0.00  0.00    +0.000 OA
BRANCH  18  19
ATOM     19  C   UNL     1       7.442   5.047  12.732  0.00  0.00    +0.000 C 
BRANCH  19  20
ATOM     20  C   UNL     1       6.846   3.798  12.129  0.00  0.00    +0.000 A 
ATOM     21  C   UNL     1       5.470   3.599  12.085  0.00  0.00    +0.000 A 
ATOM     22  C   UNL     1       4.981   2.402  11.572  0.00  0.00    +0.000 A 
ATOM     23  C   UNL     1       5.874   1.438  11.118  0.00  0.00    +0.000 A 
ATOM     24  C   UNL     1       7.227   1.713  11.192  0.00  0.00    +0.000 A 
ATOM     25  N   UNL     1       7.730   2.862  11.690  0.00  0.00    +0.000 NA
ENDBRANCH  19  20
ENDBRANCH  18  19
ENDBRANCH   6  18
TORSDOF 6
ENDMDL
