MODEL 1
REMARK VINA RESULT:      -7.2      0.000      0.000
REMARK  Name = 
REMARK  9 active torsions:
REMARK  status: ('A' for Active; 'I' for Inactive)
REMARK    1  A    between atoms: C_1  and  O_2
REMARK    2  A    between atoms: O_2  and  C_3
REMARK    3  A    between atoms: C_7  and  C_8
REMARK    4  A    between atoms: C_9  and  C_10
REMARK    5  A    between atoms: N_12  and  C_13
REMARK    6  A    between atoms: C_19  and  C_20
REMARK    7  A    between atoms: C_24  and  S_25
REMARK    8  A    between atoms: S_25  and  C_26
REMARK    9  A    between atoms: C_26  and  C_27
REMARK                            x       y       z     vdW  Elec       q    Type
REMARK                         _______ _______ _______ _____ _____    ______ ____
ROOT
ATOM      1  C   UNL     1       0.283  12.568  19.114  0.00  0.00    +0.000 C 
ATOM      2  C   UNL     1       0.931  13.927  18.728  0.00  0.00    +0.000 C 
ATOM      3  C   UNL     1       2.196  13.936  18.212  0.00  0.00    +0.000 C 
ATOM      4  C   UNL     1       3.102  15.133  18.020  0.00  0.00    +0.000 C 
ATOM      5  N   UNL     1       2.831  12.735  17.877  0.00  0.00    +0.000 N 
ATOM      6  C   UNL     1       2.285  11.515  18.027  0.00  0.00    +0.000 A 
ATOM      7  N   UNL     1       2.717  10.317  17.707  0.00  0.00    +0.000 NA
ATOM      8  C   UNL     1       1.684   9.503  18.110  0.00  0.00    +0.000 A 
ATOM      9  N   UNL     1       0.681  10.132  18.729  0.00  0.00    +0.000 NA
ATOM     10  N   UNL     1       1.056  11.420  18.609  0.00  0.00    +0.000 N 
ATOM     11  H   UNL     1       3.781  12.790  17.513  0.00  0.00    +0.000 HD
ENDROOT
BRANCH   1  16
ATOM     12  C   UNL     1      -3.032  11.546  17.416  0.00  0.00    +0.000 A 
ATOM     13  C   UNL     1      -3.916  11.709  18.485  0.00  0.00    +0.000 A 
ATOM     14  C   UNL     1      -3.464  12.188  19.708  0.00  0.00    +0.000 A 
ATOM     15  C   UNL     1      -2.120  12.509  19.861  0.00  0.00    +0.000 A 
ATOM     16  C   UNL     1      -1.198  12.336  18.804  0.00  0.00    +0.000 A 
ATOM     17  C   UNL     1      -1.672  11.847  17.576  0.00  0.00    +0.000 A 
BRANCH  12  19
ATOM     18  C   UNL     1      -2.858  10.162  15.491  0.00  0.00    +0.000 C 
ATOM     19  O   UNL     1      -3.621  11.064  16.278  0.00  0.00    +0.000 OA
ENDBRANCH  12  19
ENDBRANCH   1  16
BRANCH   2  20
ATOM     20  C   UNL     1       0.128  15.114  19.209  0.00  0.00    +0.000 C 
ATOM     21  O   UNL     1      -0.355  15.865  18.367  0.00  0.00    +0.000 OA
ATOM     22  N   UNL     1       0.015  15.285  20.574  0.00  0.00    +0.000 N 
ATOM     23  H   UNL     1       0.424  14.589  21.180  0.00  0.00    +0.000 HD
BRANCH  22  24
ATOM     24  C   UNL     1      -0.690  16.323  21.244  0.00  0.00    +0.000 A 
ATOM     25  C   UNL     1      -2.019  16.241  21.653  0.00  0.00    +0.000 A 
ATOM     26  C   UNL     1      -2.635  17.342  22.261  0.00  0.00    +0.000 A 
ATOM     27  C   UNL     1      -1.897  18.491  22.461  0.00  0.00    +0.000 A 
ATOM     28  N   UNL     1      -0.602  18.613  22.098  0.00  0.00    +0.000 NA
ATOM     29  C   UNL     1      -0.038  17.533  21.499  0.00  0.00    +0.000 A 
ENDBRANCH  22  24
ENDBRANCH   2  20
BRANCH   8  30
ATOM     30  S   UNL     1       1.531   7.804  17.756  0.00  0.00    +0.000 S 
BRANCH  30  31
ATOM     31  C   UNL     1       2.500   7.039  19.074  0.00  0.00    +0.000 C 
BRANCH  31  32
ATOM     32  C   UNL     1       2.077   5.600  19.299  0.00  0.00    +0.000 A 
ATOM     33  C   UNL     1       1.951   4.710  18.220  0.00  0.00    +0.000 A 
ATOM     34  C   UNL     1       1.540   3.390  18.426  0.00  0.00    +0.000 A 
ATOM     35  C   UNL     1       1.244   2.944  19.711  0.00  0.00    +0.000 A 
ATOM     36  C   UNL     1       1.352   3.816  20.792  0.00  0.00    +0.000 A 
ATOM     37  C   UNL     1       1.761   5.139  20.587  0.00  0.00    +0.000 A 
ENDBRANCH  31  32
ENDBRANCH  30  31
ENDBRANCH   8  30
TORSDOF 7
ENDMDL
MODEL 2
REMARK VINA RESULT:      -7.1      2.450      4.189
REMARK  Name = 
REMARK  9 active torsions:
REMARK  status: ('A' for Active; 'I' for Inactive)
REMARK    1  A    between atoms: C_1  and  O_2
REMARK    2  A    between atoms: O_2  and  C_3
REMARK    3  A    between atoms: C_7  and  C_8
REMARK    4  A    between atoms: C_9  and  C_10
REMARK    5  A    between atoms: N_12  and  C_13
REMARK    6  A    between atoms: C_19  and  C_20
REMARK    7  A    between atoms: C_24  and  S_25
REMARK    8  A    between atoms: S_25  and  C_26
REMARK    9  A    between atoms: C_26  and  C_27
REMARK                            x       y       z     vdW  Elec       q    Type
REMARK                         _______ _______ _______ _____ _____    ______ ____
ROOT
ATOM      1  C   UNL     1       0.398  12.428  19.999  0.00  0.00    +0.000 C 
ATOM      2  C   UNL     1      -0.359  12.669  21.335  0.00  0.00    +0.000 C 
ATOM      3  C   UNL     1      -0.867  11.597  22.012  0.00  0.00    +0.000 C 
ATOM      4  C   UNL     1      -1.846  11.618  23.166  0.00  0.00    +0.000 C 
ATOM      5  N   UNL     1      -0.564  10.293  21.601  0.00  0.00    +0.000 N 
ATOM      6  C   UNL     1       0.215   9.986  20.549  0.00  0.00    +0.000 A 
ATOM      7  N   UNL     1       0.640   8.835  20.080  0.00  0.00    +0.000 NA
ATOM      8  C   UNL     1       1.408   9.211  19.002  0.00  0.00    +0.000 A 
ATOM      9  N   UNL     1       1.410  10.521  18.742  0.00  0.00    +0.000 NA
ATOM     10  N   UNL     1       0.695  11.002  19.777  0.00  0.00    +0.000 N 
ATOM     11  H   UNL     1      -0.981   9.526  22.125  0.00  0.00    +0.000 HD
ENDROOT
BRANCH   1  16
ATOM     12  C   UNL     1       2.997  14.773  18.366  0.00  0.00    +0.000 A 
ATOM     13  C   UNL     1       3.905  14.906  19.420  0.00  0.00    +0.000 A 
ATOM     14  C   UNL     1       3.712  14.214  20.609  0.00  0.00    +0.000 A 
ATOM     15  C   UNL     1       2.606  13.382  20.742  0.00  0.00    +0.000 A 
ATOM     16  C   UNL     1       1.660  13.243  19.702  0.00  0.00    +0.000 A 
ATOM     17  C   UNL     1       1.869  13.953  18.509  0.00  0.00    +0.000 A 
BRANCH  12  19
ATOM     18  C   UNL     1       2.987  16.896  17.298  0.00  0.00    +0.000 C 
ATOM     19  O   UNL     1       3.317  15.516  17.262  0.00  0.00    +0.000 OA
ENDBRANCH  12  19
ENDBRANCH   1  16
BRANCH   2  20
ATOM     20  C   UNL     1      -0.637  14.132  21.592  0.00  0.00    +0.000 C 
ATOM     21  O   UNL     1      -1.136  14.793  20.687  0.00  0.00    +0.000 OA
ATOM     22  N   UNL     1      -0.283  14.632  22.830  0.00  0.00    +0.000 N 
ATOM     23  H   UNL     1       0.092  13.993  23.515  0.00  0.00    +0.000 HD
BRANCH  22  24
ATOM     24  C   UNL     1      -0.453  15.968  23.285  0.00  0.00    +0.000 A 
ATOM     25  C   UNL     1      -1.539  16.416  24.035  0.00  0.00    +0.000 A 
ATOM     26  C   UNL     1      -1.635  17.767  24.391  0.00  0.00    +0.000 A 
ATOM     27  C   UNL     1      -0.631  18.631  24.003  0.00  0.00    +0.000 A 
ATOM     28  N   UNL     1       0.449  18.242  23.292  0.00  0.00    +0.000 NA
ATOM     29  C   UNL     1       0.506  16.928  22.951  0.00  0.00    +0.000 A 
ENDBRANCH  22  24
ENDBRANCH   2  20
BRANCH   8  30
ATOM     30  S   UNL     1       2.449   8.160  18.081  0.00  0.00    +0.000 S 
BRANCH  30  31
ATOM     31  C   UNL     1       3.027   6.988  19.327  0.00  0.00    +0.000 C 
BRANCH  31  32
ATOM     32  C   UNL     1       2.263   5.680  19.245  0.00  0.00    +0.000 A 
ATOM     33  C   UNL     1       1.690   5.109  20.393  0.00  0.00    +0.000 A 
ATOM     34  C   UNL     1       1.005   3.893  20.320  0.00  0.00    +0.000 A 
ATOM     35  C   UNL     1       0.888   3.230  19.102  0.00  0.00    +0.000 A 
ATOM     36  C   UNL     1       1.461   3.775  17.955  0.00  0.00    +0.000 A 
ATOM     37  C   UNL     1       2.149   4.992  18.027  0.00  0.00    +0.000 A 
ENDBRANCH  31  32
ENDBRANCH  30  31
ENDBRANCH   8  30
TORSDOF 7
ENDMDL
MODEL 3
REMARK VINA RESULT:      -7.1      2.840      3.905
REMARK  Name = 
REMARK  9 active torsions:
REMARK  status: ('A' for Active; 'I' for Inactive)
REMARK    1  A    between atoms: C_1  and  O_2
REMARK    2  A    between atoms: O_2  and  C_3
REMARK    3  A    between atoms: C_7  and  C_8
REMARK    4  A    between atoms: C_9  and  C_10
REMARK    5  A    between atoms: N_12  and  C_13
REMARK    6  A    between atoms: C_19  and  C_20
REMARK    7  A    between atoms: C_24  and  S_25
REMARK    8  A    between atoms: S_25  and  C_26
REMARK    9  A    between atoms: C_26  and  C_27
REMARK                            x       y       z     vdW  Elec       q    Type
REMARK                         _______ _______ _______ _____ _____    ______ ____
ROOT
ATOM      1  C   UNL     1      -1.894  11.443  19.914  0.00  0.00    +0.000 C 
ATOM      2  C   UNL     1      -1.802  12.754  20.744  0.00  0.00    +0.000 C 
ATOM      3  C   UNL     1      -0.604  13.107  21.297  0.00  0.00    +0.000 C 
ATOM      4  C   UNL     1      -0.350  14.174  22.340  0.00  0.00    +0.000 C 
ATOM      5  N   UNL     1       0.558  12.394  20.979  0.00  0.00    +0.000 N 
ATOM      6  C   UNL     1       0.604  11.341  20.143  0.00  0.00    +0.000 A 
ATOM      7  N   UNL     1       1.606  10.618  19.699  0.00  0.00    +0.000 NA
ATOM      8  C   UNL     1       0.984   9.714  18.868  0.00  0.00    +0.000 A 
ATOM      9  N   UNL     1      -0.349   9.797  18.844  0.00  0.00    +0.000 NA
ATOM     10  N   UNL     1      -0.565  10.881  19.614  0.00  0.00    +0.000 N 
ATOM     11  H   UNL     1       1.425  12.682  21.429  0.00  0.00    +0.000 HD
ENDROOT
BRANCH   1  16
ATOM     12  C   UNL     1      -3.053  11.084  16.247  0.00  0.00    +0.000 A 
ATOM     13  C   UNL     1      -4.437  11.175  16.417  0.00  0.00    +0.000 A 
ATOM     14  C   UNL     1      -4.980  11.399  17.675  0.00  0.00    +0.000 A 
ATOM     15  C   UNL     1      -4.134  11.538  18.769  0.00  0.00    +0.000 A 
ATOM     16  C   UNL     1      -2.732  11.432  18.632  0.00  0.00    +0.000 A 
ATOM     17  C   UNL     1      -2.200  11.200  17.354  0.00  0.00    +0.000 A 
BRANCH  12  19
ATOM     18  C   UNL     1      -3.546  10.091  14.145  0.00  0.00    +0.000 C 
ATOM     19  O   UNL     1      -2.667  10.859  14.954  0.00  0.00    +0.000 OA
ENDBRANCH  12  19
ENDBRANCH   1  16
BRANCH   2  20
ATOM     20  C   UNL     1      -3.157  13.361  21.028  0.00  0.00    +0.000 C 
ATOM     21  O   UNL     1      -3.436  14.428  20.492  0.00  0.00    +0.000 OA
ATOM     22  N   UNL     1      -3.983  12.677  21.898  0.00  0.00    +0.000 N 
ATOM     23  H   UNL     1      -3.668  11.789  22.259  0.00  0.00    +0.000 HD
BRANCH  22  24
ATOM     24  C   UNL     1      -5.291  13.060  22.304  0.00  0.00    +0.000 A 
ATOM     25  C   UNL     1      -5.576  13.845  23.419  0.00  0.00    +0.000 A 
ATOM     26  C   UNL     1      -6.905  14.124  23.759  0.00  0.00    +0.000 A 
ATOM     27  C   UNL     1      -7.915  13.624  22.962  0.00  0.00    +0.000 A 
ATOM     28  N   UNL     1      -7.690  12.874  21.862  0.00  0.00    +0.000 NA
ATOM     29  C   UNL     1      -6.391  12.611  21.566  0.00  0.00    +0.000 A 
ENDBRANCH  22  24
ENDBRANCH   2  20
BRANCH   8  30
ATOM     30  S   UNL     1       1.787   8.612  17.783  0.00  0.00    +0.000 S 
BRANCH  30  31
ATOM     31  C   UNL     1       2.651   7.504  18.917  0.00  0.00    +0.000 C 
BRANCH  31  32
ATOM     32  C   UNL     1       2.899   6.151  18.276  0.00  0.00    +0.000 A 
ATOM     33  C   UNL     1       1.833   5.281  17.999  0.00  0.00    +0.000 A 
ATOM     34  C   UNL     1       2.064   4.026  17.429  0.00  0.00    +0.000 A 
ATOM     35  C   UNL     1       3.362   3.622  17.133  0.00  0.00    +0.000 A 
ATOM     36  C   UNL     1       4.435   4.468  17.412  0.00  0.00    +0.000 A 
ATOM     37  C   UNL     1       4.204   5.724  17.986  0.00  0.00    +0.000 A 
ENDBRANCH  31  32
ENDBRANCH  30  31
ENDBRANCH   8  30
TORSDOF 7
ENDMDL
MODEL 4
REMARK VINA RESULT:      -7.0      3.307      5.000
REMARK  Name = 
REMARK  9 active torsions:
REMARK  status: ('A' for Active; 'I' for Inactive)
REMARK    1  A    between atoms: C_1  and  O_2
REMARK    2  A    between atoms: O_2  and  C_3
REMARK    3  A    between atoms: C_7  and  C_8
REMARK    4  A    between atoms: C_9  and  C_10
REMARK    5  A    between atoms: N_12  and  C_13
REMARK    6  A    between atoms: C_19  and  C_20
REMARK    7  A    between atoms: C_24  and  S_25
REMARK    8  A    between atoms: S_25  and  C_26
REMARK    9  A    between atoms: C_26  and  C_27
REMARK                            x       y       z     vdW  Elec       q    Type
REMARK                         _______ _______ _______ _____ _____    ______ ____
ROOT
ATOM      1  C   UNL     1       0.096  10.851  20.379  0.00  0.00    +0.000 C 
ATOM      2  C   UNL     1      -0.111  10.790  21.918  0.00  0.00    +0.000 C 
ATOM      3  C   UNL     1       0.240   9.653  22.590  0.00  0.00    +0.000 C 
ATOM      4  C   UNL     1      -0.111   9.282  24.014  0.00  0.00    +0.000 C 
ATOM      5  N   UNL     1       0.931   8.629  21.933  0.00  0.00    +0.000 N 
ATOM      6  C   UNL     1       1.295   8.661  20.638  0.00  0.00    +0.000 A 
ATOM      7  N   UNL     1       1.990   7.824  19.903  0.00  0.00    +0.000 NA
ATOM      8  C   UNL     1       2.018   8.448  18.677  0.00  0.00    +0.000 A 
ATOM      9  N   UNL     1       1.311   9.578  18.604  0.00  0.00    +0.000 NA
ATOM     10  N   UNL     1       0.911   9.728  19.883  0.00  0.00    +0.000 N 
ATOM     11  H   UNL     1       1.155   7.793  22.469  0.00  0.00    +0.000 HD
ENDROOT
BRANCH   1  16
ATOM     12  C   UNL     1       2.341  13.779  19.238  0.00  0.00    +0.000 A 
ATOM     13  C   UNL     1       1.494  14.390  18.309  0.00  0.00    +0.000 A 
ATOM     14  C   UNL     1       0.212  13.902  18.095  0.00  0.00    +0.000 A 
ATOM     15  C   UNL     1      -0.227  12.798  18.817  0.00  0.00    +0.000 A 
ATOM     16  C   UNL     1       0.612  12.147  19.748  0.00  0.00    +0.000 A 
ATOM     17  C   UNL     1       1.907  12.652  19.949  0.00  0.00    +0.000 A 
BRANCH  12  19
ATOM     18  C   UNL     1       4.334  14.472  18.144  0.00  0.00    +0.000 C 
ATOM     19  O   UNL     1       3.572  14.369  19.337  0.00  0.00    +0.000 OA
ENDBRANCH  12  19
ENDBRANCH   1  16
BRANCH   2  20
ATOM     20  C   UNL     1      -0.915  11.956  22.445  0.00  0.00    +0.000 C 
ATOM     21  O   UNL     1      -0.338  12.791  23.134  0.00  0.00    +0.000 OA
ATOM     22  N   UNL     1      -2.259  11.986  22.132  0.00  0.00    +0.000 N 
ATOM     23  H   UNL     1      -2.627  11.264  21.530  0.00  0.00    +0.000 HD
BRANCH  22  24
ATOM     24  C   UNL     1      -3.198  12.982  22.518  0.00  0.00    +0.000 A 
ATOM     25  C   UNL     1      -4.083  12.863  23.587  0.00  0.00    +0.000 A 
ATOM     26  C   UNL     1      -5.004  13.885  23.852  0.00  0.00    +0.000 A 
ATOM     27  C   UNL     1      -5.000  15.008  23.049  0.00  0.00    +0.000 A 
ATOM     28  N   UNL     1      -4.151  15.178  22.014  0.00  0.00    +0.000 NA
ATOM     29  C   UNL     1      -3.280  14.164  21.775  0.00  0.00    +0.000 A 
ENDBRANCH  22  24
ENDBRANCH   2  20
BRANCH   8  30
ATOM     30  S   UNL     1       2.986   7.962  17.312  0.00  0.00    +0.000 S 
BRANCH  30  31
ATOM     31  C   UNL     1       3.489   6.287  17.762  0.00  0.00    +0.000 C 
BRANCH  31  32
ATOM     32  C   UNL     1       4.980   6.218  18.035  0.00  0.00    +0.000 A 
ATOM     33  C   UNL     1       5.895   6.874  17.196  0.00  0.00    +0.000 A 
ATOM     34  C   UNL     1       7.270   6.792  17.435  0.00  0.00    +0.000 A 
ATOM     35  C   UNL     1       7.747   6.050  18.511  0.00  0.00    +0.000 A 
ATOM     36  C   UNL     1       6.855   5.383  19.348  0.00  0.00    +0.000 A 
ATOM     37  C   UNL     1       5.478   5.462  19.108  0.00  0.00    +0.000 A 
ENDBRANCH  31  32
ENDBRANCH  30  31
ENDBRANCH   8  30
TORSDOF 7
ENDMDL
MODEL 5
REMARK VINA RESULT:      -7.0      3.054      4.589
REMARK  Name = 
REMARK  9 active torsions:
REMARK  status: ('A' for Active; 'I' for Inactive)
REMARK    1  A    between atoms: C_1  and  O_2
REMARK    2  A    between atoms: O_2  and  C_3
REMARK    3  A    between atoms: C_7  and  C_8
REMARK    4  A    between atoms: C_9  and  C_10
REMARK    5  A    between atoms: N_12  and  C_13
REMARK    6  A    between atoms: C_19  and  C_20
REMARK    7  A    between atoms: C_24  and  S_25
REMARK    8  A    between atoms: S_25  and  C_26
REMARK    9  A    between atoms: C_26  and  C_27
REMARK                            x       y       z     vdW  Elec       q    Type
REMARK                         _______ _______ _______ _____ _____    ______ ____
ROOT
ATOM      1  C   UNL     1      -0.003  10.825  20.509  0.00  0.00    +0.000 C 
ATOM      2  C   UNL     1      -0.147  10.791  22.056  0.00  0.00    +0.000 C 
ATOM      3  C   UNL     1       0.267   9.681  22.737  0.00  0.00    +0.000 C 
ATOM      4  C   UNL     1      -0.016   9.330  24.181  0.00  0.00    +0.000 C 
ATOM      5  N   UNL     1       0.965   8.665  22.074  0.00  0.00    +0.000 N 
ATOM      6  C   UNL     1       1.277   8.681  20.766  0.00  0.00    +0.000 A 
ATOM      7  N   UNL     1       1.970   7.851  20.020  0.00  0.00    +0.000 NA
ATOM      8  C   UNL     1       1.929   8.448  18.782  0.00  0.00    +0.000 A 
ATOM      9  N   UNL     1       1.183   9.554  18.714  0.00  0.00    +0.000 NA
ATOM     10  N   UNL     1       0.829   9.718  20.004  0.00  0.00    +0.000 N 
ATOM     11  H   UNL     1       1.237   7.849  22.618  0.00  0.00    +0.000 HD
ENDROOT
BRANCH   1  16
ATOM     12  C   UNL     1       2.088  13.822  19.258  0.00  0.00    +0.000 A 
ATOM     13  C   UNL     1       1.209  14.357  18.312  0.00  0.00    +0.000 A 
ATOM     14  C   UNL     1      -0.047  13.796  18.120  0.00  0.00    +0.000 A 
ATOM     15  C   UNL     1      -0.428  12.698  18.881  0.00  0.00    +0.000 A 
ATOM     16  C   UNL     1       0.445  12.123  19.832  0.00  0.00    +0.000 A 
ATOM     17  C   UNL     1       1.713  12.700  20.010  0.00  0.00    +0.000 A 
BRANCH  12  19
ATOM     18  C   UNL     1       4.106  14.453  18.174  0.00  0.00    +0.000 C 
ATOM     19  O   UNL     1       3.287  14.477  19.333  0.00  0.00    +0.000 OA
ENDBRANCH  12  19
ENDBRANCH   1  16
BRANCH   2  20
ATOM     20  C   UNL     1      -0.968  11.942  22.591  0.00  0.00    +0.000 C 
ATOM     21  O   UNL     1      -0.387  12.826  23.213  0.00  0.00    +0.000 OA
ATOM     22  N   UNL     1      -2.328  11.905  22.361  0.00  0.00    +0.000 N 
ATOM     23  H   UNL     1      -2.700  11.146  21.808  0.00  0.00    +0.000 HD
BRANCH  22  24
ATOM     24  C   UNL     1      -3.285  12.875  22.769  0.00  0.00    +0.000 A 
ATOM     25  C   UNL     1      -4.191  12.703  23.812  0.00  0.00    +0.000 A 
ATOM     26  C   UNL     1      -5.127  13.704  24.101  0.00  0.00    +0.000 A 
ATOM     27  C   UNL     1      -5.117  14.860  23.349  0.00  0.00    +0.000 A 
ATOM     28  N   UNL     1      -4.247  15.083  22.340  0.00  0.00    +0.000 NA
ATOM     29  C   UNL     1      -3.362  14.087  22.077  0.00  0.00    +0.000 A 
ENDBRANCH  22  24
ENDBRANCH   2  20
BRANCH   8  30
ATOM     30  S   UNL     1       2.858   7.964  17.389  0.00  0.00    +0.000 S 
BRANCH  30  31
ATOM     31  C   UNL     1       4.000   6.748  18.082  0.00  0.00    +0.000 C 
BRANCH  31  32
ATOM     32  C   UNL     1       3.472   5.337  17.899  0.00  0.00    +0.000 A 
ATOM     33  C   UNL     1       4.349   4.270  17.645  0.00  0.00    +0.000 A 
ATOM     34  C   UNL     1       3.861   2.974  17.455  0.00  0.00    +0.000 A 
ATOM     35  C   UNL     1       2.493   2.728  17.512  0.00  0.00    +0.000 A 
ATOM     36  C   UNL     1       1.607   3.777  17.751  0.00  0.00    +0.000 A 
ATOM     37  C   UNL     1       2.094   5.076  17.938  0.00  0.00    +0.000 A 
ENDBRANCH  31  32
ENDBRANCH  30  31
ENDBRANCH   8  30
TORSDOF 7
ENDMDL
MODEL 6
REMARK VINA RESULT:      -7.0      2.603      4.199
REMARK  Name = 
REMARK  9 active torsions:
REMARK  status: ('A' for Active; 'I' for Inactive)
REMARK    1  A    between atoms: C_1  and  O_2
REMARK    2  A    between atoms: O_2  and  C_3
REMARK    3  A    between atoms: C_7  and  C_8
REMARK    4  A    between atoms: C_9  and  C_10
REMARK    5  A    between atoms: N_12  and  C_13
REMARK    6  A    between atoms: C_19  and  C_20
REMARK    7  A    between atoms: C_24  and  S_25
REMARK    8  A    between atoms: S_25  and  C_26
REMARK    9  A    between atoms: C_26  and  C_27
REMARK                            x       y       z     vdW  Elec       q    Type
REMARK                         _______ _______ _______ _____ _____    ______ ____
ROOT
ATOM      1  C   UNL     1       0.219  12.382  20.094  0.00  0.00    +0.000 C 
ATOM      2  C   UNL     1      -0.540  12.651  21.424  0.00  0.00    +0.000 C 
ATOM      3  C   UNL     1      -1.025  11.591  22.137  0.00  0.00    +0.000 C 
ATOM      4  C   UNL     1      -2.002  11.630  23.292  0.00  0.00    +0.000 C 
ATOM      5  N   UNL     1      -0.696  10.282  21.768  0.00  0.00    +0.000 N 
ATOM      6  C   UNL     1       0.087   9.956  20.724  0.00  0.00    +0.000 A 
ATOM      7  N   UNL     1       0.534   8.799  20.291  0.00  0.00    +0.000 NA
ATOM      8  C   UNL     1       1.292   9.155  19.200  0.00  0.00    +0.000 A 
ATOM      9  N   UNL     1       1.266  10.456  18.897  0.00  0.00    +0.000 NA
ATOM     10  N   UNL     1       0.544  10.956  19.918  0.00  0.00    +0.000 N 
ATOM     11  H   UNL     1      -1.096   9.524  22.317  0.00  0.00    +0.000 HD
ENDROOT
BRANCH   1  16
ATOM     12  C   UNL     1       2.749  14.758  18.400  0.00  0.00    +0.000 A 
ATOM     13  C   UNL     1       3.680  14.902  19.432  0.00  0.00    +0.000 A 
ATOM     14  C   UNL     1       3.523  14.209  20.625  0.00  0.00    +0.000 A 
ATOM     15  C   UNL     1       2.432  13.363  20.785  0.00  0.00    +0.000 A 
ATOM     16  C   UNL     1       1.463  13.212  19.767  0.00  0.00    +0.000 A 
ATOM     17  C   UNL     1       1.635  13.924  18.570  0.00  0.00    +0.000 A 
BRANCH  12  19
ATOM     18  C   UNL     1       3.782  16.695  17.488  0.00  0.00    +0.000 C 
ATOM     19  O   UNL     1       3.034  15.505  17.289  0.00  0.00    +0.000 OA
ENDBRANCH  12  19
ENDBRANCH   1  16
BRANCH   2  20
ATOM     20  C   UNL     1      -0.847  14.116  21.634  0.00  0.00    +0.000 C 
ATOM     21  O   UNL     1      -0.275  14.701  22.548  0.00  0.00    +0.000 OA
ATOM     22  N   UNL     1      -1.778  14.691  20.792  0.00  0.00    +0.000 N 
ATOM     23  H   UNL     1      -2.166  14.126  20.051  0.00  0.00    +0.000 HD
BRANCH  22  24
ATOM     24  C   UNL     1      -2.215  16.044  20.808  0.00  0.00    +0.000 A 
ATOM     25  C   UNL     1      -1.688  17.055  20.008  0.00  0.00    +0.000 A 
ATOM     26  C   UNL     1      -2.156  18.368  20.138  0.00  0.00    +0.000 A 
ATOM     27  C   UNL     1      -3.156  18.631  21.053  0.00  0.00    +0.000 A 
ATOM     28  N   UNL     1      -3.711  17.682  21.838  0.00  0.00    +0.000 NA
ATOM     29  C   UNL     1      -3.225  16.422  21.697  0.00  0.00    +0.000 A 
ENDBRANCH  22  24
ENDBRANCH   2  20
BRANCH   8  30
ATOM     30  S   UNL     1       2.352   8.096  18.310  0.00  0.00    +0.000 S 
BRANCH  30  31
ATOM     31  C   UNL     1       2.869   6.909  19.569  0.00  0.00    +0.000 C 
BRANCH  31  32
ATOM     32  C   UNL     1       2.211   5.559  19.351  0.00  0.00    +0.000 A 
ATOM     33  C   UNL     1       2.135   4.996  18.067  0.00  0.00    +0.000 A 
ATOM     34  C   UNL     1       1.509   3.763  17.864  0.00  0.00    +0.000 A 
ATOM     35  C   UNL     1       0.947   3.080  18.938  0.00  0.00    +0.000 A 
ATOM     36  C   UNL     1       1.003   3.629  20.218  0.00  0.00    +0.000 A 
ATOM     37  C   UNL     1       1.627   4.865  20.422  0.00  0.00    +0.000 A 
ENDBRANCH  31  32
ENDBRANCH  30  31
ENDBRANCH   8  30
TORSDOF 7
ENDMDL
MODEL 7
REMARK VINA RESULT:      -7.0      3.343      5.046
REMARK  Name = 
REMARK  9 active torsions:
REMARK  status: ('A' for Active; 'I' for Inactive)
REMARK    1  A    between atoms: C_1  and  O_2
REMARK    2  A    between atoms: O_2  and  C_3
REMARK    3  A    between atoms: C_7  and  C_8
REMARK    4  A    between atoms: C_9  and  C_10
REMARK    5  A    between atoms: N_12  and  C_13
REMARK    6  A    between atoms: C_19  and  C_20
REMARK    7  A    between atoms: C_24  and  S_25
REMARK    8  A    between atoms: S_25  and  C_26
REMARK    9  A    between atoms: C_26  and  C_27
REMARK                            x       y       z     vdW  Elec       q    Type
REMARK                         _______ _______ _______ _____ _____    ______ ____
ROOT
ATOM      1  C   UNL     1       0.132  10.781  20.396  0.00  0.00    +0.000 C 
ATOM      2  C   UNL     1      -0.088  10.763  21.934  0.00  0.00    +0.000 C 
ATOM      3  C   UNL     1       0.253   9.645  22.641  0.00  0.00    +0.000 C 
ATOM      4  C   UNL     1      -0.111   9.315  24.071  0.00  0.00    +0.000 C 
ATOM      5  N   UNL     1       0.948   8.602  22.019  0.00  0.00    +0.000 N 
ATOM      6  C   UNL     1       1.324   8.597  20.727  0.00  0.00    +0.000 A 
ATOM      7  N   UNL     1       2.024   7.738  20.022  0.00  0.00    +0.000 NA
ATOM      8  C   UNL     1       2.064   8.327  18.779  0.00  0.00    +0.000 A 
ATOM      9  N   UNL     1       1.360   9.457  18.669  0.00  0.00    +0.000 NA
ATOM     10  N   UNL     1       0.949   9.643  19.938  0.00  0.00    +0.000 N 
ATOM     11  H   UNL     1       1.165   7.780  22.580  0.00  0.00    +0.000 HD
ENDROOT
BRANCH   1  16
ATOM     12  C   UNL     1       2.407  13.641  19.144  0.00  0.00    +0.000 A 
ATOM     13  C   UNL     1       1.542  14.265  18.241  0.00  0.00    +0.000 A 
ATOM     14  C   UNL     1       0.241  13.808  18.079  0.00  0.00    +0.000 A 
ATOM     15  C   UNL     1      -0.199  12.723  18.828  0.00  0.00    +0.000 A 
ATOM     16  C   UNL     1       0.657  12.058  19.734  0.00  0.00    +0.000 A 
ATOM     17  C   UNL     1       1.971  12.531  19.882  0.00  0.00    +0.000 A 
BRANCH  12  19
ATOM     18  C   UNL     1       4.119  14.841  18.014  0.00  0.00    +0.000 C 
ATOM     19  O   UNL     1       3.655  14.201  19.193  0.00  0.00    +0.000 OA
ENDBRANCH  12  19
ENDBRANCH   1  16
BRANCH   2  20
ATOM     20  C   UNL     1      -0.895  11.946  22.421  0.00  0.00    +0.000 C 
ATOM     21  O   UNL     1      -0.310  12.827  23.043  0.00  0.00    +0.000 OA
ATOM     22  N   UNL     1      -2.248  11.938  22.151  0.00  0.00    +0.000 N 
ATOM     23  H   UNL     1      -2.623  11.179  21.602  0.00  0.00    +0.000 HD
BRANCH  22  24
ATOM     24  C   UNL     1      -3.191  12.941  22.510  0.00  0.00    +0.000 A 
ATOM     25  C   UNL     1      -4.003  12.893  23.641  0.00  0.00    +0.000 A 
ATOM     26  C   UNL     1      -4.936  13.911  23.877  0.00  0.00    +0.000 A 
ATOM     27  C   UNL     1      -5.016  14.960  22.984  0.00  0.00    +0.000 A 
ATOM     28  N   UNL     1      -4.239  15.060  21.885  0.00  0.00    +0.000 NA
ATOM     29  C   UNL     1      -3.354  14.051  21.677  0.00  0.00    +0.000 A 
ENDBRANCH  22  24
ENDBRANCH   2  20
BRANCH   8  30
ATOM     30  S   UNL     1       3.043   7.802  17.437  0.00  0.00    +0.000 S 
BRANCH  30  31
ATOM     31  C   UNL     1       3.390   6.079  17.854  0.00  0.00    +0.000 C 
BRANCH  31  32
ATOM     32  C   UNL     1       4.661   5.598  17.179  0.00  0.00    +0.000 A 
ATOM     33  C   UNL     1       5.858   6.323  17.301  0.00  0.00    +0.000 A 
ATOM     34  C   UNL     1       7.023   5.891  16.661  0.00  0.00    +0.000 A 
ATOM     35  C   UNL     1       7.007   4.734  15.888  0.00  0.00    +0.000 A 
ATOM     36  C   UNL     1       5.825   4.009  15.745  0.00  0.00    +0.000 A 
ATOM     37  C   UNL     1       4.657   4.441  16.384  0.00  0.00    +0.000 A 
ENDBRANCH  31  32
ENDBRANCH  30  31
ENDBRANCH   8  30
TORSDOF 7
ENDMDL
MODEL 8
REMARK VINA RESULT:      -7.0      0.985      1.903
REMARK  Name = 
REMARK  9 active torsions:
REMARK  status: ('A' for Active; 'I' for Inactive)
REMARK    1  A    between atoms: C_1  and  O_2
REMARK    2  A    between atoms: O_2  and  C_3
REMARK    3  A    between atoms: C_7  and  C_8
REMARK    4  A    between atoms: C_9  and  C_10
REMARK    5  A    between atoms: N_12  and  C_13
REMARK    6  A    between atoms: C_19  and  C_20
REMARK    7  A    between atoms: C_24  and  S_25
REMARK    8  A    between atoms: S_25  and  C_26
REMARK    9  A    between atoms: C_26  and  C_27
REMARK                            x       y       z     vdW  Elec       q    Type
REMARK                         _______ _______ _______ _____ _____    ______ ____
ROOT
ATOM      1  C   UNL     1       0.438  12.474  19.301  0.00  0.00    +0.000 C 
ATOM      2  C   UNL     1       0.989  13.843  18.812  0.00  0.00    +0.000 C 
ATOM      3  C   UNL     1       2.177  13.878  18.139  0.00  0.00    +0.000 C 
ATOM      4  C   UNL     1       3.013  15.096  17.812  0.00  0.00    +0.000 C 
ATOM      5  N   UNL     1       2.802  12.689  17.746  0.00  0.00    +0.000 N 
ATOM      6  C   UNL     1       2.318  11.457  17.985  0.00  0.00    +0.000 A 
ATOM      7  N   UNL     1       2.743  10.265  17.633  0.00  0.00    +0.000 NA
ATOM      8  C   UNL     1       1.795   9.431  18.179  0.00  0.00    +0.000 A 
ATOM      9  N   UNL     1       0.861  10.043  18.911  0.00  0.00    +0.000 NA
ATOM     10  N   UNL     1       1.177  11.339  18.721  0.00  0.00    +0.000 N 
ATOM     11  H   UNL     1       3.695  12.764  17.263  0.00  0.00    +0.000 HD
ENDROOT
BRANCH   1  16
ATOM     12  C   UNL     1      -3.363  12.311  19.965  0.00  0.00    +0.000 A 
ATOM     13  C   UNL     1      -3.811  11.864  18.719  0.00  0.00    +0.000 A 
ATOM     14  C   UNL     1      -2.906  11.572  17.707  0.00  0.00    +0.000 A 
ATOM     15  C   UNL     1      -1.545  11.723  17.944  0.00  0.00    +0.000 A 
ATOM     16  C   UNL     1      -1.063  12.192  19.187  0.00  0.00    +0.000 A 
ATOM     17  C   UNL     1      -1.992  12.487  20.197  0.00  0.00    +0.000 A 
BRANCH  12  19
ATOM     18  C   UNL     1      -3.993  12.747  22.215  0.00  0.00    +0.000 C 
ATOM     19  O   UNL     1      -4.369  12.560  20.859  0.00  0.00    +0.000 OA
ENDBRANCH  12  19
ENDBRANCH   1  16
BRANCH   2  20
ATOM     20  C   UNL     1       0.216  15.016  19.372  0.00  0.00    +0.000 C 
ATOM     21  O   UNL     1      -0.414  15.719  18.589  0.00  0.00    +0.000 OA
ATOM     22  N   UNL     1       0.295  15.229  20.734  0.00  0.00    +0.000 N 
ATOM     23  H   UNL     1       0.816  14.569  21.292  0.00  0.00    +0.000 HD
BRANCH  22  24
ATOM     24  C   UNL     1      -0.346  16.263  21.469  0.00  0.00    +0.000 A 
ATOM     25  C   UNL     1      -1.617  16.162  22.032  0.00  0.00    +0.000 A 
ATOM     26  C   UNL     1      -2.179  17.260  22.695  0.00  0.00    +0.000 A 
ATOM     27  C   UNL     1      -1.445  18.425  22.794  0.00  0.00    +0.000 A 
ATOM     28  N   UNL     1      -0.204  18.566  22.282  0.00  0.00    +0.000 NA
ATOM     29  C   UNL     1       0.307  17.488  21.633  0.00  0.00    +0.000 A 
ENDBRANCH  22  24
ENDBRANCH   2  20
BRANCH   8  30
ATOM     30  S   UNL     1       1.652   7.720  17.876  0.00  0.00    +0.000 S 
BRANCH  30  31
ATOM     31  C   UNL     1       2.435   6.996  19.334  0.00  0.00    +0.000 C 
BRANCH  31  32
ATOM     32  C   UNL     1       2.024   5.547  19.512  0.00  0.00    +0.000 A 
ATOM     33  C   UNL     1       1.862   4.998  20.795  0.00  0.00    +0.000 A 
ATOM     34  C   UNL     1       1.506   3.657  20.959  0.00  0.00    +0.000 A 
ATOM     35  C   UNL     1       1.311   2.846  19.845  0.00  0.00    +0.000 A 
ATOM     36  C   UNL     1       1.479   3.369  18.564  0.00  0.00    +0.000 A 
ATOM     37  C   UNL     1       1.839   4.712  18.399  0.00  0.00    +0.000 A 
ENDBRANCH  31  32
ENDBRANCH  30  31
ENDBRANCH   8  30
TORSDOF 7
ENDMDL
MODEL 9
REMARK VINA RESULT:      -6.9      3.126      4.632
REMARK  Name = 
REMARK  9 active torsions:
REMARK  status: ('A' for Active; 'I' for Inactive)
REMARK    1  A    between atoms: C_1  and  O_2
REMARK    2  A    between atoms: O_2  and  C_3
REMARK    3  A    between atoms: C_7  and  C_8
REMARK    4  A    between atoms: C_9  and  C_10
REMARK    5  A    between atoms: N_12  and  C_13
REMARK    6  A    between atoms: C_19  and  C_20
REMARK    7  A    between atoms: C_24  and  S_25
REMARK    8  A    between atoms: S_25  and  C_26
REMARK    9  A    between atoms: C_26  and  C_27
REMARK                            x       y       z     vdW  Elec       q    Type
REMARK                         _______ _______ _______ _____ _____    ______ ____
ROOT
ATOM      1  C   UNL     1       0.062  10.745  20.394  0.00  0.00    +0.000 C 
ATOM      2  C   UNL     1      -0.103  10.753  21.939  0.00  0.00    +0.000 C 
ATOM      3  C   UNL     1       0.294   9.659  22.654  0.00  0.00    +0.000 C 
ATOM      4  C   UNL     1      -0.010   9.348  24.104  0.00  0.00    +0.000 C 
ATOM      5  N   UNL     1       0.994   8.621  22.028  0.00  0.00    +0.000 N 
ATOM      6  C   UNL     1       1.323   8.600  20.724  0.00  0.00    +0.000 A 
ATOM      7  N   UNL     1       2.020   7.747  20.010  0.00  0.00    +0.000 NA
ATOM      8  C   UNL     1       2.000   8.311  18.756  0.00  0.00    +0.000 A 
ATOM      9  N   UNL     1       1.262   9.419  18.649  0.00  0.00    +0.000 NA
ATOM     10  N   UNL     1       0.892   9.620  19.929  0.00  0.00    +0.000 N 
ATOM     11  H   UNL     1       1.253   7.818  22.597  0.00  0.00    +0.000 HD
ENDROOT
BRANCH   1  16
ATOM     12  C   UNL     1       2.217  13.621  18.978  0.00  0.00    +0.000 A 
ATOM     13  C   UNL     1       1.290  14.225  18.124  0.00  0.00    +0.000 A 
ATOM     14  C   UNL     1      -0.012  13.749  18.046  0.00  0.00    +0.000 A 
ATOM     15  C   UNL     1      -0.391  12.666  18.830  0.00  0.00    +0.000 A 
ATOM     16  C   UNL     1       0.528  12.022  19.689  0.00  0.00    +0.000 A 
ATOM     17  C   UNL     1       1.842  12.514  19.752  0.00  0.00    +0.000 A 
BRANCH  12  19
ATOM     18  C   UNL     1       3.960  14.714  20.169  0.00  0.00    +0.000 C 
ATOM     19  O   UNL     1       3.458  14.197  18.945  0.00  0.00    +0.000 OA
ENDBRANCH  12  19
ENDBRANCH   1  16
BRANCH   2  20
ATOM     20  C   UNL     1      -0.923  11.924  22.432  0.00  0.00    +0.000 C 
ATOM     21  O   UNL     1      -0.374  12.751  23.153  0.00  0.00    +0.000 OA
ATOM     22  N   UNL     1      -2.250  11.966  22.054  0.00  0.00    +0.000 N 
ATOM     23  H   UNL     1      -2.593  11.250  21.431  0.00  0.00    +0.000 HD
BRANCH  22  24
ATOM     24  C   UNL     1      -3.198  12.968  22.398  0.00  0.00    +0.000 A 
ATOM     25  C   UNL     1      -3.703  13.917  21.513  0.00  0.00    +0.000 A 
ATOM     26  C   UNL     1      -4.598  14.894  21.966  0.00  0.00    +0.000 A 
ATOM     27  C   UNL     1      -4.979  14.882  23.293  0.00  0.00    +0.000 A 
ATOM     28  N   UNL     1      -4.532  13.973  24.186  0.00  0.00    +0.000 NA
ATOM     29  C   UNL     1      -3.656  13.048  23.717  0.00  0.00    +0.000 A 
ENDBRANCH  22  24
ENDBRANCH   2  20
BRANCH   8  30
ATOM     30  S   UNL     1       2.944   7.785  17.389  0.00  0.00    +0.000 S 
BRANCH  30  31
ATOM     31  C   UNL     1       4.031   6.539  18.118  0.00  0.00    +0.000 C 
BRANCH  31  32
ATOM     32  C   UNL     1       3.465   5.144  17.933  0.00  0.00    +0.000 A 
ATOM     33  C   UNL     1       2.082   4.914  18.008  0.00  0.00    +0.000 A 
ATOM     34  C   UNL     1       1.563   3.624  17.859  0.00  0.00    +0.000 A 
ATOM     35  C   UNL     1       2.418   2.549  17.638  0.00  0.00    +0.000 A 
ATOM     36  C   UNL     1       3.794   2.757  17.572  0.00  0.00    +0.000 A 
ATOM     37  C   UNL     1       4.316   4.047  17.724  0.00  0.00    +0.000 A 
ENDBRANCH  31  32
ENDBRANCH  30  31
ENDBRANCH   8  30
TORSDOF 7
ENDMDL
