MODEL 1
REMARK VINA RESULT:      -7.5      0.000      0.000
REMARK  Name = 
REMARK  3 active torsions:
REMARK  status: ('A' for Active; 'I' for Inactive)
REMARK    1  A    between atoms: C_2  and  C_4
REMARK    2  A    between atoms: C_10  and  C_11
REMARK    3  A    between atoms: C_15  and  N_16
REMARK                            x       y       z     vdW  Elec       q    Type
REMARK                         _______ _______ _______ _____ _____    ______ ____
ROOT
ATOM      1  C   UNL     1       2.675   3.165  19.389  0.00  0.00    +0.000 C 
ATOM      2  C   UNL     1       3.334   4.216  18.483  0.00  0.00    +0.000 C 
ATOM      3  C   UNL     1       3.644   5.501  19.249  0.00  0.00    +0.000 C 
ATOM      4  N   UNL     1       2.409   5.980  19.853  0.00  0.00    +0.000 N 
ATOM      5  C   UNL     1       1.996   7.275  19.749  0.00  0.00    +0.000 A 
ATOM      6  N   UNL     1       1.281   7.914  20.656  0.00  0.00    +0.000 NA
ATOM      7  C   UNL     1       0.980   9.206  20.241  0.00  0.00    +0.000 A 
ATOM      8  C   UNL     1       1.461   9.535  18.992  0.00  0.00    +0.000 A 
ATOM      9  S   UNL     1       2.306   8.218  18.323  0.00  0.00    +0.000 S 
ATOM     10  C   UNL     1       1.832   5.096  20.859  0.00  0.00    +0.000 C 
ATOM     11  C   UNL     1       1.493   3.761  20.179  0.00  0.00    +0.000 C 
ENDROOT
BRANCH   7  12
ATOM     12  C   UNL     1       0.251  10.151  21.081  0.00  0.00    +0.000 A 
ATOM     13  C   UNL     1      -0.395   9.706  22.239  0.00  0.00    +0.000 A 
ATOM     14  C   UNL     1      -1.006  10.622  23.100  0.00  0.00    +0.000 A 
ATOM     15  C   UNL     1      -0.999  11.985  22.793  0.00  0.00    +0.000 A 
ATOM     16  C   UNL     1      -0.433  12.443  21.604  0.00  0.00    +0.000 A 
ATOM     17  C   UNL     1       0.226  11.525  20.781  0.00  0.00    +0.000 A 
BRANCH  16  18
ATOM     18  N   UNL     1      -0.310  13.817  21.359  0.00  0.00    +0.000 N 
ATOM     19  H   UNL     1      -0.980  14.384  21.870  0.00  0.00    +0.000 HD
ATOM     20  H   UNL     1      -0.280  14.057  20.373  0.00  0.00    +0.000 HD
ENDBRANCH  16  18
ENDBRANCH   7  12
BRANCH   1  22
ATOM     21  N   UNL     1       4.889   2.202  19.727  0.00  0.00    +0.000 N 
ATOM     22  C   UNL     1       3.698   2.519  20.313  0.00  0.00    +0.000 C 
ATOM     23  O   UNL     1       3.510   2.279  21.500  0.00  0.00    +0.000 OA
ATOM     24  H   UNL     1       5.559   1.702  20.300  0.00  0.00    +0.000 HD
ATOM     25  H   UNL     1       5.009   2.175  18.725  0.00  0.00    +0.000 HD
ENDBRANCH   1  22
TORSDOF 3
ENDMDL
MODEL 2
REMARK VINA RESULT:      -7.4      1.274      1.351
REMARK  Name = 
REMARK  3 active torsions:
REMARK  status: ('A' for Active; 'I' for Inactive)
REMARK    1  A    between atoms: C_2  and  C_4
REMARK    2  A    between atoms: C_10  and  C_11
REMARK    3  A    between atoms: C_15  and  N_16
REMARK                            x       y       z     vdW  Elec       q    Type
REMARK                         _______ _______ _______ _____ _____    ______ ____
ROOT
ATOM      1  C   UNL     1       3.649   3.909  18.256  0.00  0.00    +0.000 C 
ATOM      2  C   UNL     1       3.934   5.149  17.396  0.00  0.00    +0.000 C 
ATOM      3  C   UNL     1       4.069   6.406  18.252  0.00  0.00    +0.000 C 
ATOM      4  N   UNL     1       2.859   6.546  19.049  0.00  0.00    +0.000 N 
ATOM      5  C   UNL     1       2.169   7.719  19.136  0.00  0.00    +0.000 A 
ATOM      6  N   UNL     1       1.471   8.107  20.186  0.00  0.00    +0.000 NA
ATOM      7  C   UNL     1       0.846   9.327  19.952  0.00  0.00    +0.000 A 
ATOM      8  C   UNL     1       1.064   9.852  18.697  0.00  0.00    +0.000 A 
ATOM      9  S   UNL     1       2.066   8.816  17.792  0.00  0.00    +0.000 S 
ATOM     10  C   UNL     1       2.632   5.479  20.016  0.00  0.00    +0.000 C 
ATOM     11  C   UNL     1       2.492   4.159  19.243  0.00  0.00    +0.000 C 
ENDROOT
BRANCH   7  12
ATOM     12  C   UNL     1       0.060  10.015  20.971  0.00  0.00    +0.000 A 
ATOM     13  C   UNL     1      -0.076   9.458  22.247  0.00  0.00    +0.000 A 
ATOM     14  C   UNL     1      -0.740  10.161  23.255  0.00  0.00    +0.000 A 
ATOM     15  C   UNL     1      -1.298  11.413  22.986  0.00  0.00    +0.000 A 
ATOM     16  C   UNL     1      -1.247  11.952  21.700  0.00  0.00    +0.000 A 
ATOM     17  C   UNL     1      -0.529  11.266  20.716  0.00  0.00    +0.000 A 
BRANCH  16  18
ATOM     18  N   UNL     1      -1.690  13.260  21.461  0.00  0.00    +0.000 N 
ATOM     19  H   UNL     1      -2.543  13.307  20.912  0.00  0.00    +0.000 HD
ATOM     20  H   UNL     1      -0.969  13.877  21.101  0.00  0.00    +0.000 HD
ENDBRANCH  16  18
ENDBRANCH   7  12
BRANCH   1  22
ATOM     21  N   UNL     1       4.786   2.254  19.639  0.00  0.00    +0.000 N 
ATOM     22  C   UNL     1       4.907   3.439  18.974  0.00  0.00    +0.000 C 
ATOM     23  O   UNL     1       5.971   4.047  18.984  0.00  0.00    +0.000 OA
ATOM     24  H   UNL     1       5.585   1.956  20.188  0.00  0.00    +0.000 HD
ATOM     25  H   UNL     1       3.890   1.836  19.843  0.00  0.00    +0.000 HD
ENDBRANCH   1  22
TORSDOF 3
ENDMDL
MODEL 3
REMARK VINA RESULT:      -7.4      3.447      4.531
REMARK  Name = 
REMARK  3 active torsions:
REMARK  status: ('A' for Active; 'I' for Inactive)
REMARK    1  A    between atoms: C_2  and  C_4
REMARK    2  A    between atoms: C_10  and  C_11
REMARK    3  A    between atoms: C_15  and  N_16
REMARK                            x       y       z     vdW  Elec       q    Type
REMARK                         _______ _______ _______ _____ _____    ______ ____
ROOT
ATOM      1  C   UNL     1       6.884   4.714  16.163  0.00  0.00    +0.000 C 
ATOM      2  C   UNL     1       5.897   3.702  16.763  0.00  0.00    +0.000 C 
ATOM      3  C   UNL     1       4.468   4.240  16.755  0.00  0.00    +0.000 C 
ATOM      4  N   UNL     1       4.458   5.515  17.458  0.00  0.00    +0.000 N 
ATOM      5  C   UNL     1       3.545   5.812  18.425  0.00  0.00    +0.000 A 
ATOM      6  N   UNL     1       3.095   7.024  18.693  0.00  0.00    +0.000 NA
ATOM      7  C   UNL     1       2.207   7.007  19.763  0.00  0.00    +0.000 A 
ATOM      8  C   UNL     1       2.005   5.763  20.321  0.00  0.00    +0.000 A 
ATOM      9  S   UNL     1       2.928   4.593  19.500  0.00  0.00    +0.000 S 
ATOM     10  C   UNL     1       5.241   6.572  16.828  0.00  0.00    +0.000 C 
ATOM     11  C   UNL     1       6.706   6.114  16.781  0.00  0.00    +0.000 C 
ENDROOT
BRANCH   7  12
ATOM     12  C   UNL     1       1.514   8.204  20.227  0.00  0.00    +0.000 A 
ATOM     13  C   UNL     1       1.288   9.269  19.348  0.00  0.00    +0.000 A 
ATOM     14  C   UNL     1       0.536  10.372  19.760  0.00  0.00    +0.000 A 
ATOM     15  C   UNL     1       0.030  10.431  21.060  0.00  0.00    +0.000 A 
ATOM     16  C   UNL     1       0.312   9.420  21.979  0.00  0.00    +0.000 A 
ATOM     17  C   UNL     1       1.015   8.294  21.539  0.00  0.00    +0.000 A 
BRANCH  16  18
ATOM     18  N   UNL     1      -0.301   9.414  23.239  0.00  0.00    +0.000 N 
ATOM     19  H   UNL     1      -0.013  10.184  23.836  0.00  0.00    +0.000 HD
ATOM     20  H   UNL     1      -0.249   8.520  23.716  0.00  0.00    +0.000 HD
ENDBRANCH  16  18
ENDBRANCH   7  12
BRANCH   1  22
ATOM     21  N   UNL     1       7.725   5.500  14.013  0.00  0.00    +0.000 N 
ATOM     22  C   UNL     1       6.773   4.753  14.645  0.00  0.00    +0.000 C 
ATOM     23  O   UNL     1       5.909   4.175  13.995  0.00  0.00    +0.000 OA
ATOM     24  H   UNL     1       7.629   5.605  13.010  0.00  0.00    +0.000 HD
ATOM     25  H   UNL     1       8.309   6.160  14.505  0.00  0.00    +0.000 HD
ENDBRANCH   1  22
TORSDOF 3
ENDMDL
MODEL 4
REMARK VINA RESULT:      -7.4      4.971      8.649
REMARK  Name = 
REMARK  3 active torsions:
REMARK  status: ('A' for Active; 'I' for Inactive)
REMARK    1  A    between atoms: C_2  and  C_4
REMARK    2  A    between atoms: C_10  and  C_11
REMARK    3  A    between atoms: C_15  and  N_16
REMARK                            x       y       z     vdW  Elec       q    Type
REMARK                         _______ _______ _______ _____ _____    ______ ____
ROOT
ATOM      1  C   UNL     1       2.765   3.484  21.032  0.00  0.00    +0.000 C 
ATOM      2  C   UNL     1       2.637   4.961  20.628  0.00  0.00    +0.000 C 
ATOM      3  C   UNL     1       2.389   5.112  19.128  0.00  0.00    +0.000 C 
ATOM      4  N   UNL     1       3.461   4.429  18.419  0.00  0.00    +0.000 N 
ATOM      5  C   UNL     1       4.146   5.007  17.392  0.00  0.00    +0.000 A 
ATOM      6  N   UNL     1       4.677   4.354  16.375  0.00  0.00    +0.000 NA
ATOM      7  C   UNL     1       5.349   5.217  15.518  0.00  0.00    +0.000 A 
ATOM      8  C   UNL     1       5.339   6.539  15.909  0.00  0.00    +0.000 A 
ATOM      9  S   UNL     1       4.476   6.714  17.365  0.00  0.00    +0.000 S 
ATOM     10  C   UNL     1       3.517   2.987  18.627  0.00  0.00    +0.000 C 
ATOM     11  C   UNL     1       3.756   2.732  20.123  0.00  0.00    +0.000 C 
ENDROOT
BRANCH   7  12
ATOM     12  C   UNL     1       5.976   4.764  14.280  0.00  0.00    +0.000 A 
ATOM     13  C   UNL     1       7.195   5.314  13.869  0.00  0.00    +0.000 A 
ATOM     14  C   UNL     1       7.848   4.811  12.740  0.00  0.00    +0.000 A 
ATOM     15  C   UNL     1       7.273   3.775  12.001  0.00  0.00    +0.000 A 
ATOM     16  C   UNL     1       6.020   3.267  12.343  0.00  0.00    +0.000 A 
ATOM     17  C   UNL     1       5.405   3.737  13.508  0.00  0.00    +0.000 A 
BRANCH  16  18
ATOM     18  N   UNL     1       5.504   2.145  11.683  0.00  0.00    +0.000 N 
ATOM     19  H   UNL     1       4.888   1.580  12.260  0.00  0.00    +0.000 HD
ATOM     20  H   UNL     1       6.209   1.584  11.215  0.00  0.00    +0.000 HD
ENDBRANCH  16  18
ENDBRANCH   7  12
BRANCH   1  22
ATOM     21  N   UNL     1       1.025   2.313  22.276  0.00  0.00    +0.000 N 
ATOM     22  C   UNL     1       1.403   2.804  21.060  0.00  0.00    +0.000 C 
ATOM     23  O   UNL     1       0.666   2.681  20.089  0.00  0.00    +0.000 OA
ATOM     24  H   UNL     1       0.158   1.790  22.306  0.00  0.00    +0.000 HD
ATOM     25  H   UNL     1       1.677   2.194  23.038  0.00  0.00    +0.000 HD
ENDBRANCH   1  22
TORSDOF 3
ENDMDL
MODEL 5
REMARK VINA RESULT:      -7.3      3.590      4.527
REMARK  Name = 
REMARK  3 active torsions:
REMARK  status: ('A' for Active; 'I' for Inactive)
REMARK    1  A    between atoms: C_2  and  C_4
REMARK    2  A    between atoms: C_10  and  C_11
REMARK    3  A    between atoms: C_15  and  N_16
REMARK                            x       y       z     vdW  Elec       q    Type
REMARK                         _______ _______ _______ _____ _____    ______ ____
ROOT
ATOM      1  C   UNL     1       7.006   4.705  15.955  0.00  0.00    +0.000 C 
ATOM      2  C   UNL     1       6.028   3.707  16.593  0.00  0.00    +0.000 C 
ATOM      3  C   UNL     1       4.594   4.230  16.564  0.00  0.00    +0.000 C 
ATOM      4  N   UNL     1       4.571   5.530  17.218  0.00  0.00    +0.000 N 
ATOM      5  C   UNL     1       3.654   5.854  18.174  0.00  0.00    +0.000 A 
ATOM      6  N   UNL     1       3.192   7.070  18.395  0.00  0.00    +0.000 NA
ATOM      7  C   UNL     1       2.304   7.085  19.465  0.00  0.00    +0.000 A 
ATOM      8  C   UNL     1       2.114   5.861  20.069  0.00  0.00    +0.000 A 
ATOM      9  S   UNL     1       3.049   4.670  19.293  0.00  0.00    +0.000 S 
ATOM     10  C   UNL     1       5.343   6.570  16.550  0.00  0.00    +0.000 C 
ATOM     11  C   UNL     1       6.813   6.126  16.521  0.00  0.00    +0.000 C 
ENDROOT
BRANCH   7  12
ATOM     12  C   UNL     1       1.599   8.292  19.884  0.00  0.00    +0.000 A 
ATOM     13  C   UNL     1       1.213   8.452  21.219  0.00  0.00    +0.000 A 
ATOM     14  C   UNL     1       0.631   9.648  21.645  0.00  0.00    +0.000 A 
ATOM     15  C   UNL     1       0.403  10.681  20.732  0.00  0.00    +0.000 A 
ATOM     16  C   UNL     1       0.704  10.514  19.380  0.00  0.00    +0.000 A 
ATOM     17  C   UNL     1       1.340   9.336  18.978  0.00  0.00    +0.000 A 
BRANCH  16  18
ATOM     18  N   UNL     1       0.598  11.592  18.491  0.00  0.00    +0.000 N 
ATOM     19  H   UNL     1      -0.101  12.277  18.762  0.00  0.00    +0.000 HD
ATOM     20  H   UNL     1       0.504  11.314  17.520  0.00  0.00    +0.000 HD
ENDBRANCH  16  18
ENDBRANCH   7  12
BRANCH   1  22
ATOM     21  N   UNL     1       7.755   5.521  13.782  0.00  0.00    +0.000 N 
ATOM     22  C   UNL     1       6.895   4.686  14.437  0.00  0.00    +0.000 C 
ATOM     23  O   UNL     1       6.107   3.992  13.805  0.00  0.00    +0.000 OA
ATOM     24  H   UNL     1       7.650   5.584  12.777  0.00  0.00    +0.000 HD
ATOM     25  H   UNL     1       8.256   6.260  14.254  0.00  0.00    +0.000 HD
ENDBRANCH   1  22
TORSDOF 3
ENDMDL
MODEL 6
REMARK VINA RESULT:      -7.2      1.052      1.529
REMARK  Name = 
REMARK  3 active torsions:
REMARK  status: ('A' for Active; 'I' for Inactive)
REMARK    1  A    between atoms: C_2  and  C_4
REMARK    2  A    between atoms: C_10  and  C_11
REMARK    3  A    between atoms: C_15  and  N_16
REMARK                            x       y       z     vdW  Elec       q    Type
REMARK                         _______ _______ _______ _____ _____    ______ ____
ROOT
ATOM      1  C   UNL     1       2.738   3.111  19.379  0.00  0.00    +0.000 C 
ATOM      2  C   UNL     1       3.537   4.032  18.444  0.00  0.00    +0.000 C 
ATOM      3  C   UNL     1       3.841   5.374  19.105  0.00  0.00    +0.000 C 
ATOM      4  N   UNL     1       2.583   5.967  19.531  0.00  0.00    +0.000 N 
ATOM      5  C   UNL     1       2.252   7.262  19.259  0.00  0.00    +0.000 A 
ATOM      6  N   UNL     1       1.489   8.023  20.022  0.00  0.00    +0.000 NA
ATOM      7  C   UNL     1       1.300   9.277  19.453  0.00  0.00    +0.000 A 
ATOM      8  C   UNL     1       1.915   9.452  18.232  0.00  0.00    +0.000 A 
ATOM      9  S   UNL     1       2.747   8.037  17.784  0.00  0.00    +0.000 S 
ATOM     10  C   UNL     1       1.865   5.220  20.557  0.00  0.00    +0.000 C 
ATOM     11  C   UNL     1       1.521   3.837  19.984  0.00  0.00    +0.000 C 
ENDROOT
BRANCH   7  12
ATOM     12  C   UNL     1       0.547  10.335  20.118  0.00  0.00    +0.000 A 
ATOM     13  C   UNL     1       0.279  11.533  19.447  0.00  0.00    +0.000 A 
ATOM     14  C   UNL     1      -0.529  12.507  20.041  0.00  0.00    +0.000 A 
ATOM     15  C   UNL     1      -1.048  12.301  21.321  0.00  0.00    +0.000 A 
ATOM     16  C   UNL     1      -0.727  11.151  22.043  0.00  0.00    +0.000 A 
ATOM     17  C   UNL     1       0.032  10.159  21.414  0.00  0.00    +0.000 A 
BRANCH  16  18
ATOM     18  N   UNL     1      -1.350  10.885  23.269  0.00  0.00    +0.000 N 
ATOM     19  H   UNL     1      -2.104  11.528  23.491  0.00  0.00    +0.000 HD
ATOM     20  H   UNL     1      -0.703  10.772  24.042  0.00  0.00    +0.000 HD
ENDBRANCH  16  18
ENDBRANCH   7  12
BRANCH   1  22
ATOM     21  N   UNL     1       4.872   2.133  20.039  0.00  0.00    +0.000 N 
ATOM     22  C   UNL     1       3.632   2.520  20.460  0.00  0.00    +0.000 C 
ATOM     23  O   UNL     1       3.306   2.380  21.633  0.00  0.00    +0.000 OA
ATOM     24  H   UNL     1       5.458   1.666  20.721  0.00  0.00    +0.000 HD
ATOM     25  H   UNL     1       5.102   2.023  19.062  0.00  0.00    +0.000 HD
ENDBRANCH   1  22
TORSDOF 3
ENDMDL
MODEL 7
REMARK VINA RESULT:      -7.1      3.125      8.176
REMARK  Name = 
REMARK  3 active torsions:
REMARK  status: ('A' for Active; 'I' for Inactive)
REMARK    1  A    between atoms: C_2  and  C_4
REMARK    2  A    between atoms: C_10  and  C_11
REMARK    3  A    between atoms: C_15  and  N_16
REMARK                            x       y       z     vdW  Elec       q    Type
REMARK                         _______ _______ _______ _____ _____    ______ ____
ROOT
ATOM      1  C   UNL     1      -0.368  10.117  20.326  0.00  0.00    +0.000 C 
ATOM      2  C   UNL     1      -0.217   8.964  21.330  0.00  0.00    +0.000 C 
ATOM      3  C   UNL     1       1.227   8.473  21.405  0.00  0.00    +0.000 C 
ATOM      4  N   UNL     1       1.653   8.105  20.063  0.00  0.00    +0.000 N 
ATOM      5  C   UNL     1       2.274   6.922  19.789  0.00  0.00    +0.000 A 
ATOM      6  N   UNL     1       3.158   6.739  18.826  0.00  0.00    +0.000 NA
ATOM      7  C   UNL     1       3.575   5.414  18.771  0.00  0.00    +0.000 A 
ATOM      8  C   UNL     1       2.978   4.585  19.697  0.00  0.00    +0.000 A 
ATOM      9  S   UNL     1       1.883   5.467  20.655  0.00  0.00    +0.000 S 
ATOM     10  C   UNL     1       1.701   9.205  19.108  0.00  0.00    +0.000 C 
ATOM     11  C   UNL     1       0.282   9.777  18.971  0.00  0.00    +0.000 C 
ENDROOT
BRANCH   7  12
ATOM     12  C   UNL     1       4.596   4.950  17.837  0.00  0.00    +0.000 A 
ATOM     13  C   UNL     1       4.279   4.762  16.487  0.00  0.00    +0.000 A 
ATOM     14  C   UNL     1       5.276   4.418  15.572  0.00  0.00    +0.000 A 
ATOM     15  C   UNL     1       6.591   4.232  16.004  0.00  0.00    +0.000 A 
ATOM     16  C   UNL     1       6.916   4.334  17.356  0.00  0.00    +0.000 A 
ATOM     17  C   UNL     1       5.922   4.736  18.254  0.00  0.00    +0.000 A 
BRANCH  16  18
ATOM     18  N   UNL     1       8.253   4.277  17.772  0.00  0.00    +0.000 N 
ATOM     19  H   UNL     1       8.805   3.583  17.277  0.00  0.00    +0.000 HD
ATOM     20  H   UNL     1       8.367   4.209  18.778  0.00  0.00    +0.000 HD
ENDBRANCH  16  18
ENDBRANCH   7  12
BRANCH   1  22
ATOM     21  N   UNL     1       0.599  12.327  19.973  0.00  0.00    +0.000 N 
ATOM     22  C   UNL     1       0.178  11.417  20.899  0.00  0.00    +0.000 C 
ATOM     23  O   UNL     1       0.255  11.673  22.095  0.00  0.00    +0.000 OA
ATOM     24  H   UNL     1       1.037  13.169  20.329  0.00  0.00    +0.000 HD
ATOM     25  H   UNL     1       0.761  12.081  19.007  0.00  0.00    +0.000 HD
ENDBRANCH   1  22
TORSDOF 3
ENDMDL
MODEL 8
REMARK VINA RESULT:      -7.1      1.071      1.102
REMARK  Name = 
REMARK  3 active torsions:
REMARK  status: ('A' for Active; 'I' for Inactive)
REMARK    1  A    between atoms: C_2  and  C_4
REMARK    2  A    between atoms: C_10  and  C_11
REMARK    3  A    between atoms: C_15  and  N_16
REMARK                            x       y       z     vdW  Elec       q    Type
REMARK                         _______ _______ _______ _____ _____    ______ ____
ROOT
ATOM      1  C   UNL     1       2.788   2.959  17.974  0.00  0.00    +0.000 C 
ATOM      2  C   UNL     1       3.534   4.140  17.334  0.00  0.00    +0.000 C 
ATOM      3  C   UNL     1       3.839   5.231  18.359  0.00  0.00    +0.000 C 
ATOM      4  N   UNL     1       2.587   5.633  18.982  0.00  0.00    +0.000 N 
ATOM      5  C   UNL     1       2.223   6.940  19.121  0.00  0.00    +0.000 A 
ATOM      6  N   UNL     1       1.476   7.415  20.099  0.00  0.00    +0.000 NA
ATOM      7  C   UNL     1       1.243   8.777  19.939  0.00  0.00    +0.000 A 
ATOM      8  C   UNL     1       1.809   9.326  18.808  0.00  0.00    +0.000 A 
ATOM      9  S   UNL     1       2.649   8.134  17.932  0.00  0.00    +0.000 S 
ATOM     10  C   UNL     1       1.922   4.593  19.757  0.00  0.00    +0.000 C 
ATOM     11  C   UNL     1       1.581   3.436  18.806  0.00  0.00    +0.000 C 
ENDROOT
BRANCH   7  12
ATOM     12  C   UNL     1       0.497   9.566  20.913  0.00  0.00    +0.000 A 
ATOM     13  C   UNL     1       0.105   8.992  22.128  0.00  0.00    +0.000 A 
ATOM     14  C   UNL     1      -0.518   9.773  23.105  0.00  0.00    +0.000 A 
ATOM     15  C   UNL     1      -0.780  11.123  22.863  0.00  0.00    +0.000 A 
ATOM     16  C   UNL     1      -0.473  11.697  21.629  0.00  0.00    +0.000 A 
ATOM     17  C   UNL     1       0.203  10.921  20.682  0.00  0.00    +0.000 A 
BRANCH  16  18
ATOM     18  N   UNL     1      -0.615  13.076  21.432  0.00  0.00    +0.000 N 
ATOM     19  H   UNL     1       0.173  13.620  21.771  0.00  0.00    +0.000 HD
ATOM     20  H   UNL     1      -1.503  13.448  21.756  0.00  0.00    +0.000 HD
ENDBRANCH  16  18
ENDBRANCH   7  12
BRANCH   1  22
ATOM     21  N   UNL     1       4.024   0.877  18.262  0.00  0.00    +0.000 N 
ATOM     22  C   UNL     1       3.732   2.097  18.800  0.00  0.00    +0.000 C 
ATOM     23  O   UNL     1       4.218   2.429  19.874  0.00  0.00    +0.000 OA
ATOM     24  H   UNL     1       4.589   0.254  18.826  0.00  0.00    +0.000 HD
ATOM     25  H   UNL     1       3.486   0.476  17.507  0.00  0.00    +0.000 HD
ENDBRANCH   1  22
TORSDOF 3
ENDMDL
MODEL 9
REMARK VINA RESULT:      -6.9      2.825      7.894
REMARK  Name = 
REMARK  3 active torsions:
REMARK  status: ('A' for Active; 'I' for Inactive)
REMARK    1  A    between atoms: C_2  and  C_4
REMARK    2  A    between atoms: C_10  and  C_11
REMARK    3  A    between atoms: C_15  and  N_16
REMARK                            x       y       z     vdW  Elec       q    Type
REMARK                         _______ _______ _______ _____ _____    ______ ____
ROOT
ATOM      1  C   UNL     1       0.471  12.137  20.140  0.00  0.00    +0.000 C 
ATOM      2  C   UNL     1       0.920  11.712  18.734  0.00  0.00    +0.000 C 
ATOM      3  C   UNL     1       0.529  10.267  18.433  0.00  0.00    +0.000 C 
ATOM      4  N   UNL     1       1.085   9.419  19.477  0.00  0.00    +0.000 N 
ATOM      5  C   UNL     1       1.782   8.279  19.203  0.00  0.00    +0.000 A 
ATOM      6  N   UNL     1       1.821   7.213  19.979  0.00  0.00    +0.000 NA
ATOM      7  C   UNL     1       2.653   6.233  19.448  0.00  0.00    +0.000 A 
ATOM      8  C   UNL     1       3.265   6.581  18.263  0.00  0.00    +0.000 A 
ATOM      9  S   UNL     1       2.796   8.148  17.797  0.00  0.00    +0.000 S 
ATOM     10  C   UNL     1       0.556   9.660  20.814  0.00  0.00    +0.000 C 
ATOM     11  C   UNL     1       0.894  11.106  21.204  0.00  0.00    +0.000 C 
ENDROOT
BRANCH   7  12
ATOM     12  C   UNL     1       2.827   4.927  20.075  0.00  0.00    +0.000 A 
ATOM     13  C   UNL     1       1.951   4.510  21.082  0.00  0.00    +0.000 A 
ATOM     14  C   UNL     1       2.051   3.221  21.612  0.00  0.00    +0.000 A 
ATOM     15  C   UNL     1       3.046   2.352  21.159  0.00  0.00    +0.000 A 
ATOM     16  C   UNL     1       3.983   2.773  20.216  0.00  0.00    +0.000 A 
ATOM     17  C   UNL     1       3.836   4.044  19.650  0.00  0.00    +0.000 A 
BRANCH  16  18
ATOM     18  N   UNL     1       4.897   1.864  19.667  0.00  0.00    +0.000 N 
ATOM     19  H   UNL     1       4.499   1.272  18.944  0.00  0.00    +0.000 HD
ATOM     20  H   UNL     1       5.409   1.329  20.360  0.00  0.00    +0.000 HD
ENDBRANCH  16  18
ENDBRANCH   7  12
BRANCH   1  22
ATOM     21  N   UNL     1      -1.538  13.020  19.076  0.00  0.00    +0.000 N 
ATOM     22  C   UNL     1      -1.028  12.400  20.180  0.00  0.00    +0.000 C 
ATOM     23  O   UNL     1      -1.764  12.098  21.113  0.00  0.00    +0.000 OA
ATOM     24  H   UNL     1      -2.518  13.275  19.109  0.00  0.00    +0.000 HD
ATOM     25  H   UNL     1      -0.951  13.479  18.394  0.00  0.00    +0.000 HD
ENDBRANCH   1  22
TORSDOF 3
ENDMDL
