MODEL 1
REMARK VINA RESULT:      -8.9      0.000      0.000
REMARK  Name = 
REMARK  9 active torsions:
REMARK  status: ('A' for Active; 'I' for Inactive)
REMARK    1  A    between atoms: C_1  and  C_2
REMARK    2  A    between atoms: C_8  and  C_9
REMARK    3  A    between atoms: C_9  and  C_10
REMARK    4  A    between atoms: C_10  and  N_11
REMARK    5  A    between atoms: C_10  and  C_12
REMARK    6  A    between atoms: C_12  and  O_13
REMARK    7  A    between atoms: O_13  and  C_14
REMARK    8  A    between atoms: C_18  and  C_19
REMARK    9  A    between atoms: C_25  and  C_26
REMARK                            x       y       z     vdW  Elec       q    Type
REMARK                         _______ _______ _______ _____ _____    ______ ____
ROOT
ATOM      1  C   UNL     1       4.749   4.545  19.503  0.00  0.00    +0.000 A 
ATOM      2  C   UNL     1       3.919   3.427  19.590  0.00  0.00    +0.000 A 
ATOM      3  N   UNL     1       2.570   3.501  19.667  0.00  0.00    +0.000 NA
ATOM      4  C   UNL     1       2.034   4.737  19.658  0.00  0.00    +0.000 A 
ATOM      5  C   UNL     1       2.764   5.930  19.575  0.00  0.00    +0.000 A 
ATOM      6  C   UNL     1       4.152   5.794  19.493  0.00  0.00    +0.000 A 
ENDROOT
BRANCH   5   7
ATOM      7  C   UNL     1       2.114   7.240  19.545  0.00  0.00    +0.000 A 
ATOM      8  C   UNL     1       2.119   8.014  18.371  0.00  0.00    +0.000 A 
ATOM      9  C   UNL     1       1.545   9.283  18.311  0.00  0.00    +0.000 A 
ATOM     10  C   UNL     1       0.953   9.763  19.479  0.00  0.00    +0.000 A 
ATOM     11  N   UNL     1       0.332  10.947  19.765  0.00  0.00    +0.000 N 
ATOM     12  N   UNL     1      -0.119  11.045  21.028  0.00  0.00    +0.000 NA
ATOM     13  C   UNL     1       0.227   9.875  21.582  0.00  0.00    +0.000 A 
ATOM     14  C   UNL     1      -0.088   9.592  23.002  0.00  0.00    +0.000 C 
ATOM     15  C   UNL     1       0.905   9.033  20.661  0.00  0.00    +0.000 A 
ATOM     16  C   UNL     1       1.484   7.759  20.696  0.00  0.00    +0.000 A 
ATOM     17  H   UNL     1       0.189  11.735  19.144  0.00  0.00    +0.000 HD
ENDBRANCH   5   7
BRANCH   1  18
ATOM     18  O   UNL     1       6.088   4.318  19.408  0.00  0.00    +0.000 OA
BRANCH  18  19
ATOM     19  C   UNL     1       6.897   5.499  19.270  0.00  0.00    +0.000 C 
BRANCH  19  20
ATOM     20  C   UNL     1       7.520   5.479  17.863  0.00  0.00    +0.000 C 
BRANCH  20  21
ATOM     21  N   UNL     1       7.989   4.126  17.507  0.00  0.00    +0.000 NA
ATOM     22  H   UNL     1       7.248   3.595  17.055  0.00  0.00    +0.000 HD
ATOM     23  H   UNL     1       8.240   3.616  18.354  0.00  0.00    +0.000 HD
ENDBRANCH  20  21
BRANCH  20  24
ATOM     24  C   UNL     1       6.536   6.011  16.796  0.00  0.00    +0.000 C 
BRANCH  24  32
ATOM     25  C   UNL     1       4.420   3.980  16.244  0.00  0.00    +0.000 C 
ATOM     26  C   UNL     1       5.472   4.311  15.217  0.00  0.00    +0.000 A 
ATOM     27  C   UNL     1       5.427   3.654  13.970  0.00  0.00    +0.000 A 
ATOM     28  C   UNL     1       6.371   3.932  12.982  0.00  0.00    +0.000 A 
ATOM     29  C   UNL     1       7.363   4.861  13.235  0.00  0.00    +0.000 A 
ATOM     30  F   UNL     1       8.268   5.140  12.286  0.00  0.00    +0.000 F 
ATOM     31  C   UNL     1       7.430   5.520  14.457  0.00  0.00    +0.000 A 
ATOM     32  C   UNL     1       6.492   5.255  15.475  0.00  0.00    +0.000 A 
ENDBRANCH  24  32
ENDBRANCH  20  24
ENDBRANCH  19  20
ENDBRANCH  18  19
ENDBRANCH   1  18
TORSDOF 7
ENDMDL
MODEL 2
REMARK VINA RESULT:      -8.4      2.473      4.200
REMARK  Name = 
REMARK  9 active torsions:
REMARK  status: ('A' for Active; 'I' for Inactive)
REMARK    1  A    between atoms: C_1  and  C_2
REMARK    2  A    between atoms: C_8  and  C_9
REMARK    3  A    between atoms: C_9  and  C_10
REMARK    4  A    between atoms: C_10  and  N_11
REMARK    5  A    between atoms: C_10  and  C_12
REMARK    6  A    between atoms: C_12  and  O_13
REMARK    7  A    between atoms: O_13  and  C_14
REMARK    8  A    between atoms: C_18  and  C_19
REMARK    9  A    between atoms: C_25  and  C_26
REMARK                            x       y       z     vdW  Elec       q    Type
REMARK                         _______ _______ _______ _____ _____    ______ ____
ROOT
ATOM      1  C   UNL     1       2.419   6.325  19.498  0.00  0.00    +0.000 A 
ATOM      2  C   UNL     1       2.815   6.850  18.268  0.00  0.00    +0.000 A 
ATOM      3  N   UNL     1       2.553   8.118  17.876  0.00  0.00    +0.000 NA
ATOM      4  C   UNL     1       1.868   8.887  18.745  0.00  0.00    +0.000 A 
ATOM      5  C   UNL     1       1.418   8.470  20.005  0.00  0.00    +0.000 A 
ATOM      6  C   UNL     1       1.722   7.154  20.359  0.00  0.00    +0.000 A 
ENDROOT
BRANCH   5   7
ATOM      7  C   UNL     1       0.701   9.368  20.910  0.00  0.00    +0.000 A 
ATOM      8  C   UNL     1       0.378   8.959  22.216  0.00  0.00    +0.000 A 
ATOM      9  C   UNL     1      -0.337   9.769  23.097  0.00  0.00    +0.000 A 
ATOM     10  C   UNL     1      -0.725  11.023  22.626  0.00  0.00    +0.000 A 
ATOM     11  N   UNL     1      -1.439  12.034  23.209  0.00  0.00    +0.000 N 
ATOM     12  N   UNL     1      -1.615  13.111  22.423  0.00  0.00    +0.000 NA
ATOM     13  C   UNL     1      -0.991  12.782  21.285  0.00  0.00    +0.000 A 
ATOM     14  C   UNL     1      -0.971  13.721  20.139  0.00  0.00    +0.000 C 
ATOM     15  C   UNL     1      -0.418  11.484  21.351  0.00  0.00    +0.000 A 
ATOM     16  C   UNL     1       0.306  10.654  20.486  0.00  0.00    +0.000 A 
ATOM     17  H   UNL     1      -1.842  12.048  24.139  0.00  0.00    +0.000 HD
ENDBRANCH   5   7
BRANCH   1  18
ATOM     18  O   UNL     1       2.774   5.038  19.767  0.00  0.00    +0.000 OA
BRANCH  18  19
ATOM     19  C   UNL     1       2.326   4.070  18.803  0.00  0.00    +0.000 C 
BRANCH  19  20
ATOM     20  C   UNL     1       3.512   3.142  18.484  0.00  0.00    +0.000 C 
BRANCH  20  21
ATOM     21  N   UNL     1       3.065   1.749  18.300  0.00  0.00    +0.000 NA
ATOM     22  H   UNL     1       2.645   1.623  17.382  0.00  0.00    +0.000 HD
ATOM     23  H   UNL     1       2.342   1.527  18.985  0.00  0.00    +0.000 HD
ENDBRANCH  20  21
BRANCH  20  24
ATOM     24  C   UNL     1       4.298   3.629  17.244  0.00  0.00    +0.000 C 
BRANCH  24  32
ATOM     25  C   UNL     1       5.439   5.332  15.075  0.00  0.00    +0.000 C 
ATOM     26  C   UNL     1       5.986   5.384  16.478  0.00  0.00    +0.000 A 
ATOM     27  C   UNL     1       7.044   6.274  16.757  0.00  0.00    +0.000 A 
ATOM     28  C   UNL     1       7.579   6.367  18.040  0.00  0.00    +0.000 A 
ATOM     29  C   UNL     1       7.066   5.572  19.048  0.00  0.00    +0.000 A 
ATOM     30  F   UNL     1       7.570   5.662  20.287  0.00  0.00    +0.000 F 
ATOM     31  C   UNL     1       6.026   4.684  18.797  0.00  0.00    +0.000 A 
ATOM     32  C   UNL     1       5.470   4.565  17.508  0.00  0.00    +0.000 A 
ENDBRANCH  24  32
ENDBRANCH  20  24
ENDBRANCH  19  20
ENDBRANCH  18  19
ENDBRANCH   1  18
TORSDOF 7
ENDMDL
MODEL 3
REMARK VINA RESULT:      -8.3      4.160      9.135
REMARK  Name = 
REMARK  9 active torsions:
REMARK  status: ('A' for Active; 'I' for Inactive)
REMARK    1  A    between atoms: C_1  and  C_2
REMARK    2  A    between atoms: C_8  and  C_9
REMARK    3  A    between atoms: C_9  and  C_10
REMARK    4  A    between atoms: C_10  and  N_11
REMARK    5  A    between atoms: C_10  and  C_12
REMARK    6  A    between atoms: C_12  and  O_13
REMARK    7  A    between atoms: O_13  and  C_14
REMARK    8  A    between atoms: C_18  and  C_19
REMARK    9  A    between atoms: C_25  and  C_26
REMARK                            x       y       z     vdW  Elec       q    Type
REMARK                         _______ _______ _______ _____ _____    ______ ____
ROOT
ATOM      1  C   UNL     1       1.206   9.638  19.008  0.00  0.00    +0.000 A 
ATOM      2  C   UNL     1       0.908   9.439  20.357  0.00  0.00    +0.000 A 
ATOM      3  N   UNL     1       1.241   8.318  21.038  0.00  0.00    +0.000 NA
ATOM      4  C   UNL     1       1.893   7.364  20.345  0.00  0.00    +0.000 A 
ATOM      5  C   UNL     1       2.244   7.451  18.991  0.00  0.00    +0.000 A 
ATOM      6  C   UNL     1       1.880   8.632  18.340  0.00  0.00    +0.000 A 
ENDROOT
BRANCH   5   7
ATOM      7  C   UNL     1       2.975   6.386  18.307  0.00  0.00    +0.000 A 
ATOM      8  C   UNL     1       2.360   5.149  18.043  0.00  0.00    +0.000 A 
ATOM      9  C   UNL     1       3.034   4.096  17.428  0.00  0.00    +0.000 A 
ATOM     10  C   UNL     1       4.365   4.319  17.075  0.00  0.00    +0.000 A 
ATOM     11  N   UNL     1       5.299   3.511  16.489  0.00  0.00    +0.000 N 
ATOM     12  N   UNL     1       6.498   4.093  16.306  0.00  0.00    +0.000 NA
ATOM     13  C   UNL     1       6.332   5.328  16.797  0.00  0.00    +0.000 A 
ATOM     14  C   UNL     1       7.452   6.298  16.792  0.00  0.00    +0.000 C 
ATOM     15  C   UNL     1       5.016   5.526  17.296  0.00  0.00    +0.000 A 
ATOM     16  C   UNL     1       4.317   6.572  17.911  0.00  0.00    +0.000 A 
ATOM     17  H   UNL     1       5.185   2.547  16.195  0.00  0.00    +0.000 HD
ENDBRANCH   5   7
BRANCH   1  18
ATOM     18  O   UNL     1       0.830  10.826  18.460  0.00  0.00    +0.000 OA
BRANCH  18  19
ATOM     19  C   UNL     1       0.758  11.927  19.384  0.00  0.00    +0.000 C 
BRANCH  19  20
ATOM     20  C   UNL     1      -0.614  12.601  19.204  0.00  0.00    +0.000 C 
BRANCH  20  21
ATOM     21  N   UNL     1      -0.719  13.253  17.885  0.00  0.00    +0.000 NA
ATOM     22  H   UNL     1       0.197  13.560  17.561  0.00  0.00    +0.000 HD
ATOM     23  H   UNL     1      -1.298  14.090  17.960  0.00  0.00    +0.000 HD
ENDBRANCH  20  21
BRANCH  20  24
ATOM     24  C   UNL     1      -1.773  11.599  19.408  0.00  0.00    +0.000 C 
BRANCH  24  32
ATOM     25  C   UNL     1      -4.669  12.320  19.450  0.00  0.00    +0.000 C 
ATOM     26  C   UNL     1      -4.034  11.709  18.228  0.00  0.00    +0.000 A 
ATOM     27  C   UNL     1      -4.834  11.501  17.085  0.00  0.00    +0.000 A 
ATOM     28  C   UNL     1      -4.292  10.949  15.926  0.00  0.00    +0.000 A 
ATOM     29  C   UNL     1      -2.956  10.598  15.902  0.00  0.00    +0.000 A 
ATOM     30  F   UNL     1      -2.426  10.074  14.788  0.00  0.00    +0.000 F 
ATOM     31  C   UNL     1      -2.147  10.790  17.017  0.00  0.00    +0.000 A 
ATOM     32  C   UNL     1      -2.669  11.342  18.204  0.00  0.00    +0.000 A 
ENDBRANCH  24  32
ENDBRANCH  20  24
ENDBRANCH  19  20
ENDBRANCH  18  19
ENDBRANCH   1  18
TORSDOF 7
ENDMDL
MODEL 4
REMARK VINA RESULT:      -8.3      4.819     10.286
REMARK  Name = 
REMARK  9 active torsions:
REMARK  status: ('A' for Active; 'I' for Inactive)
REMARK    1  A    between atoms: C_1  and  C_2
REMARK    2  A    between atoms: C_8  and  C_9
REMARK    3  A    between atoms: C_9  and  C_10
REMARK    4  A    between atoms: C_10  and  N_11
REMARK    5  A    between atoms: C_10  and  C_12
REMARK    6  A    between atoms: C_12  and  O_13
REMARK    7  A    between atoms: O_13  and  C_14
REMARK    8  A    between atoms: C_18  and  C_19
REMARK    9  A    between atoms: C_25  and  C_26
REMARK                            x       y       z     vdW  Elec       q    Type
REMARK                         _______ _______ _______ _____ _____    ______ ____
ROOT
ATOM      1  C   UNL     1       1.069   9.266  19.445  0.00  0.00    +0.000 A 
ATOM      2  C   UNL     1       1.321   9.932  18.245  0.00  0.00    +0.000 A 
ATOM      3  N   UNL     1       2.169   9.471  17.297  0.00  0.00    +0.000 NA
ATOM      4  C   UNL     1       2.787   8.303  17.559  0.00  0.00    +0.000 A 
ATOM      5  C   UNL     1       2.615   7.546  18.726  0.00  0.00    +0.000 A 
ATOM      6  C   UNL     1       1.724   8.067  19.667  0.00  0.00    +0.000 A 
ENDROOT
BRANCH   5   7
ATOM      7  C   UNL     1       3.300   6.271  18.935  0.00  0.00    +0.000 A 
ATOM      8  C   UNL     1       4.498   5.983  18.259  0.00  0.00    +0.000 A 
ATOM      9  C   UNL     1       5.162   4.765  18.401  0.00  0.00    +0.000 A 
ATOM     10  C   UNL     1       4.583   3.828  19.255  0.00  0.00    +0.000 A 
ATOM     11  N   UNL     1       4.953   2.556  19.597  0.00  0.00    +0.000 N 
ATOM     12  N   UNL     1       4.123   1.954  20.467  0.00  0.00    +0.000 NA
ATOM     13  C   UNL     1       3.176   2.873  20.695  0.00  0.00    +0.000 A 
ATOM     14  C   UNL     1       2.047   2.581  21.609  0.00  0.00    +0.000 C 
ATOM     15  C   UNL     1       3.409   4.066  19.960  0.00  0.00    +0.000 A 
ATOM     16  C   UNL     1       2.763   5.299  19.806  0.00  0.00    +0.000 A 
ATOM     17  H   UNL     1       5.758   2.037  19.265  0.00  0.00    +0.000 HD
ENDBRANCH   5   7
BRANCH   1  18
ATOM     18  O   UNL     1       0.173   9.837  20.295  0.00  0.00    +0.000 OA
BRANCH  18  19
ATOM     19  C   UNL     1       0.678  10.118  21.612  0.00  0.00    +0.000 C 
BRANCH  19  20
ATOM     20  C   UNL     1      -0.530  10.350  22.538  0.00  0.00    +0.000 C 
BRANCH  20  21
ATOM     21  N   UNL     1      -0.331   9.699  23.847  0.00  0.00    +0.000 NA
ATOM     22  H   UNL     1      -1.104   9.070  24.057  0.00  0.00    +0.000 HD
ATOM     23  H   UNL     1      -0.320  10.404  24.583  0.00  0.00    +0.000 HD
ENDBRANCH  20  21
BRANCH  20  24
ATOM     24  C   UNL     1      -0.826  11.857  22.720  0.00  0.00    +0.000 C 
BRANCH  24  32
ATOM     25  C   UNL     1      -1.980  12.727  20.109  0.00  0.00    +0.000 C 
ATOM     26  C   UNL     1      -2.825  12.669  21.355  0.00  0.00    +0.000 A 
ATOM     27  C   UNL     1      -4.189  13.016  21.262  0.00  0.00    +0.000 A 
ATOM     28  C   UNL     1      -5.015  12.968  22.383  0.00  0.00    +0.000 A 
ATOM     29  C   UNL     1      -4.486  12.581  23.600  0.00  0.00    +0.000 A 
ATOM     30  F   UNL     1      -5.277  12.524  24.681  0.00  0.00    +0.000 F 
ATOM     31  C   UNL     1      -3.144  12.236  23.718  0.00  0.00    +0.000 A 
ATOM     32  C   UNL     1      -2.284  12.280  22.602  0.00  0.00    +0.000 A 
ENDBRANCH  24  32
ENDBRANCH  20  24
ENDBRANCH  19  20
ENDBRANCH  18  19
ENDBRANCH   1  18
TORSDOF 7
ENDMDL
MODEL 5
REMARK VINA RESULT:      -8.3      3.148      8.544
REMARK  Name = 
REMARK  9 active torsions:
REMARK  status: ('A' for Active; 'I' for Inactive)
REMARK    1  A    between atoms: C_1  and  C_2
REMARK    2  A    between atoms: C_8  and  C_9
REMARK    3  A    between atoms: C_9  and  C_10
REMARK    4  A    between atoms: C_10  and  N_11
REMARK    5  A    between atoms: C_10  and  C_12
REMARK    6  A    between atoms: C_12  and  O_13
REMARK    7  A    between atoms: O_13  and  C_14
REMARK    8  A    between atoms: C_18  and  C_19
REMARK    9  A    between atoms: C_25  and  C_26
REMARK                            x       y       z     vdW  Elec       q    Type
REMARK                         _______ _______ _______ _____ _____    ______ ____
ROOT
ATOM      1  C   UNL     1       2.031   5.339  19.874  0.00  0.00    +0.000 A 
ATOM      2  C   UNL     1       1.374   4.117  19.716  0.00  0.00    +0.000 A 
ATOM      3  N   UNL     1       1.747   3.179  18.816  0.00  0.00    +0.000 NA
ATOM      4  C   UNL     1       2.813   3.472  18.046  0.00  0.00    +0.000 A 
ATOM      5  C   UNL     1       3.550   4.663  18.113  0.00  0.00    +0.000 A 
ATOM      6  C   UNL     1       3.124   5.593  19.063  0.00  0.00    +0.000 A 
ENDROOT
BRANCH   5   7
ATOM      7  C   UNL     1       4.714   4.906  17.263  0.00  0.00    +0.000 A 
ATOM      8  C   UNL     1       5.766   5.728  17.706  0.00  0.00    +0.000 A 
ATOM      9  C   UNL     1       6.875   6.015  16.912  0.00  0.00    +0.000 A 
ATOM     10  C   UNL     1       6.904   5.445  15.640  0.00  0.00    +0.000 A 
ATOM     11  N   UNL     1       7.813   5.536  14.622  0.00  0.00    +0.000 N 
ATOM     12  N   UNL     1       7.488   4.829  13.526  0.00  0.00    +0.000 NA
ATOM     13  C   UNL     1       6.319   4.259  13.847  0.00  0.00    +0.000 A 
ATOM     14  C   UNL     1       5.611   3.393  12.876  0.00  0.00    +0.000 C 
ATOM     15  C   UNL     1       5.901   4.612  15.158  0.00  0.00    +0.000 A 
ATOM     16  C   UNL     1       4.799   4.333  15.976  0.00  0.00    +0.000 A 
ATOM     17  H   UNL     1       8.674   6.071  14.609  0.00  0.00    +0.000 HD
ENDBRANCH   5   7
BRANCH   1  18
ATOM     18  O   UNL     1       1.558   6.177  20.836  0.00  0.00    +0.000 OA
BRANCH  18  19
ATOM     19  C   UNL     1       1.950   7.554  20.689  0.00  0.00    +0.000 C 
BRANCH  19  20
ATOM     20  C   UNL     1       0.667   8.402  20.627  0.00  0.00    +0.000 C 
BRANCH  20  21
ATOM     21  N   UNL     1       0.167   8.713  21.979  0.00  0.00    +0.000 NA
ATOM     22  H   UNL     1      -0.775   9.098  21.936  0.00  0.00    +0.000 HD
ATOM     23  H   UNL     1       0.756   9.428  22.407  0.00  0.00    +0.000 HD
ENDBRANCH  20  21
BRANCH  20  24
ATOM     24  C   UNL     1       0.882   9.700  19.815  0.00  0.00    +0.000 C 
BRANCH  24  32
ATOM     25  C   UNL     1      -0.577  12.108  20.807  0.00  0.00    +0.000 C 
ATOM     26  C   UNL     1      -1.001  11.402  19.544  0.00  0.00    +0.000 A 
ATOM     27  C   UNL     1      -2.097  11.916  18.821  0.00  0.00    +0.000 A 
ATOM     28  C   UNL     1      -2.523  11.307  17.642  0.00  0.00    +0.000 A 
ATOM     29  C   UNL     1      -1.862  10.183  17.183  0.00  0.00    +0.000 A 
ATOM     30  F   UNL     1      -2.260   9.596  16.045  0.00  0.00    +0.000 F 
ATOM     31  C   UNL     1      -0.780   9.655  17.880  0.00  0.00    +0.000 A 
ATOM     32  C   UNL     1      -0.332  10.248  19.077  0.00  0.00    +0.000 A 
ENDBRANCH  24  32
ENDBRANCH  20  24
ENDBRANCH  19  20
ENDBRANCH  18  19
ENDBRANCH   1  18
TORSDOF 7
ENDMDL
MODEL 6
REMARK VINA RESULT:      -8.3      3.233      8.804
REMARK  Name = 
REMARK  9 active torsions:
REMARK  status: ('A' for Active; 'I' for Inactive)
REMARK    1  A    between atoms: C_1  and  C_2
REMARK    2  A    between atoms: C_8  and  C_9
REMARK    3  A    between atoms: C_9  and  C_10
REMARK    4  A    between atoms: C_10  and  N_11
REMARK    5  A    between atoms: C_10  and  C_12
REMARK    6  A    between atoms: C_12  and  O_13
REMARK    7  A    between atoms: O_13  and  C_14
REMARK    8  A    between atoms: C_18  and  C_19
REMARK    9  A    between atoms: C_25  and  C_26
REMARK                            x       y       z     vdW  Elec       q    Type
REMARK                         _______ _______ _______ _____ _____    ______ ____
ROOT
ATOM      1  C   UNL     1       2.185   6.976  19.877  0.00  0.00    +0.000 A 
ATOM      2  C   UNL     1       1.760   5.779  20.456  0.00  0.00    +0.000 A 
ATOM      3  N   UNL     1       2.291   4.572  20.152  0.00  0.00    +0.000 NA
ATOM      4  C   UNL     1       3.280   4.562  19.238  0.00  0.00    +0.000 A 
ATOM      5  C   UNL     1       3.788   5.697  18.591  0.00  0.00    +0.000 A 
ATOM      6  C   UNL     1       3.207   6.916  18.946  0.00  0.00    +0.000 A 
ENDROOT
BRANCH   5   7
ATOM      7  C   UNL     1       4.883   5.617  17.625  0.00  0.00    +0.000 A 
ATOM      8  C   UNL     1       6.124   6.220  17.897  0.00  0.00    +0.000 A 
ATOM      9  C   UNL     1       7.180   6.199  16.987  0.00  0.00    +0.000 A 
ATOM     10  C   UNL     1       6.957   5.544  15.777  0.00  0.00    +0.000 A 
ATOM     11  N   UNL     1       7.753   5.360  14.680  0.00  0.00    +0.000 N 
ATOM     12  N   UNL     1       7.174   4.662  13.687  0.00  0.00    +0.000 NA
ATOM     13  C   UNL     1       5.952   4.386  14.160  0.00  0.00    +0.000 A 
ATOM     14  C   UNL     1       4.980   3.627  13.339  0.00  0.00    +0.000 C 
ATOM     15  C   UNL     1       5.756   4.917  15.463  0.00  0.00    +0.000 A 
ATOM     16  C   UNL     1       4.712   4.947  16.395  0.00  0.00    +0.000 A 
ATOM     17  H   UNL     1       8.701   5.691  14.543  0.00  0.00    +0.000 HD
ENDBRANCH   5   7
BRANCH   1  18
ATOM     18  O   UNL     1       1.574   8.118  20.296  0.00  0.00    +0.000 OA
BRANCH  18  19
ATOM     19  C   UNL     1       1.011   8.056  21.619  0.00  0.00    +0.000 C 
BRANCH  19  20
ATOM     20  C   UNL     1       0.180   9.333  21.835  0.00  0.00    +0.000 C 
BRANCH  20  21
ATOM     21  N   UNL     1       0.387   9.882  23.188  0.00  0.00    +0.000 NA
ATOM     22  H   UNL     1      -0.447  10.369  23.511  0.00  0.00    +0.000 HD
ATOM     23  H   UNL     1       1.139  10.572  23.167  0.00  0.00    +0.000 HD
ENDBRANCH  20  21
BRANCH  20  24
ATOM     24  C   UNL     1       0.489  10.402  20.761  0.00  0.00    +0.000 C 
BRANCH  24  32
ATOM     25  C   UNL     1      -1.472  12.555  21.415  0.00  0.00    +0.000 C 
ATOM     26  C   UNL     1      -1.555  11.791  20.119  0.00  0.00    +0.000 A 
ATOM     27  C   UNL     1      -2.572  12.128  19.201  0.00  0.00    +0.000 A 
ATOM     28  C   UNL     1      -2.684  11.459  17.984  0.00  0.00    +0.000 A 
ATOM     29  C   UNL     1      -1.790  10.451  17.679  0.00  0.00    +0.000 A 
ATOM     30  F   UNL     1      -1.887   9.809  16.506  0.00  0.00    +0.000 F 
ATOM     31  C   UNL     1      -0.780  10.098  18.568  0.00  0.00    +0.000 A 
ATOM     32  C   UNL     1      -0.646  10.754  19.808  0.00  0.00    +0.000 A 
ENDBRANCH  24  32
ENDBRANCH  20  24
ENDBRANCH  19  20
ENDBRANCH  18  19
ENDBRANCH   1  18
TORSDOF 7
ENDMDL
MODEL 7
REMARK VINA RESULT:      -8.2      5.096     10.769
REMARK  Name = 
REMARK  9 active torsions:
REMARK  status: ('A' for Active; 'I' for Inactive)
REMARK    1  A    between atoms: C_1  and  C_2
REMARK    2  A    between atoms: C_8  and  C_9
REMARK    3  A    between atoms: C_9  and  C_10
REMARK    4  A    between atoms: C_10  and  N_11
REMARK    5  A    between atoms: C_10  and  C_12
REMARK    6  A    between atoms: C_12  and  O_13
REMARK    7  A    between atoms: O_13  and  C_14
REMARK    8  A    between atoms: C_18  and  C_19
REMARK    9  A    between atoms: C_25  and  C_26
REMARK                            x       y       z     vdW  Elec       q    Type
REMARK                         _______ _______ _______ _____ _____    ______ ____
ROOT
ATOM      1  C   UNL     1       1.005   9.353  19.876  0.00  0.00    +0.000 A 
ATOM      2  C   UNL     1       1.044  10.062  18.675  0.00  0.00    +0.000 A 
ATOM      3  N   UNL     1       1.725   9.645  17.583  0.00  0.00    +0.000 NA
ATOM      4  C   UNL     1       2.391   8.480  17.697  0.00  0.00    +0.000 A 
ATOM      5  C   UNL     1       2.426   7.683  18.850  0.00  0.00    +0.000 A 
ATOM      6  C   UNL     1       1.701   8.159  19.945  0.00  0.00    +0.000 A 
ENDROOT
BRANCH   5   7
ATOM      7  C   UNL     1       3.151   6.414  18.896  0.00  0.00    +0.000 A 
ATOM      8  C   UNL     1       4.237   6.176  18.036  0.00  0.00    +0.000 A 
ATOM      9  C   UNL     1       4.928   4.967  18.022  0.00  0.00    +0.000 A 
ATOM     10  C   UNL     1       4.497   3.983  18.912  0.00  0.00    +0.000 A 
ATOM     11  N   UNL     1       4.930   2.706  19.138  0.00  0.00    +0.000 N 
ATOM     12  N   UNL     1       4.249   2.052  20.096  0.00  0.00    +0.000 NA
ATOM     13  C   UNL     1       3.337   2.944  20.504  0.00  0.00    +0.000 A 
ATOM     14  C   UNL     1       2.363   2.593  21.564  0.00  0.00    +0.000 C 
ATOM     15  C   UNL     1       3.441   4.170  19.796  0.00  0.00    +0.000 A 
ATOM     16  C   UNL     1       2.764   5.396  19.795  0.00  0.00    +0.000 A 
ATOM     17  H   UNL     1       5.682   2.217  18.666  0.00  0.00    +0.000 HD
ENDBRANCH   5   7
BRANCH   1  18
ATOM     18  O   UNL     1       0.259   9.882  20.885  0.00  0.00    +0.000 OA
BRANCH  18  19
ATOM     19  C   UNL     1      -0.850  10.693  20.459  0.00  0.00    +0.000 C 
BRANCH  19  20
ATOM     20  C   UNL     1      -1.122  11.733  21.561  0.00  0.00    +0.000 C 
BRANCH  20  21
ATOM     21  N   UNL     1       0.106  12.471  21.912  0.00  0.00    +0.000 NA
ATOM     22  H   UNL     1       0.906  11.842  21.952  0.00  0.00    +0.000 HD
ATOM     23  H   UNL     1       0.008  12.878  22.843  0.00  0.00    +0.000 HD
ENDBRANCH  20  21
BRANCH  20  24
ATOM     24  C   UNL     1      -2.248  12.712  21.156  0.00  0.00    +0.000 C 
BRANCH  24  32
ATOM     25  C   UNL     1      -5.000  13.132  20.082  0.00  0.00    +0.000 C 
ATOM     26  C   UNL     1      -4.757  12.954  21.558  0.00  0.00    +0.000 A 
ATOM     27  C   UNL     1      -5.865  12.968  22.431  0.00  0.00    +0.000 A 
ATOM     28  C   UNL     1      -5.694  12.798  23.804  0.00  0.00    +0.000 A 
ATOM     29  C   UNL     1      -4.421  12.617  24.312  0.00  0.00    +0.000 A 
ATOM     30  F   UNL     1      -4.251  12.444  25.630  0.00  0.00    +0.000 F 
ATOM     31  C   UNL     1      -3.313  12.602  23.472  0.00  0.00    +0.000 A 
ATOM     32  C   UNL     1      -3.455  12.777  22.081  0.00  0.00    +0.000 A 
ENDBRANCH  24  32
ENDBRANCH  20  24
ENDBRANCH  19  20
ENDBRANCH  18  19
ENDBRANCH   1  18
TORSDOF 7
ENDMDL
MODEL 8
REMARK VINA RESULT:      -8.2      3.730      9.195
REMARK  Name = 
REMARK  9 active torsions:
REMARK  status: ('A' for Active; 'I' for Inactive)
REMARK    1  A    between atoms: C_1  and  C_2
REMARK    2  A    between atoms: C_8  and  C_9
REMARK    3  A    between atoms: C_9  and  C_10
REMARK    4  A    between atoms: C_10  and  N_11
REMARK    5  A    between atoms: C_10  and  C_12
REMARK    6  A    between atoms: C_12  and  O_13
REMARK    7  A    between atoms: O_13  and  C_14
REMARK    8  A    between atoms: C_18  and  C_19
REMARK    9  A    between atoms: C_25  and  C_26
REMARK                            x       y       z     vdW  Elec       q    Type
REMARK                         _______ _______ _______ _____ _____    ______ ____
ROOT
ATOM      1  C   UNL     1       2.148   5.377  19.861  0.00  0.00    +0.000 A 
ATOM      2  C   UNL     1       1.366   4.248  19.613  0.00  0.00    +0.000 A 
ATOM      3  N   UNL     1       1.620   3.367  18.618  0.00  0.00    +0.000 NA
ATOM      4  C   UNL     1       2.693   3.625  17.845  0.00  0.00    +0.000 A 
ATOM      5  C   UNL     1       3.548   4.725  17.997  0.00  0.00    +0.000 A 
ATOM      6  C   UNL     1       3.241   5.598  19.043  0.00  0.00    +0.000 A 
ENDROOT
BRANCH   5   7
ATOM      7  C   UNL     1       4.711   4.931  17.136  0.00  0.00    +0.000 A 
ATOM      8  C   UNL     1       5.791   5.721  17.567  0.00  0.00    +0.000 A 
ATOM      9  C   UNL     1       6.901   5.973  16.762  0.00  0.00    +0.000 A 
ATOM     10  C   UNL     1       6.901   5.400  15.490  0.00  0.00    +0.000 A 
ATOM     11  N   UNL     1       7.802   5.462  14.463  0.00  0.00    +0.000 N 
ATOM     12  N   UNL     1       7.445   4.764  13.371  0.00  0.00    +0.000 NA
ATOM     13  C   UNL     1       6.262   4.230  13.705  0.00  0.00    +0.000 A 
ATOM     14  C   UNL     1       5.519   3.385  12.743  0.00  0.00    +0.000 C 
ATOM     15  C   UNL     1       5.868   4.598  15.020  0.00  0.00    +0.000 A 
ATOM     16  C   UNL     1       4.766   4.354  15.849  0.00  0.00    +0.000 A 
ATOM     17  H   UNL     1       8.679   5.970  14.441  0.00  0.00    +0.000 HD
ENDBRANCH   5   7
BRANCH   1  18
ATOM     18  O   UNL     1       1.785   6.163  20.912  0.00  0.00    +0.000 OA
BRANCH  18  19
ATOM     19  C   UNL     1       1.641   7.561  20.605  0.00  0.00    +0.000 C 
BRANCH  19  20
ATOM     20  C   UNL     1       0.999   8.245  21.825  0.00  0.00    +0.000 C 
BRANCH  20  21
ATOM     21  N   UNL     1       1.897   9.266  22.397  0.00  0.00    +0.000 NA
ATOM     22  H   UNL     1       2.395   8.897  23.205  0.00  0.00    +0.000 HD
ATOM     23  H   UNL     1       1.347  10.059  22.731  0.00  0.00    +0.000 HD
ENDBRANCH  20  21
BRANCH  20  24
ATOM     24  C   UNL     1      -0.374   8.863  21.474  0.00  0.00    +0.000 C 
BRANCH  24  32
ATOM     25  C   UNL     1       0.029  10.319  18.900  0.00  0.00    +0.000 C 
ATOM     26  C   UNL     1      -0.267  11.060  20.178  0.00  0.00    +0.000 A 
ATOM     27  C   UNL     1      -0.372  12.466  20.133  0.00  0.00    +0.000 A 
ATOM     28  C   UNL     1      -0.654  13.197  21.286  0.00  0.00    +0.000 A 
ATOM     29  C   UNL     1      -0.827  12.532  22.485  0.00  0.00    +0.000 A 
ATOM     30  F   UNL     1      -1.107  13.229  23.596  0.00  0.00    +0.000 F 
ATOM     31  C   UNL     1      -0.726  11.147  22.556  0.00  0.00    +0.000 A 
ATOM     32  C   UNL     1      -0.437  10.383  21.408  0.00  0.00    +0.000 A 
ENDBRANCH  24  32
ENDBRANCH  20  24
ENDBRANCH  19  20
ENDBRANCH  18  19
ENDBRANCH   1  18
TORSDOF 7
ENDMDL
MODEL 9
REMARK VINA RESULT:      -8.2      3.549      9.443
REMARK  Name = 
REMARK  9 active torsions:
REMARK  status: ('A' for Active; 'I' for Inactive)
REMARK    1  A    between atoms: C_1  and  C_2
REMARK    2  A    between atoms: C_8  and  C_9
REMARK    3  A    between atoms: C_9  and  C_10
REMARK    4  A    between atoms: C_10  and  N_11
REMARK    5  A    between atoms: C_10  and  C_12
REMARK    6  A    between atoms: C_12  and  O_13
REMARK    7  A    between atoms: O_13  and  C_14
REMARK    8  A    between atoms: C_18  and  C_19
REMARK    9  A    between atoms: C_25  and  C_26
REMARK                            x       y       z     vdW  Elec       q    Type
REMARK                         _______ _______ _______ _____ _____    ______ ____
ROOT
ATOM      1  C   UNL     1       2.937   6.540  18.615  0.00  0.00    +0.000 A 
ATOM      2  C   UNL     1       2.554   5.395  19.315  0.00  0.00    +0.000 A 
ATOM      3  N   UNL     1       2.998   4.153  19.015  0.00  0.00    +0.000 NA
ATOM      4  C   UNL     1       3.854   4.052  17.980  0.00  0.00    +0.000 A 
ATOM      5  C   UNL     1       4.309   5.129  17.206  0.00  0.00    +0.000 A 
ATOM      6  C   UNL     1       3.822   6.388  17.562  0.00  0.00    +0.000 A 
ENDROOT
BRANCH   5   7
ATOM      7  C   UNL     1       5.260   4.951  16.110  0.00  0.00    +0.000 A 
ATOM      8  C   UNL     1       6.590   5.390  16.237  0.00  0.00    +0.000 A 
ATOM      9  C   UNL     1       7.517   5.274  15.203  0.00  0.00    +0.000 A 
ATOM     10  C   UNL     1       7.070   4.694  14.017  0.00  0.00    +0.000 A 
ATOM     11  N   UNL     1       7.699   4.454  12.826  0.00  0.00    +0.000 N 
ATOM     12  N   UNL     1       6.922   3.867  11.899  0.00  0.00    +0.000 NA
ATOM     13  C   UNL     1       5.741   3.724  12.514  0.00  0.00    +0.000 A 
ATOM     14  C   UNL     1       4.590   3.117  11.805  0.00  0.00    +0.000 C 
ATOM     15  C   UNL     1       5.772   4.228  13.842  0.00  0.00    +0.000 A 
ATOM     16  C   UNL     1       4.859   4.351  14.897  0.00  0.00    +0.000 A 
ATOM     17  H   UNL     1       8.657   4.673  12.579  0.00  0.00    +0.000 HD
ENDBRANCH   5   7
BRANCH   1  18
ATOM     18  O   UNL     1       2.428   7.728  19.044  0.00  0.00    +0.000 OA
BRANCH  18  19
ATOM     19  C   UNL     1       1.908   8.577  18.005  0.00  0.00    +0.000 C 
BRANCH  19  20
ATOM     20  C   UNL     1       1.505   9.915  18.651  0.00  0.00    +0.000 C 
BRANCH  20  21
ATOM     21  N   UNL     1       1.880  11.055  17.793  0.00  0.00    +0.000 NA
ATOM     22  H   UNL     1       1.161  11.775  17.816  0.00  0.00    +0.000 HD
ATOM     23  H   UNL     1       1.952  10.745  16.823  0.00  0.00    +0.000 HD
ENDBRANCH  20  21
BRANCH  20  24
ATOM     24  C   UNL     1      -0.005   9.956  18.981  0.00  0.00    +0.000 C 
BRANCH  24  32
ATOM     25  C   UNL     1      -1.578  12.458  19.395  0.00  0.00    +0.000 C 
ATOM     26  C   UNL     1      -1.145  11.606  20.560  0.00  0.00    +0.000 A 
ATOM     27  C   UNL     1      -1.518  12.003  21.861  0.00  0.00    +0.000 A 
ATOM     28  C   UNL     1      -1.152  11.244  22.971  0.00  0.00    +0.000 A 
ATOM     29  C   UNL     1      -0.411  10.091  22.790  0.00  0.00    +0.000 A 
ATOM     30  F   UNL     1      -0.063   9.351  23.852  0.00  0.00    +0.000 F 
ATOM     31  C   UNL     1      -0.029   9.680  21.518  0.00  0.00    +0.000 A 
ATOM     32  C   UNL     1      -0.381  10.431  20.378  0.00  0.00    +0.000 A 
ENDBRANCH  24  32
ENDBRANCH  20  24
ENDBRANCH  19  20
ENDBRANCH  18  19
ENDBRANCH   1  18
TORSDOF 7
ENDMDL
