MODEL 1
REMARK VINA RESULT:      -7.0      0.000      0.000
REMARK  Name = 
REMARK  10 active torsions:
REMARK  status: ('A' for Active; 'I' for Inactive)
REMARK    1  A    between atoms: C_2  and  O_3
REMARK    2  A    between atoms: C_2  and  C_14
REMARK    3  A    between atoms: O_3  and  C_4
REMARK    4  A    between atoms: C_4  and  C_5
REMARK    5  A    between atoms: C_5  and  C_6
REMARK    6  A    between atoms: C_6  and  C_7
REMARK    7  A    between atoms: C_7  and  C_8
REMARK    8  A    between atoms: C_16  and  O_17
REMARK    9  A    between atoms: C_18  and  O_19
REMARK   10  A    between atoms: C_20  and  O_21
REMARK                            x       y       z     vdW  Elec       q    Type
REMARK                         _______ _______ _______ _____ _____    ______ ____
ROOT
ATOM      1  O   UNL     1       2.799   2.218  17.071  0.00  0.00    +0.000 OA
ATOM      2  C   UNL     1       3.356   2.703  18.042  0.00  0.00    +0.000 C 
ENDROOT
BRANCH   2   3
ATOM      3  C   UNL     1       4.388   3.773  17.937  0.00  0.00    +0.000 A 
ATOM      4  C   UNL     1       4.508   4.443  16.705  0.00  0.00    +0.000 A 
ATOM      5  C   UNL     1       5.478   5.427  16.550  0.00  0.00    +0.000 A 
ATOM      6  C   UNL     1       6.307   5.764  17.613  0.00  0.00    +0.000 A 
ATOM      7  C   UNL     1       6.182   5.111  18.831  0.00  0.00    +0.000 A 
ATOM      8  C   UNL     1       5.232   4.111  19.006  0.00  0.00    +0.000 A 
BRANCH   5   9
ATOM      9  O   UNL     1       5.665   6.085  15.366  0.00  0.00    +0.000 OA
ATOM     10  H   UNL     1       6.294   5.573  14.827  0.00  0.00    +0.000 HD
ENDBRANCH   5   9
BRANCH   6  11
ATOM     11  O   UNL     1       7.260   6.735  17.473  0.00  0.00    +0.000 OA
ATOM     12  H   UNL     1       7.075   7.365  18.201  0.00  0.00    +0.000 HD
ENDBRANCH   6  11
BRANCH   7  13
ATOM     13  O   UNL     1       7.005   5.442  19.869  0.00  0.00    +0.000 OA
ATOM     14  H   UNL     1       6.524   6.141  20.355  0.00  0.00    +0.000 HD
ENDBRANCH   7  13
ENDBRANCH   2   3
BRANCH   2  15
ATOM     15  O   UNL     1       3.153   2.352  19.336  0.00  0.00    +0.000 OA
BRANCH  15  16
ATOM     16  C   UNL     1       1.787   2.347  19.782  0.00  0.00    +0.000 C 
BRANCH  16  17
ATOM     17  C   UNL     1       1.079   3.659  19.438  0.00  0.00    +0.000 C 
BRANCH  17  18
ATOM     18  C   UNL     1       1.158   4.662  20.591  0.00  0.00    +0.000 C 
BRANCH  18  19
ATOM     19  C   UNL     1       2.440   5.497  20.546  0.00  0.00    +0.000 C 
BRANCH  19  20
ATOM     20  C   UNL     1       2.196   6.814  19.850  0.00  0.00    +0.000 A 
ATOM     21  C   UNL     1       1.543   7.860  20.516  0.00  0.00    +0.000 A 
ATOM     22  C   UNL     1       1.270   9.059  19.856  0.00  0.00    +0.000 A 
ATOM     23  C   UNL     1       1.642   9.222  18.523  0.00  0.00    +0.000 A 
ATOM     24  C   UNL     1       2.289   8.188  17.850  0.00  0.00    +0.000 A 
ATOM     25  C   UNL     1       2.564   6.988  18.509  0.00  0.00    +0.000 A 
ENDBRANCH  19  20
ENDBRANCH  18  19
ENDBRANCH  17  18
ENDBRANCH  16  17
ENDBRANCH  15  16
ENDBRANCH   2  15
TORSDOF 10
ENDMDL
MODEL 2
REMARK VINA RESULT:      -6.8      0.582      1.844
REMARK  Name = 
REMARK  10 active torsions:
REMARK  status: ('A' for Active; 'I' for Inactive)
REMARK    1  A    between atoms: C_2  and  O_3
REMARK    2  A    between atoms: C_2  and  C_14
REMARK    3  A    between atoms: O_3  and  C_4
REMARK    4  A    between atoms: C_4  and  C_5
REMARK    5  A    between atoms: C_5  and  C_6
REMARK    6  A    between atoms: C_6  and  C_7
REMARK    7  A    between atoms: C_7  and  C_8
REMARK    8  A    between atoms: C_16  and  O_17
REMARK    9  A    between atoms: C_18  and  O_19
REMARK   10  A    between atoms: C_20  and  O_21
REMARK                            x       y       z     vdW  Elec       q    Type
REMARK                         _______ _______ _______ _____ _____    ______ ____
ROOT
ATOM      1  O   UNL     1       2.394   2.955  16.546  0.00  0.00    +0.000 OA
ATOM      2  C   UNL     1       3.081   3.197  17.525  0.00  0.00    +0.000 C 
ENDROOT
BRANCH   2   3
ATOM      3  C   UNL     1       4.333   4.002  17.459  0.00  0.00    +0.000 A 
ATOM      4  C   UNL     1       5.062   4.174  18.651  0.00  0.00    +0.000 A 
ATOM      5  C   UNL     1       6.220   4.944  18.643  0.00  0.00    +0.000 A 
ATOM      6  C   UNL     1       6.669   5.519  17.461  0.00  0.00    +0.000 A 
ATOM      7  C   UNL     1       5.956   5.342  16.283  0.00  0.00    +0.000 A 
ATOM      8  C   UNL     1       4.786   4.592  16.268  0.00  0.00    +0.000 A 
BRANCH   5   9
ATOM      9  O   UNL     1       6.947   5.175  19.778  0.00  0.00    +0.000 OA
ATOM     10  H   UNL     1       6.775   6.088  20.071  0.00  0.00    +0.000 HD
ENDBRANCH   5   9
BRANCH   6  11
ATOM     11  O   UNL     1       7.810   6.273  17.442  0.00  0.00    +0.000 OA
ATOM     12  H   UNL     1       7.853   6.626  16.529  0.00  0.00    +0.000 HD
ENDBRANCH   6  11
BRANCH   7  13
ATOM     13  O   UNL     1       6.399   5.916  15.126  0.00  0.00    +0.000 OA
ATOM     14  H   UNL     1       6.918   6.692  15.416  0.00  0.00    +0.000 HD
ENDBRANCH   7  13
ENDBRANCH   2   3
BRANCH   2  15
ATOM     15  O   UNL     1       2.842   2.777  18.790  0.00  0.00    +0.000 OA
BRANCH  15  16
ATOM     16  C   UNL     1       1.478   2.859  19.237  0.00  0.00    +0.000 C 
BRANCH  16  17
ATOM     17  C   UNL     1       1.391   3.353  20.682  0.00  0.00    +0.000 C 
BRANCH  17  18
ATOM     18  C   UNL     1       1.270   4.877  20.752  0.00  0.00    +0.000 C 
BRANCH  18  19
ATOM     19  C   UNL     1       2.575   5.580  20.371  0.00  0.00    +0.000 C 
BRANCH  19  20
ATOM     20  C   UNL     1       2.294   6.894  19.683  0.00  0.00    +0.000 A 
ATOM     21  C   UNL     1       1.589   7.907  20.347  0.00  0.00    +0.000 A 
ATOM     22  C   UNL     1       1.283   9.102  19.692  0.00  0.00    +0.000 A 
ATOM     23  C   UNL     1       1.673   9.292  18.369  0.00  0.00    +0.000 A 
ATOM     24  C   UNL     1       2.372   8.291  17.698  0.00  0.00    +0.000 A 
ATOM     25  C   UNL     1       2.681   7.095  18.352  0.00  0.00    +0.000 A 
ENDBRANCH  19  20
ENDBRANCH  18  19
ENDBRANCH  17  18
ENDBRANCH  16  17
ENDBRANCH  15  16
ENDBRANCH   2  15
TORSDOF 10
ENDMDL
MODEL 3
REMARK VINA RESULT:      -6.8      1.550      2.634
REMARK  Name = 
REMARK  10 active torsions:
REMARK  status: ('A' for Active; 'I' for Inactive)
REMARK    1  A    between atoms: C_2  and  O_3
REMARK    2  A    between atoms: C_2  and  C_14
REMARK    3  A    between atoms: O_3  and  C_4
REMARK    4  A    between atoms: C_4  and  C_5
REMARK    5  A    between atoms: C_5  and  C_6
REMARK    6  A    between atoms: C_6  and  C_7
REMARK    7  A    between atoms: C_7  and  C_8
REMARK    8  A    between atoms: C_16  and  O_17
REMARK    9  A    between atoms: C_18  and  O_19
REMARK   10  A    between atoms: C_20  and  O_21
REMARK                            x       y       z     vdW  Elec       q    Type
REMARK                         _______ _______ _______ _____ _____    ______ ____
ROOT
ATOM      1  O   UNL     1       4.745   4.924  20.105  0.00  0.00    +0.000 OA
ATOM      2  C   UNL     1       5.169   4.136  19.277  0.00  0.00    +0.000 C 
ENDROOT
BRANCH   2   3
ATOM      3  C   UNL     1       5.808   4.564  18.001  0.00  0.00    +0.000 A 
ATOM      4  C   UNL     1       5.631   3.739  16.874  0.00  0.00    +0.000 A 
ATOM      5  C   UNL     1       6.235   4.082  15.669  0.00  0.00    +0.000 A 
ATOM      6  C   UNL     1       6.988   5.247  15.572  0.00  0.00    +0.000 A 
ATOM      7  C   UNL     1       7.153   6.066  16.680  0.00  0.00    +0.000 A 
ATOM      8  C   UNL     1       6.575   5.735  17.900  0.00  0.00    +0.000 A 
BRANCH   5   9
ATOM      9  O   UNL     1       6.129   3.300  14.553  0.00  0.00    +0.000 OA
ATOM     10  H   UNL     1       6.997   2.895  14.378  0.00  0.00    +0.000 HD
ENDBRANCH   5   9
BRANCH   6  11
ATOM     11  O   UNL     1       7.580   5.597  14.390  0.00  0.00    +0.000 OA
ATOM     12  H   UNL     1       7.558   6.576  14.388  0.00  0.00    +0.000 HD
ENDBRANCH   6  11
BRANCH   7  13
ATOM     13  O   UNL     1       7.900   7.205  16.579  0.00  0.00    +0.000 OA
ATOM     14  H   UNL     1       7.258   7.934  16.688  0.00  0.00    +0.000 HD
ENDBRANCH   7  13
ENDBRANCH   2   3
BRANCH   2  15
ATOM     15  O   UNL     1       5.120   2.784  19.364  0.00  0.00    +0.000 OA
BRANCH  15  16
ATOM     16  C   UNL     1       3.855   2.221  19.749  0.00  0.00    +0.000 C 
BRANCH  16  17
ATOM     17  C   UNL     1       3.013   1.847  18.528  0.00  0.00    +0.000 C 
BRANCH  17  18
ATOM     18  C   UNL     1       1.666   2.572  18.528  0.00  0.00    +0.000 C 
BRANCH  18  19
ATOM     19  C   UNL     1       1.679   3.820  17.642  0.00  0.00    +0.000 C 
BRANCH  19  20
ATOM     20  C   UNL     1       1.866   5.065  18.476  0.00  0.00    +0.000 A 
ATOM     21  C   UNL     1       1.463   5.089  19.817  0.00  0.00    +0.000 A 
ATOM     22  C   UNL     1       1.587   6.256  20.573  0.00  0.00    +0.000 A 
ATOM     23  C   UNL     1       2.110   7.410  19.994  0.00  0.00    +0.000 A 
ATOM     24  C   UNL     1       2.511   7.399  18.660  0.00  0.00    +0.000 A 
ATOM     25  C   UNL     1       2.389   6.232  17.903  0.00  0.00    +0.000 A 
ENDBRANCH  19  20
ENDBRANCH  18  19
ENDBRANCH  17  18
ENDBRANCH  16  17
ENDBRANCH  15  16
ENDBRANCH   2  15
TORSDOF 10
ENDMDL
MODEL 4
REMARK VINA RESULT:      -6.7      1.518      2.585
REMARK  Name = 
REMARK  10 active torsions:
REMARK  status: ('A' for Active; 'I' for Inactive)
REMARK    1  A    between atoms: C_2  and  O_3
REMARK    2  A    between atoms: C_2  and  C_14
REMARK    3  A    between atoms: O_3  and  C_4
REMARK    4  A    between atoms: C_4  and  C_5
REMARK    5  A    between atoms: C_5  and  C_6
REMARK    6  A    between atoms: C_6  and  C_7
REMARK    7  A    between atoms: C_7  and  C_8
REMARK    8  A    between atoms: C_16  and  O_17
REMARK    9  A    between atoms: C_18  and  O_19
REMARK   10  A    between atoms: C_20  and  O_21
REMARK                            x       y       z     vdW  Elec       q    Type
REMARK                         _______ _______ _______ _____ _____    ______ ____
ROOT
ATOM      1  O   UNL     1       4.974   4.835  20.101  0.00  0.00    +0.000 OA
ATOM      2  C   UNL     1       5.044   4.132  19.106  0.00  0.00    +0.000 C 
ENDROOT
BRANCH   2   3
ATOM      3  C   UNL     1       5.739   4.557  17.859  0.00  0.00    +0.000 A 
ATOM      4  C   UNL     1       5.581   3.749  16.717  0.00  0.00    +0.000 A 
ATOM      5  C   UNL     1       6.238   4.090  15.539  0.00  0.00    +0.000 A 
ATOM      6  C   UNL     1       7.023   5.236  15.483  0.00  0.00    +0.000 A 
ATOM      7  C   UNL     1       7.170   6.038  16.606  0.00  0.00    +0.000 A 
ATOM      8  C   UNL     1       6.539   5.709  17.800  0.00  0.00    +0.000 A 
BRANCH   5   9
ATOM      9  O   UNL     1       6.151   3.323  14.410  0.00  0.00    +0.000 OA
ATOM     10  H   UNL     1       7.043   2.998  14.192  0.00  0.00    +0.000 HD
ENDBRANCH   5   9
BRANCH   6  11
ATOM     11  O   UNL     1       7.666   5.583  14.327  0.00  0.00    +0.000 OA
ATOM     12  H   UNL     1       7.601   6.560  14.296  0.00  0.00    +0.000 HD
ENDBRANCH   6  11
BRANCH   7  13
ATOM     13  O   UNL     1       7.949   7.158  16.545  0.00  0.00    +0.000 OA
ATOM     14  H   UNL     1       7.737   7.652  17.362  0.00  0.00    +0.000 HD
ENDBRANCH   7  13
ENDBRANCH   2   3
BRANCH   2  15
ATOM     15  O   UNL     1       4.506   2.896  18.964  0.00  0.00    +0.000 OA
BRANCH  15  16
ATOM     16  C   UNL     1       4.351   2.131  20.171  0.00  0.00    +0.000 C 
BRANCH  16  17
ATOM     17  C   UNL     1       3.083   2.529  20.928  0.00  0.00    +0.000 C 
BRANCH  17  18
ATOM     18  C   UNL     1       1.824   2.268  20.098  0.00  0.00    +0.000 C 
BRANCH  18  19
ATOM     19  C   UNL     1       0.835   3.434  20.162  0.00  0.00    +0.000 C 
BRANCH  19  20
ATOM     20  C   UNL     1       1.468   4.702  19.645  0.00  0.00    +0.000 A 
ATOM     21  C   UNL     1       1.697   5.785  20.506  0.00  0.00    +0.000 A 
ATOM     22  C   UNL     1       2.235   6.977  20.017  0.00  0.00    +0.000 A 
ATOM     23  C   UNL     1       2.544   7.100  18.664  0.00  0.00    +0.000 A 
ATOM     24  C   UNL     1       2.318   6.031  17.798  0.00  0.00    +0.000 A 
ATOM     25  C   UNL     1       1.781   4.837  18.286  0.00  0.00    +0.000 A 
ENDBRANCH  19  20
ENDBRANCH  18  19
ENDBRANCH  17  18
ENDBRANCH  16  17
ENDBRANCH  15  16
ENDBRANCH   2  15
TORSDOF 10
ENDMDL
MODEL 5
REMARK VINA RESULT:      -6.6      0.664      1.255
REMARK  Name = 
REMARK  10 active torsions:
REMARK  status: ('A' for Active; 'I' for Inactive)
REMARK    1  A    between atoms: C_2  and  O_3
REMARK    2  A    between atoms: C_2  and  C_14
REMARK    3  A    between atoms: O_3  and  C_4
REMARK    4  A    between atoms: C_4  and  C_5
REMARK    5  A    between atoms: C_5  and  C_6
REMARK    6  A    between atoms: C_6  and  C_7
REMARK    7  A    between atoms: C_7  and  C_8
REMARK    8  A    between atoms: C_16  and  O_17
REMARK    9  A    between atoms: C_18  and  O_19
REMARK   10  A    between atoms: C_20  and  O_21
REMARK                            x       y       z     vdW  Elec       q    Type
REMARK                         _______ _______ _______ _____ _____    ______ ____
ROOT
ATOM      1  O   UNL     1       2.252   3.089  17.051  0.00  0.00    +0.000 OA
ATOM      2  C   UNL     1       3.021   3.411  17.943  0.00  0.00    +0.000 C 
ENDROOT
BRANCH   2   3
ATOM      3  C   UNL     1       4.244   4.227  17.705  0.00  0.00    +0.000 A 
ATOM      4  C   UNL     1       4.383   4.842  16.446  0.00  0.00    +0.000 A 
ATOM      5  C   UNL     1       5.523   5.588  16.168  0.00  0.00    +0.000 A 
ATOM      6  C   UNL     1       6.508   5.745  17.135  0.00  0.00    +0.000 A 
ATOM      7  C   UNL     1       6.367   5.148  18.380  0.00  0.00    +0.000 A 
ATOM      8  C   UNL     1       5.245   4.383  18.676  0.00  0.00    +0.000 A 
BRANCH   5   9
ATOM      9  O   UNL     1       5.729   6.176  14.951  0.00  0.00    +0.000 OA
ATOM     10  H   UNL     1       6.594   6.622  14.968  0.00  0.00    +0.000 HD
ENDBRANCH   5   9
BRANCH   6  11
ATOM     11  O   UNL     1       7.630   6.482  16.874  0.00  0.00    +0.000 OA
ATOM     12  H   UNL     1       7.626   7.183  17.558  0.00  0.00    +0.000 HD
ENDBRANCH   6  11
BRANCH   7  13
ATOM     13  O   UNL     1       7.342   5.300  19.324  0.00  0.00    +0.000 OA
ATOM     14  H   UNL     1       8.079   5.736  18.851  0.00  0.00    +0.000 HD
ENDBRANCH   7  13
ENDBRANCH   2   3
BRANCH   2  15
ATOM     15  O   UNL     1       2.908   3.077  19.252  0.00  0.00    +0.000 OA
BRANCH  15  16
ATOM     16  C   UNL     1       1.570   2.890  19.743  0.00  0.00    +0.000 C 
BRANCH  16  17
ATOM     17  C   UNL     1       1.043   4.152  20.429  0.00  0.00    +0.000 C 
BRANCH  17  18
ATOM     18  C   UNL     1       2.158   5.172  20.668  0.00  0.00    +0.000 C 
BRANCH  18  19
ATOM     19  C   UNL     1       1.612   6.548  21.060  0.00  0.00    +0.000 C 
BRANCH  19  20
ATOM     20  C   UNL     1       1.737   7.519  19.911  0.00  0.00    +0.000 A 
ATOM     21  C   UNL     1       2.523   7.202  18.795  0.00  0.00    +0.000 A 
ATOM     22  C   UNL     1       2.682   8.122  17.757  0.00  0.00    +0.000 A 
ATOM     23  C   UNL     1       2.061   9.367  17.827  0.00  0.00    +0.000 A 
ATOM     24  C   UNL     1       1.279   9.694  18.933  0.00  0.00    +0.000 A 
ATOM     25  C   UNL     1       1.118   8.775  19.972  0.00  0.00    +0.000 A 
ENDBRANCH  19  20
ENDBRANCH  18  19
ENDBRANCH  17  18
ENDBRANCH  16  17
ENDBRANCH  15  16
ENDBRANCH   2  15
TORSDOF 10
ENDMDL
MODEL 6
REMARK VINA RESULT:      -6.6      1.239      1.743
REMARK  Name = 
REMARK  10 active torsions:
REMARK  status: ('A' for Active; 'I' for Inactive)
REMARK    1  A    between atoms: C_2  and  O_3
REMARK    2  A    between atoms: C_2  and  C_14
REMARK    3  A    between atoms: O_3  and  C_4
REMARK    4  A    between atoms: C_4  and  C_5
REMARK    5  A    between atoms: C_5  and  C_6
REMARK    6  A    between atoms: C_6  and  C_7
REMARK    7  A    between atoms: C_7  and  C_8
REMARK    8  A    between atoms: C_16  and  O_17
REMARK    9  A    between atoms: C_18  and  O_19
REMARK   10  A    between atoms: C_20  and  O_21
REMARK                            x       y       z     vdW  Elec       q    Type
REMARK                         _______ _______ _______ _____ _____    ______ ____
ROOT
ATOM      1  O   UNL     1       3.851   2.442  17.892  0.00  0.00    +0.000 OA
ATOM      2  C   UNL     1       4.635   3.040  18.610  0.00  0.00    +0.000 C 
ENDROOT
BRANCH   2   3
ATOM      3  C   UNL     1       5.479   4.169  18.127  0.00  0.00    +0.000 A 
ATOM      4  C   UNL     1       5.325   4.572  16.786  0.00  0.00    +0.000 A 
ATOM      5  C   UNL     1       6.114   5.600  16.283  0.00  0.00    +0.000 A 
ATOM      6  C   UNL     1       7.032   6.242  17.105  0.00  0.00    +0.000 A 
ATOM      7  C   UNL     1       7.177   5.853  18.429  0.00  0.00    +0.000 A 
ATOM      8  C   UNL     1       6.413   4.816  18.951  0.00  0.00    +0.000 A 
BRANCH   5   9
ATOM      9  O   UNL     1       6.034   6.007  14.980  0.00  0.00    +0.000 OA
ATOM     10  H   UNL     1       6.134   5.225  14.408  0.00  0.00    +0.000 HD
ENDBRANCH   5   9
BRANCH   6  11
ATOM     11  O   UNL     1       7.808   7.260  16.621  0.00  0.00    +0.000 OA
ATOM     12  H   UNL     1       8.446   6.816  16.025  0.00  0.00    +0.000 HD
ENDBRANCH   6  11
BRANCH   7  13
ATOM     13  O   UNL     1       8.086   6.484  19.229  0.00  0.00    +0.000 OA
ATOM     14  H   UNL     1       8.933   6.416  18.745  0.00  0.00    +0.000 HD
ENDBRANCH   7  13
ENDBRANCH   2   3
BRANCH   2  15
ATOM     15  O   UNL     1       4.877   2.779  19.917  0.00  0.00    +0.000 OA
BRANCH  15  16
ATOM     16  C   UNL     1       3.823   2.117  20.636  0.00  0.00    +0.000 C 
BRANCH  16  17
ATOM     17  C   UNL     1       2.905   3.121  21.336  0.00  0.00    +0.000 C 
BRANCH  17  18
ATOM     18  C   UNL     1       1.430   2.816  21.072  0.00  0.00    +0.000 C 
BRANCH  18  19
ATOM     19  C   UNL     1       0.941   3.413  19.750  0.00  0.00    +0.000 C 
BRANCH  19  20
ATOM     20  C   UNL     1       1.501   4.801  19.552  0.00  0.00    +0.000 A 
ATOM     21  C   UNL     1       1.507   5.723  20.607  0.00  0.00    +0.000 A 
ATOM     22  C   UNL     1       1.976   7.022  20.409  0.00  0.00    +0.000 A 
ATOM     23  C   UNL     1       2.439   7.414  19.154  0.00  0.00    +0.000 A 
ATOM     24  C   UNL     1       2.435   6.507  18.097  0.00  0.00    +0.000 A 
ATOM     25  C   UNL     1       1.967   5.205  18.293  0.00  0.00    +0.000 A 
ENDBRANCH  19  20
ENDBRANCH  18  19
ENDBRANCH  17  18
ENDBRANCH  16  17
ENDBRANCH  15  16
ENDBRANCH   2  15
TORSDOF 10
ENDMDL
MODEL 7
REMARK VINA RESULT:      -6.6      4.354      6.840
REMARK  Name = 
REMARK  10 active torsions:
REMARK  status: ('A' for Active; 'I' for Inactive)
REMARK    1  A    between atoms: C_2  and  O_3
REMARK    2  A    between atoms: C_2  and  C_14
REMARK    3  A    between atoms: O_3  and  C_4
REMARK    4  A    between atoms: C_4  and  C_5
REMARK    5  A    between atoms: C_5  and  C_6
REMARK    6  A    between atoms: C_6  and  C_7
REMARK    7  A    between atoms: C_7  and  C_8
REMARK    8  A    between atoms: C_16  and  O_17
REMARK    9  A    between atoms: C_18  and  O_19
REMARK   10  A    between atoms: C_20  and  O_21
REMARK                            x       y       z     vdW  Elec       q    Type
REMARK                         _______ _______ _______ _____ _____    ______ ____
ROOT
ATOM      1  O   UNL     1       4.938   6.589  16.348  0.00  0.00    +0.000 OA
ATOM      2  C   UNL     1       5.147   6.063  17.429  0.00  0.00    +0.000 C 
ENDROOT
BRANCH   2   3
ATOM      3  C   UNL     1       4.420   4.850  17.896  0.00  0.00    +0.000 A 
ATOM      4  C   UNL     1       3.072   4.710  17.515  0.00  0.00    +0.000 A 
ATOM      5  C   UNL     1       2.345   3.609  17.954  0.00  0.00    +0.000 A 
ATOM      6  C   UNL     1       2.952   2.640  18.744  0.00  0.00    +0.000 A 
ATOM      7  C   UNL     1       4.284   2.772  19.112  0.00  0.00    +0.000 A 
ATOM      8  C   UNL     1       5.027   3.872  18.700  0.00  0.00    +0.000 A 
BRANCH   5   9
ATOM      9  O   UNL     1       1.023   3.441  17.646  0.00  0.00    +0.000 OA
ATOM     10  H   UNL     1       0.941   3.370  16.678  0.00  0.00    +0.000 HD
ENDBRANCH   5   9
BRANCH   6  11
ATOM     11  O   UNL     1       2.247   1.551  19.175  0.00  0.00    +0.000 OA
ATOM     12  H   UNL     1       1.675   1.314  18.415  0.00  0.00    +0.000 HD
ENDBRANCH   6  11
BRANCH   7  13
ATOM     13  O   UNL     1       4.872   1.820  19.894  0.00  0.00    +0.000 OA
ATOM     14  H   UNL     1       5.690   1.577  19.417  0.00  0.00    +0.000 HD
ENDBRANCH   7  13
ENDBRANCH   2   3
BRANCH   2  15
ATOM     15  O   UNL     1       6.033   6.487  18.364  0.00  0.00    +0.000 OA
BRANCH  15  16
ATOM     16  C   UNL     1       7.417   6.468  17.979  0.00  0.00    +0.000 C 
BRANCH  16  17
ATOM     17  C   UNL     1       7.844   7.796  17.352  0.00  0.00    +0.000 C 
BRANCH  17  18
ATOM     18  C   UNL     1       8.301   8.800  18.412  0.00  0.00    +0.000 C 
BRANCH  18  19
ATOM     19  C   UNL     1       8.525  10.197  17.830  0.00  0.00    +0.000 C 
BRANCH  19  20
ATOM     20  C   UNL     1       9.643  10.906  18.555  0.00  0.00    +0.000 A 
ATOM     21  C   UNL     1       9.616  11.034  19.950  0.00  0.00    +0.000 A 
ATOM     22  C   UNL     1      10.623  11.735  20.617  0.00  0.00    +0.000 A 
ATOM     23  C   UNL     1      11.663  12.317  19.895  0.00  0.00    +0.000 A 
ATOM     24  C   UNL     1      11.699  12.198  18.507  0.00  0.00    +0.000 A 
ATOM     25  C   UNL     1      10.693  11.496  17.839  0.00  0.00    +0.000 A 
ENDBRANCH  19  20
ENDBRANCH  18  19
ENDBRANCH  17  18
ENDBRANCH  16  17
ENDBRANCH  15  16
ENDBRANCH   2  15
TORSDOF 10
ENDMDL
MODEL 8
REMARK VINA RESULT:      -6.6      1.944      4.360
REMARK  Name = 
REMARK  10 active torsions:
REMARK  status: ('A' for Active; 'I' for Inactive)
REMARK    1  A    between atoms: C_2  and  O_3
REMARK    2  A    between atoms: C_2  and  C_14
REMARK    3  A    between atoms: O_3  and  C_4
REMARK    4  A    between atoms: C_4  and  C_5
REMARK    5  A    between atoms: C_5  and  C_6
REMARK    6  A    between atoms: C_6  and  C_7
REMARK    7  A    between atoms: C_7  and  C_8
REMARK    8  A    between atoms: C_16  and  O_17
REMARK    9  A    between atoms: C_18  and  O_19
REMARK   10  A    between atoms: C_20  and  O_21
REMARK                            x       y       z     vdW  Elec       q    Type
REMARK                         _______ _______ _______ _____ _____    ______ ____
ROOT
ATOM      1  O   UNL     1       3.386   8.007  16.864  0.00  0.00    +0.000 OA
ATOM      2  C   UNL     1       3.578   7.072  17.624  0.00  0.00    +0.000 C 
ENDROOT
BRANCH   2   3
ATOM      3  C   UNL     1       4.833   6.269  17.622  0.00  0.00    +0.000 A 
ATOM      4  C   UNL     1       5.459   6.035  18.861  0.00  0.00    +0.000 A 
ATOM      5  C   UNL     1       6.650   5.318  18.904  0.00  0.00    +0.000 A 
ATOM      6  C   UNL     1       7.204   4.813  17.733  0.00  0.00    +0.000 A 
ATOM      7  C   UNL     1       6.582   5.035  16.513  0.00  0.00    +0.000 A 
ATOM      8  C   UNL     1       5.401   5.764  16.441  0.00  0.00    +0.000 A 
BRANCH   5   9
ATOM      9  O   UNL     1       7.321   5.092  20.073  0.00  0.00    +0.000 OA
ATOM     10  H   UNL     1       6.846   5.547  20.792  0.00  0.00    +0.000 HD
ENDBRANCH   5   9
BRANCH   6  11
ATOM     11  O   UNL     1       8.371   4.101  17.766  0.00  0.00    +0.000 OA
ATOM     12  H   UNL     1       8.575   3.924  16.824  0.00  0.00    +0.000 HD
ENDBRANCH   6  11
BRANCH   7  13
ATOM     13  O   UNL     1       7.136   4.543  15.366  0.00  0.00    +0.000 OA
ATOM     14  H   UNL     1       7.860   3.960  15.670  0.00  0.00    +0.000 HD
ENDBRANCH   7  13
ENDBRANCH   2   3
BRANCH   2  15
ATOM     15  O   UNL     1       2.708   6.609  18.553  0.00  0.00    +0.000 OA
BRANCH  15  16
ATOM     16  C   UNL     1       2.268   7.559  19.538  0.00  0.00    +0.000 C 
BRANCH  16  17
ATOM     17  C   UNL     1       1.335   6.913  20.563  0.00  0.00    +0.000 C 
BRANCH  17  18
ATOM     18  C   UNL     1       1.862   5.553  21.028  0.00  0.00    +0.000 C 
BRANCH  18  19
ATOM     19  C   UNL     1       1.098   4.388  20.395  0.00  0.00    +0.000 C 
BRANCH  19  20
ATOM     20  C   UNL     1       2.023   3.530  19.567  0.00  0.00    +0.000 A 
ATOM     21  C   UNL     1       1.600   3.012  18.335  0.00  0.00    +0.000 A 
ATOM     22  C   UNL     1       2.436   2.176  17.594  0.00  0.00    +0.000 A 
ATOM     23  C   UNL     1       3.700   1.845  18.078  0.00  0.00    +0.000 A 
ATOM     24  C   UNL     1       4.130   2.352  19.303  0.00  0.00    +0.000 A 
ATOM     25  C   UNL     1       3.295   3.190  20.045  0.00  0.00    +0.000 A 
ENDBRANCH  19  20
ENDBRANCH  18  19
ENDBRANCH  17  18
ENDBRANCH  16  17
ENDBRANCH  15  16
ENDBRANCH   2  15
TORSDOF 10
ENDMDL
MODEL 9
REMARK VINA RESULT:      -6.6      4.269      6.942
REMARK  Name = 
REMARK  10 active torsions:
REMARK  status: ('A' for Active; 'I' for Inactive)
REMARK    1  A    between atoms: C_2  and  O_3
REMARK    2  A    between atoms: C_2  and  C_14
REMARK    3  A    between atoms: O_3  and  C_4
REMARK    4  A    between atoms: C_4  and  C_5
REMARK    5  A    between atoms: C_5  and  C_6
REMARK    6  A    between atoms: C_6  and  C_7
REMARK    7  A    between atoms: C_7  and  C_8
REMARK    8  A    between atoms: C_16  and  O_17
REMARK    9  A    between atoms: C_18  and  O_19
REMARK   10  A    between atoms: C_20  and  O_21
REMARK                            x       y       z     vdW  Elec       q    Type
REMARK                         _______ _______ _______ _____ _____    ______ ____
ROOT
ATOM      1  O   UNL     1       4.065   7.239  17.667  0.00  0.00    +0.000 OA
ATOM      2  C   UNL     1       4.589   6.139  17.600  0.00  0.00    +0.000 C 
ENDROOT
BRANCH   2   3
ATOM      3  C   UNL     1       3.879   4.878  17.951  0.00  0.00    +0.000 A 
ATOM      4  C   UNL     1       2.657   4.988  18.640  0.00  0.00    +0.000 A 
ATOM      5  C   UNL     1       1.975   3.836  19.017  0.00  0.00    +0.000 A 
ATOM      6  C   UNL     1       2.484   2.585  18.692  0.00  0.00    +0.000 A 
ATOM      7  C   UNL     1       3.684   2.476  18.004  0.00  0.00    +0.000 A 
ATOM      8  C   UNL     1       4.394   3.612  17.632  0.00  0.00    +0.000 A 
BRANCH   5   9
ATOM      9  O   UNL     1       0.803   3.882  19.720  0.00  0.00    +0.000 OA
ATOM     10  H   UNL     1       0.762   3.100  20.299  0.00  0.00    +0.000 HD
ENDBRANCH   5   9
BRANCH   6  11
ATOM     11  O   UNL     1       1.817   1.446  19.052  0.00  0.00    +0.000 OA
ATOM     12  H   UNL     1       1.256   1.721  19.807  0.00  0.00    +0.000 HD
ENDBRANCH   6  11
BRANCH   7  13
ATOM     13  O   UNL     1       4.183   1.243  17.694  0.00  0.00    +0.000 OA
ATOM     14  H   UNL     1       4.648   1.368  16.844  0.00  0.00    +0.000 HD
ENDBRANCH   7  13
ENDBRANCH   2   3
BRANCH   2  15
ATOM     15  O   UNL     1       5.867   5.888  17.223  0.00  0.00    +0.000 OA
BRANCH  15  16
ATOM     16  C   UNL     1       6.894   6.477  18.037  0.00  0.00    +0.000 C 
BRANCH  16  17
ATOM     17  C   UNL     1       7.570   7.651  17.325  0.00  0.00    +0.000 C 
BRANCH  17  18
ATOM     18  C   UNL     1       8.428   8.475  18.286  0.00  0.00    +0.000 C 
BRANCH  18  19
ATOM     19  C   UNL     1       8.284   9.980  18.046  0.00  0.00    +0.000 C 
BRANCH  19  20
ATOM     20  C   UNL     1       9.414  10.736  18.702  0.00  0.00    +0.000 A 
ATOM     21  C   UNL     1      10.542  11.113  17.961  0.00  0.00    +0.000 A 
ATOM     22  C   UNL     1      11.610  11.765  18.579  0.00  0.00    +0.000 A 
ATOM     23  C   UNL     1      11.563  12.043  19.943  0.00  0.00    +0.000 A 
ATOM     24  C   UNL     1      10.448  11.671  20.691  0.00  0.00    +0.000 A 
ATOM     25  C   UNL     1       9.378  11.019  20.074  0.00  0.00    +0.000 A 
ENDBRANCH  19  20
ENDBRANCH  18  19
ENDBRANCH  17  18
ENDBRANCH  16  17
ENDBRANCH  15  16
ENDBRANCH   2  15
TORSDOF 10
ENDMDL
