MODEL 1
REMARK VINA RESULT:      -7.8      0.000      0.000
REMARK  Name = 
REMARK  7 active torsions:
REMARK  status: ('A' for Active; 'I' for Inactive)
REMARK    1  A    between atoms: N_4  and  O_5
REMARK    2  A    between atoms: N_12  and  C_13
REMARK    3  A    between atoms: C_13  and  C_14
REMARK    4  A    between atoms: N_22  and  C_23
REMARK    5  A    between atoms: C_23  and  C_24
REMARK    6  A    between atoms: C_24  and  C_25
REMARK    7  A    between atoms: C_25  and  C_26
REMARK                            x       y       z     vdW  Elec       q    Type
REMARK                         _______ _______ _______ _____ _____    ______ ____
ROOT
ATOM      1  C   UNL     1       2.138   8.341  20.031  0.00  0.00    +0.000 C 
ENDROOT
BRANCH   1  12
ATOM      2  O   UNL     1       0.919   9.548  17.653  0.00  0.00    +0.000 OA
ATOM      3  C   UNL     1       0.507   9.718  18.774  0.00  0.00    +0.000 C 
ATOM      4  C   UNL     1      -0.457  10.843  19.203  0.00  0.00    +0.000 C 
ATOM      5  N   UNL     1      -0.992  11.636  18.329  0.00  0.00    +0.000 NA
ATOM      6  C   UNL     1      -0.531  10.775  20.662  0.00  0.00    +0.000 A 
ATOM      7  C   UNL     1      -1.135  11.602  21.587  0.00  0.00    +0.000 A 
ATOM      8  C   UNL     1      -0.949  11.263  22.913  0.00  0.00    +0.000 A 
ATOM      9  N   UNL     1      -0.243  10.177  23.331  0.00  0.00    +0.000 NA
ATOM     10  C   UNL     1       0.346   9.400  22.389  0.00  0.00    +0.000 A 
ATOM     11  C   UNL     1       0.251   9.682  21.047  0.00  0.00    +0.000 A 
ATOM     12  N   UNL     1       0.873   9.061  19.945  0.00  0.00    +0.000 N 
BRANCH   5  13
ATOM     13  O   UNL     1      -1.816  12.605  18.908  0.00  0.00    +0.000 OA
ATOM     14  H   UNL     1      -1.670  12.457  19.862  0.00  0.00    +0.000 HD
ENDBRANCH   5  13
ENDBRANCH   1  12
BRANCH   1  15
ATOM     15  C   UNL     1       2.021   6.857  19.880  0.00  0.00    +0.000 A 
ATOM     16  N   UNL     1       1.629   6.012  20.821  0.00  0.00    +0.000 NA
ATOM     17  C   UNL     1       1.612   4.773  20.222  0.00  0.00    +0.000 A 
ATOM     18  C   UNL     1       1.389   3.496  20.747  0.00  0.00    +0.000 A 
ATOM     19  C   UNL     1       1.318   2.413  19.858  0.00  0.00    +0.000 A 
ATOM     20  C   UNL     1       1.380   2.614  18.475  0.00  0.00    +0.000 A 
ATOM     21  C   UNL     1       1.684   3.868  17.940  0.00  0.00    +0.000 A 
ATOM     22  C   UNL     1       1.891   4.897  18.870  0.00  0.00    +0.000 A 
ATOM     23  N   UNL     1       2.534   6.116  18.827  0.00  0.00    +0.000 N 
BRANCH  23  24
ATOM     24  C   UNL     1       3.839   6.275  18.195  0.00  0.00    +0.000 C 
BRANCH  24  25
ATOM     25  C   UNL     1       4.896   5.166  18.429  0.00  0.00    +0.000 C 
BRANCH  25  26
ATOM     26  C   UNL     1       6.196   5.478  19.194  0.00  0.00    +0.000 C 
BRANCH  26  27
ATOM     27  C   UNL     1       7.464   5.564  18.362  0.00  0.00    +0.000 C 
ATOM     28  F   UNL     1       8.265   6.541  18.868  0.00  0.00    +0.000 F 
ENDBRANCH  26  27
ENDBRANCH  25  26
ENDBRANCH  24  25
ENDBRANCH  23  24
ENDBRANCH   1  15
TORSDOF 7
ENDMDL
MODEL 2
REMARK VINA RESULT:      -7.8      1.275      1.392
REMARK  Name = 
REMARK  7 active torsions:
REMARK  status: ('A' for Active; 'I' for Inactive)
REMARK    1  A    between atoms: N_4  and  O_5
REMARK    2  A    between atoms: N_12  and  C_13
REMARK    3  A    between atoms: C_13  and  C_14
REMARK    4  A    between atoms: N_22  and  C_23
REMARK    5  A    between atoms: C_23  and  C_24
REMARK    6  A    between atoms: C_24  and  C_25
REMARK    7  A    between atoms: C_25  and  C_26
REMARK                            x       y       z     vdW  Elec       q    Type
REMARK                         _______ _______ _______ _____ _____    ______ ____
ROOT
ATOM      1  C   UNL     1       2.090   8.323  20.245  0.00  0.00    +0.000 C 
ENDROOT
BRANCH   1  12
ATOM      2  O   UNL     1       0.958   9.449  17.784  0.00  0.00    +0.000 OA
ATOM      3  C   UNL     1       0.516   9.669  18.885  0.00  0.00    +0.000 C 
ATOM      4  C   UNL     1      -0.446  10.821  19.239  0.00  0.00    +0.000 C 
ATOM      5  N   UNL     1      -0.945  11.585  18.319  0.00  0.00    +0.000 NA
ATOM      6  C   UNL     1      -0.565  10.811  20.697  0.00  0.00    +0.000 A 
ATOM      7  C   UNL     1      -1.186  11.683  21.569  0.00  0.00    +0.000 A 
ATOM      8  C   UNL     1      -1.045  11.394  22.913  0.00  0.00    +0.000 A 
ATOM      9  N   UNL     1      -0.366  10.318  23.395  0.00  0.00    +0.000 NA
ATOM     10  C   UNL     1       0.241   9.497  22.502  0.00  0.00    +0.000 A 
ATOM     11  C   UNL     1       0.190   9.726  21.149  0.00  0.00    +0.000 A 
ATOM     12  N   UNL     1       0.838   9.055  20.092  0.00  0.00    +0.000 N 
BRANCH   5  13
ATOM     13  O   UNL     1      -1.773  12.585  18.833  0.00  0.00    +0.000 OA
ATOM     14  H   UNL     1      -1.389  13.394  18.440  0.00  0.00    +0.000 HD
ENDBRANCH   5  13
ENDBRANCH   1  12
BRANCH   1  15
ATOM     15  C   UNL     1       1.983   6.850  20.013  0.00  0.00    +0.000 A 
ATOM     16  N   UNL     1       1.438   5.973  20.843  0.00  0.00    +0.000 NA
ATOM     17  C   UNL     1       1.504   4.761  20.196  0.00  0.00    +0.000 A 
ATOM     18  C   UNL     1       1.187   3.467  20.623  0.00  0.00    +0.000 A 
ATOM     19  C   UNL     1       1.246   2.423  19.687  0.00  0.00    +0.000 A 
ATOM     20  C   UNL     1       1.527   2.680  18.341  0.00  0.00    +0.000 A 
ATOM     21  C   UNL     1       1.925   3.950  17.916  0.00  0.00    +0.000 A 
ATOM     22  C   UNL     1       1.993   4.936  18.911  0.00  0.00    +0.000 A 
ATOM     23  N   UNL     1       2.648   6.144  19.022  0.00  0.00    +0.000 N 
BRANCH  23  24
ATOM     24  C   UNL     1       4.038   6.307  18.610  0.00  0.00    +0.000 C 
BRANCH  24  25
ATOM     25  C   UNL     1       4.311   6.951  17.227  0.00  0.00    +0.000 C 
BRANCH  25  26
ATOM     26  C   UNL     1       5.041   6.157  16.128  0.00  0.00    +0.000 C 
BRANCH  26  27
ATOM     27  C   UNL     1       5.567   4.788  16.522  0.00  0.00    +0.000 C 
ATOM     28  F   UNL     1       4.689   3.835  16.107  0.00  0.00    +0.000 F 
ENDBRANCH  26  27
ENDBRANCH  25  26
ENDBRANCH  24  25
ENDBRANCH  23  24
ENDBRANCH   1  15
TORSDOF 7
ENDMDL
MODEL 3
REMARK VINA RESULT:      -7.7      1.168      1.311
REMARK  Name = 
REMARK  7 active torsions:
REMARK  status: ('A' for Active; 'I' for Inactive)
REMARK    1  A    between atoms: N_4  and  O_5
REMARK    2  A    between atoms: N_12  and  C_13
REMARK    3  A    between atoms: C_13  and  C_14
REMARK    4  A    between atoms: N_22  and  C_23
REMARK    5  A    between atoms: C_23  and  C_24
REMARK    6  A    between atoms: C_24  and  C_25
REMARK    7  A    between atoms: C_25  and  C_26
REMARK                            x       y       z     vdW  Elec       q    Type
REMARK                         _______ _______ _______ _____ _____    ______ ____
ROOT
ATOM      1  C   UNL     1       2.025   8.426  20.072  0.00  0.00    +0.000 C 
ENDROOT
BRANCH   1  12
ATOM      2  O   UNL     1       0.826   9.625  17.680  0.00  0.00    +0.000 OA
ATOM      3  C   UNL     1       0.414   9.810  18.798  0.00  0.00    +0.000 C 
ATOM      4  C   UNL     1      -0.540  10.948  19.214  0.00  0.00    +0.000 C 
ATOM      5  N   UNL     1      -1.063  11.740  18.332  0.00  0.00    +0.000 NA
ATOM      6  C   UNL     1      -0.618  10.894  20.674  0.00  0.00    +0.000 A 
ATOM      7  C   UNL     1      -1.216  11.736  21.589  0.00  0.00    +0.000 A 
ATOM      8  C   UNL     1      -1.038  11.407  22.919  0.00  0.00    +0.000 A 
ATOM      9  N   UNL     1      -0.345  10.317  23.349  0.00  0.00    +0.000 NA
ATOM     10  C   UNL     1       0.238   9.525  22.415  0.00  0.00    +0.000 A 
ATOM     11  C   UNL     1       0.150   9.797  21.071  0.00  0.00    +0.000 A 
ATOM     12  N   UNL     1       0.769   9.159  19.976  0.00  0.00    +0.000 N 
BRANCH   5  13
ATOM     13  O   UNL     1      -1.879  12.723  18.900  0.00  0.00    +0.000 OA
ATOM     14  H   UNL     1      -1.407  13.545  18.662  0.00  0.00    +0.000 HD
ENDBRANCH   5  13
ENDBRANCH   1  12
BRANCH   1  15
ATOM     15  C   UNL     1       1.894   6.944  19.921  0.00  0.00    +0.000 A 
ATOM     16  N   UNL     1       1.518   6.098  20.869  0.00  0.00    +0.000 NA
ATOM     17  C   UNL     1       1.479   4.862  20.268  0.00  0.00    +0.000 A 
ATOM     18  C   UNL     1       1.259   3.585  20.794  0.00  0.00    +0.000 A 
ATOM     19  C   UNL     1       1.160   2.504  19.905  0.00  0.00    +0.000 A 
ATOM     20  C   UNL     1       1.192   2.709  18.521  0.00  0.00    +0.000 A 
ATOM     21  C   UNL     1       1.492   3.962  17.982  0.00  0.00    +0.000 A 
ATOM     22  C   UNL     1       1.727   4.987  18.910  0.00  0.00    +0.000 A 
ATOM     23  N   UNL     1       2.378   6.201  18.855  0.00  0.00    +0.000 N 
BRANCH  23  24
ATOM     24  C   UNL     1       3.669   6.353  18.192  0.00  0.00    +0.000 C 
BRANCH  24  25
ATOM     25  C   UNL     1       4.848   5.482  18.697  0.00  0.00    +0.000 C 
BRANCH  25  26
ATOM     26  C   UNL     1       5.115   4.097  18.079  0.00  0.00    +0.000 C 
BRANCH  26  27
ATOM     27  C   UNL     1       4.849   2.898  18.972  0.00  0.00    +0.000 C 
ATOM     28  F   UNL     1       4.393   3.332  20.178  0.00  0.00    +0.000 F 
ENDBRANCH  26  27
ENDBRANCH  25  26
ENDBRANCH  24  25
ENDBRANCH  23  24
ENDBRANCH   1  15
TORSDOF 7
ENDMDL
MODEL 4
REMARK VINA RESULT:      -7.3      2.505      4.365
REMARK  Name = 
REMARK  7 active torsions:
REMARK  status: ('A' for Active; 'I' for Inactive)
REMARK    1  A    between atoms: N_4  and  O_5
REMARK    2  A    between atoms: N_12  and  C_13
REMARK    3  A    between atoms: C_13  and  C_14
REMARK    4  A    between atoms: N_22  and  C_23
REMARK    5  A    between atoms: C_23  and  C_24
REMARK    6  A    between atoms: C_24  and  C_25
REMARK    7  A    between atoms: C_25  and  C_26
REMARK                            x       y       z     vdW  Elec       q    Type
REMARK                         _______ _______ _______ _____ _____    ______ ____
ROOT
ATOM      1  C   UNL     1       1.497   8.102  18.282  0.00  0.00    +0.000 C 
ENDROOT
BRANCH   1  12
ATOM      2  O   UNL     1       1.337   7.173  21.059  0.00  0.00    +0.000 OA
ATOM      3  C   UNL     1       1.251   8.332  20.737  0.00  0.00    +0.000 C 
ATOM      4  C   UNL     1       0.694   9.461  21.628  0.00  0.00    +0.000 C 
ATOM      5  N   UNL     1       0.374   9.243  22.864  0.00  0.00    +0.000 NA
ATOM      6  C   UNL     1       0.609  10.644  20.772  0.00  0.00    +0.000 A 
ATOM      7  C   UNL     1       0.073  11.896  20.993  0.00  0.00    +0.000 A 
ATOM      8  C   UNL     1       0.113  12.768  19.923  0.00  0.00    +0.000 A 
ATOM      9  N   UNL     1       0.658  12.466  18.713  0.00  0.00    +0.000 NA
ATOM     10  C   UNL     1       1.161  11.219  18.535  0.00  0.00    +0.000 A 
ATOM     11  C   UNL     1       1.128  10.271  19.529  0.00  0.00    +0.000 A 
ATOM     12  N   UNL     1       1.498   8.911  19.496  0.00  0.00    +0.000 N 
BRANCH   5  13
ATOM     13  O   UNL     1      -0.135  10.377  23.502  0.00  0.00    +0.000 OA
ATOM     14  H   UNL     1      -0.815  10.681  22.871  0.00  0.00    +0.000 HD
ENDBRANCH   5  13
ENDBRANCH   1  12
BRANCH   1  15
ATOM     15  C   UNL     1       2.756   7.332  18.047  0.00  0.00    +0.000 A 
ATOM     16  N   UNL     1       3.824   7.772  17.397  0.00  0.00    +0.000 NA
ATOM     17  C   UNL     1       4.752   6.760  17.482  0.00  0.00    +0.000 A 
ATOM     18  C   UNL     1       6.013   6.612  16.895  0.00  0.00    +0.000 A 
ATOM     19  C   UNL     1       6.794   5.506  17.264  0.00  0.00    +0.000 A 
ATOM     20  C   UNL     1       6.361   4.621  18.258  0.00  0.00    +0.000 A 
ATOM     21  C   UNL     1       5.074   4.708  18.792  0.00  0.00    +0.000 A 
ATOM     22  C   UNL     1       4.271   5.743  18.292  0.00  0.00    +0.000 A 
ATOM     23  N   UNL     1       2.912   5.969  18.248  0.00  0.00    +0.000 N 
BRANCH  23  24
ATOM     24  C   UNL     1       1.968   4.915  17.893  0.00  0.00    +0.000 C 
BRANCH  24  25
ATOM     25  C   UNL     1       1.825   3.715  18.863  0.00  0.00    +0.000 C 
BRANCH  25  26
ATOM     26  C   UNL     1       1.120   3.890  20.221  0.00  0.00    +0.000 C 
BRANCH  26  27
ATOM     27  C   UNL     1       1.896   3.438  21.447  0.00  0.00    +0.000 C 
ATOM     28  F   UNL     1       1.166   2.508  22.120  0.00  0.00    +0.000 F 
ENDBRANCH  26  27
ENDBRANCH  25  26
ENDBRANCH  24  25
ENDBRANCH  23  24
ENDBRANCH   1  15
TORSDOF 7
ENDMDL
MODEL 5
REMARK VINA RESULT:      -7.2      3.312      7.641
REMARK  Name = 
REMARK  7 active torsions:
REMARK  status: ('A' for Active; 'I' for Inactive)
REMARK    1  A    between atoms: N_4  and  O_5
REMARK    2  A    between atoms: N_12  and  C_13
REMARK    3  A    between atoms: C_13  and  C_14
REMARK    4  A    between atoms: N_22  and  C_23
REMARK    5  A    between atoms: C_23  and  C_24
REMARK    6  A    between atoms: C_24  and  C_25
REMARK    7  A    between atoms: C_25  and  C_26
REMARK                            x       y       z     vdW  Elec       q    Type
REMARK                         _______ _______ _______ _____ _____    ______ ____
ROOT
ATOM      1  C   UNL     1       1.706   7.401  17.974  0.00  0.00    +0.000 C 
ENDROOT
BRANCH   1  12
ATOM      2  O   UNL     1       4.457   7.219  16.974  0.00  0.00    +0.000 OA
ATOM      3  C   UNL     1       4.030   6.549  17.881  0.00  0.00    +0.000 C 
ATOM      4  C   UNL     1       4.692   5.265  18.422  0.00  0.00    +0.000 C 
ATOM      5  N   UNL     1       5.850   4.875  17.991  0.00  0.00    +0.000 NA
ATOM      6  C   UNL     1       3.743   4.696  19.379  0.00  0.00    +0.000 A 
ATOM      7  C   UNL     1       3.746   3.501  20.070  0.00  0.00    +0.000 A 
ATOM      8  C   UNL     1       2.640   3.257  20.859  0.00  0.00    +0.000 A 
ATOM      9  N   UNL     1       1.596   4.120  20.998  0.00  0.00    +0.000 NA
ATOM     10  C   UNL     1       1.628   5.276  20.290  0.00  0.00    +0.000 A 
ATOM     11  C   UNL     1       2.668   5.586  19.448  0.00  0.00    +0.000 A 
ATOM     12  N   UNL     1       2.823   6.673  18.563  0.00  0.00    +0.000 N 
BRANCH   5  13
ATOM     13  O   UNL     1       6.274   3.681  18.579  0.00  0.00    +0.000 OA
ATOM     14  H   UNL     1       7.114   3.507  18.109  0.00  0.00    +0.000 HD
ENDBRANCH   5  13
ENDBRANCH   1  12
BRANCH   1  15
ATOM     15  C   UNL     1       1.657   8.855  18.322  0.00  0.00    +0.000 A 
ATOM     16  N   UNL     1       2.334   9.819  17.717  0.00  0.00    +0.000 NA
ATOM     17  C   UNL     1       1.933  10.988  18.322  0.00  0.00    +0.000 A 
ATOM     18  C   UNL     1       2.385  12.305  18.178  0.00  0.00    +0.000 A 
ATOM     19  C   UNL     1       1.694  13.323  18.852  0.00  0.00    +0.000 A 
ATOM     20  C   UNL     1       0.531  13.043  19.578  0.00  0.00    +0.000 A 
ATOM     21  C   UNL     1       0.115  11.728  19.798  0.00  0.00    +0.000 A 
ATOM     22  C   UNL     1       0.916  10.729  19.226  0.00  0.00    +0.000 A 
ATOM     23  N   UNL     1       1.097   9.385  19.474  0.00  0.00    +0.000 N 
BRANCH  23  24
ATOM     24  C   UNL     1       1.220   8.862  20.831  0.00  0.00    +0.000 C 
BRANCH  24  25
ATOM     25  C   UNL     1      -0.052   8.843  21.716  0.00  0.00    +0.000 C 
BRANCH  25  26
ATOM     26  C   UNL     1      -0.109   9.665  23.017  0.00  0.00    +0.000 C 
BRANCH  26  27
ATOM     27  C   UNL     1      -1.225  10.690  23.119  0.00  0.00    +0.000 C 
ATOM     28  F   UNL     1      -0.688  11.939  23.102  0.00  0.00    +0.000 F 
ENDBRANCH  26  27
ENDBRANCH  25  26
ENDBRANCH  24  25
ENDBRANCH  23  24
ENDBRANCH   1  15
TORSDOF 7
ENDMDL
MODEL 6
REMARK VINA RESULT:      -7.1      2.192      4.072
REMARK  Name = 
REMARK  7 active torsions:
REMARK  status: ('A' for Active; 'I' for Inactive)
REMARK    1  A    between atoms: N_4  and  O_5
REMARK    2  A    between atoms: N_12  and  C_13
REMARK    3  A    between atoms: C_13  and  C_14
REMARK    4  A    between atoms: N_22  and  C_23
REMARK    5  A    between atoms: C_23  and  C_24
REMARK    6  A    between atoms: C_24  and  C_25
REMARK    7  A    between atoms: C_25  and  C_26
REMARK                            x       y       z     vdW  Elec       q    Type
REMARK                         _______ _______ _______ _____ _____    ______ ____
ROOT
ATOM      1  C   UNL     1       1.485   8.293  18.338  0.00  0.00    +0.000 C 
ENDROOT
BRANCH   1  12
ATOM      2  O   UNL     1       1.146   7.355  21.096  0.00  0.00    +0.000 OA
ATOM      3  C   UNL     1       1.142   8.519  20.781  0.00  0.00    +0.000 C 
ATOM      4  C   UNL     1       0.612   9.672  21.657  0.00  0.00    +0.000 C 
ATOM      5  N   UNL     1       0.224   9.464  22.876  0.00  0.00    +0.000 NA
ATOM      6  C   UNL     1       0.634  10.864  20.810  0.00  0.00    +0.000 A 
ATOM      7  C   UNL     1       0.162  12.144  21.020  0.00  0.00    +0.000 A 
ATOM      8  C   UNL     1       0.301  13.020  19.961  0.00  0.00    +0.000 A 
ATOM      9  N   UNL     1       0.882  12.695  18.773  0.00  0.00    +0.000 NA
ATOM     10  C   UNL     1       1.319  11.422  18.606  0.00  0.00    +0.000 A 
ATOM     11  C   UNL     1       1.186  10.471  19.588  0.00  0.00    +0.000 A 
ATOM     12  N   UNL     1       1.478   9.092  19.558  0.00  0.00    +0.000 N 
BRANCH   5  13
ATOM     13  O   UNL     1      -0.246  10.621  23.502  0.00  0.00    +0.000 OA
ATOM     14  H   UNL     1      -0.989  10.881  22.923  0.00  0.00    +0.000 HD
ENDBRANCH   5  13
ENDBRANCH   1  12
BRANCH   1  15
ATOM     15  C   UNL     1       2.715   7.466  18.142  0.00  0.00    +0.000 A 
ATOM     16  N   UNL     1       3.685   7.714  17.275  0.00  0.00    +0.000 NA
ATOM     17  C   UNL     1       4.630   6.737  17.488  0.00  0.00    +0.000 A 
ATOM     18  C   UNL     1       5.809   6.427  16.802  0.00  0.00    +0.000 A 
ATOM     19  C   UNL     1       6.646   5.432  17.330  0.00  0.00    +0.000 A 
ATOM     20  C   UNL     1       6.355   4.827  18.558  0.00  0.00    +0.000 A 
ATOM     21  C   UNL     1       5.145   5.066  19.212  0.00  0.00    +0.000 A 
ATOM     22  C   UNL     1       4.271   5.960  18.577  0.00  0.00    +0.000 A 
ATOM     23  N   UNL     1       2.914   6.192  18.652  0.00  0.00    +0.000 N 
BRANCH  23  24
ATOM     24  C   UNL     1       1.947   5.100  18.690  0.00  0.00    +0.000 C 
BRANCH  24  25
ATOM     25  C   UNL     1       2.068   3.990  17.616  0.00  0.00    +0.000 C 
BRANCH  25  26
ATOM     26  C   UNL     1       2.087   2.506  18.027  0.00  0.00    +0.000 C 
BRANCH  26  27
ATOM     27  C   UNL     1       3.433   1.806  17.960  0.00  0.00    +0.000 C 
ATOM     28  F   UNL     1       4.314   2.595  17.289  0.00  0.00    +0.000 F 
ENDBRANCH  26  27
ENDBRANCH  25  26
ENDBRANCH  24  25
ENDBRANCH  23  24
ENDBRANCH   1  15
TORSDOF 7
ENDMDL
MODEL 7
REMARK VINA RESULT:      -6.9      2.022      3.930
REMARK  Name = 
REMARK  7 active torsions:
REMARK  status: ('A' for Active; 'I' for Inactive)
REMARK    1  A    between atoms: N_4  and  O_5
REMARK    2  A    between atoms: N_12  and  C_13
REMARK    3  A    between atoms: C_13  and  C_14
REMARK    4  A    between atoms: N_22  and  C_23
REMARK    5  A    between atoms: C_23  and  C_24
REMARK    6  A    between atoms: C_24  and  C_25
REMARK    7  A    between atoms: C_25  and  C_26
REMARK                            x       y       z     vdW  Elec       q    Type
REMARK                         _______ _______ _______ _____ _____    ______ ____
ROOT
ATOM      1  C   UNL     1       1.061   7.835  20.463  0.00  0.00    +0.000 C 
ENDROOT
BRANCH   1  12
ATOM      2  O   UNL     1       1.648   9.854  22.507  0.00  0.00    +0.000 OA
ATOM      3  C   UNL     1       1.092  10.100  21.465  0.00  0.00    +0.000 C 
ATOM      4  C   UNL     1       0.284  11.381  21.173  0.00  0.00    +0.000 C 
ATOM      5  N   UNL     1       0.244  12.357  22.024  0.00  0.00    +0.000 NA
ATOM      6  C   UNL     1      -0.354  11.166  19.874  0.00  0.00    +0.000 A 
ATOM      7  C   UNL     1      -1.282  11.913  19.177  0.00  0.00    +0.000 A 
ATOM      8  C   UNL     1      -1.719  11.371  17.984  0.00  0.00    +0.000 A 
ATOM      9  N   UNL     1      -1.275  10.189  17.474  0.00  0.00    +0.000 NA
ATOM     10  C   UNL     1      -0.374   9.482  18.200  0.00  0.00    +0.000 A 
ATOM     11  C   UNL     1       0.087   9.921  19.417  0.00  0.00    +0.000 A 
ATOM     12  N   UNL     1       0.930   9.283  20.350  0.00  0.00    +0.000 N 
BRANCH   5  13
ATOM     13  O   UNL     1      -0.557  13.419  21.596  0.00  0.00    +0.000 OA
ATOM     14  H   UNL     1      -1.290  13.398  22.242  0.00  0.00    +0.000 HD
ENDBRANCH   5  13
ENDBRANCH   1  12
BRANCH   1  15
ATOM     15  C   UNL     1       2.171   7.246  19.652  0.00  0.00    +0.000 A 
ATOM     16  N   UNL     1       2.554   7.654  18.451  0.00  0.00    +0.000 NA
ATOM     17  C   UNL     1       3.639   6.873  18.123  0.00  0.00    +0.000 A 
ATOM     18  C   UNL     1       4.383   6.774  16.943  0.00  0.00    +0.000 A 
ATOM     19  C   UNL     1       5.526   5.961  16.942  0.00  0.00    +0.000 A 
ATOM     20  C   UNL     1       5.962   5.334  18.115  0.00  0.00    +0.000 A 
ATOM     21  C   UNL     1       5.188   5.356  19.277  0.00  0.00    +0.000 A 
ATOM     22  C   UNL     1       3.979   6.062  19.195  0.00  0.00    +0.000 A 
ATOM     23  N   UNL     1       2.803   6.041  19.915  0.00  0.00    +0.000 N 
BRANCH  23  24
ATOM     24  C   UNL     1       2.174   4.789  20.323  0.00  0.00    +0.000 C 
BRANCH  24  25
ATOM     25  C   UNL     1       1.178   4.125  19.339  0.00  0.00    +0.000 C 
BRANCH  25  26
ATOM     26  C   UNL     1       1.603   3.814  17.892  0.00  0.00    +0.000 C 
BRANCH  26  27
ATOM     27  C   UNL     1       2.682   2.759  17.719  0.00  0.00    +0.000 C 
ATOM     28  F   UNL     1       3.636   3.231  16.872  0.00  0.00    +0.000 F 
ENDBRANCH  26  27
ENDBRANCH  25  26
ENDBRANCH  24  25
ENDBRANCH  23  24
ENDBRANCH   1  15
TORSDOF 7
ENDMDL
MODEL 8
REMARK VINA RESULT:      -6.9      3.531      7.768
REMARK  Name = 
REMARK  7 active torsions:
REMARK  status: ('A' for Active; 'I' for Inactive)
REMARK    1  A    between atoms: N_4  and  O_5
REMARK    2  A    between atoms: N_12  and  C_13
REMARK    3  A    between atoms: C_13  and  C_14
REMARK    4  A    between atoms: N_22  and  C_23
REMARK    5  A    between atoms: C_23  and  C_24
REMARK    6  A    between atoms: C_24  and  C_25
REMARK    7  A    between atoms: C_25  and  C_26
REMARK                            x       y       z     vdW  Elec       q    Type
REMARK                         _______ _______ _______ _____ _____    ______ ____
ROOT
ATOM      1  C   UNL     1       2.609   8.045  17.607  0.00  0.00    +0.000 C 
ENDROOT
BRANCH   1  12
ATOM      2  O   UNL     1       5.527   7.849  17.398  0.00  0.00    +0.000 OA
ATOM      3  C   UNL     1       4.803   6.897  17.558  0.00  0.00    +0.000 C 
ATOM      4  C   UNL     1       5.206   5.428  17.321  0.00  0.00    +0.000 C 
ATOM      5  N   UNL     1       6.427   5.106  17.030  0.00  0.00    +0.000 NA
ATOM      6  C   UNL     1       3.977   4.647  17.458  0.00  0.00    +0.000 A 
ATOM      7  C   UNL     1       3.712   3.311  17.231  0.00  0.00    +0.000 A 
ATOM      8  C   UNL     1       2.400   2.918  17.408  0.00  0.00    +0.000 A 
ATOM      9  N   UNL     1       1.399   3.752  17.802  0.00  0.00    +0.000 NA
ATOM     10  C   UNL     1       1.702   5.060  17.999  0.00  0.00    +0.000 A 
ATOM     11  C   UNL     1       2.971   5.551  17.808  0.00  0.00    +0.000 A 
ATOM     12  N   UNL     1       3.445   6.877  17.859  0.00  0.00    +0.000 N 
BRANCH   5  13
ATOM     13  O   UNL     1       6.594   3.733  16.827  0.00  0.00    +0.000 OA
ATOM     14  H   UNL     1       7.141   3.476  17.595  0.00  0.00    +0.000 HD
ENDBRANCH   5  13
ENDBRANCH   1  12
BRANCH   1  15
ATOM     15  C   UNL     1       1.874   8.555  18.806  0.00  0.00    +0.000 A 
ATOM     16  N   UNL     1       1.788   7.945  19.979  0.00  0.00    +0.000 NA
ATOM     17  C   UNL     1       1.078   8.801  20.789  0.00  0.00    +0.000 A 
ATOM     18  C   UNL     1       0.587   8.647  22.090  0.00  0.00    +0.000 A 
ATOM     19  C   UNL     1      -0.009   9.754  22.713  0.00  0.00    +0.000 A 
ATOM     20  C   UNL     1      -0.033  11.004  22.085  0.00  0.00    +0.000 A 
ATOM     21  C   UNL     1       0.377  11.155  20.758  0.00  0.00    +0.000 A 
ATOM     22  C   UNL     1       0.833   9.991  20.123  0.00  0.00    +0.000 A 
ATOM     23  N   UNL     1       0.973   9.608  18.805  0.00  0.00    +0.000 N 
BRANCH  23  24
ATOM     24  C   UNL     1      -0.061   9.880  17.812  0.00  0.00    +0.000 C 
BRANCH  24  25
ATOM     25  C   UNL     1      -1.524  10.004  18.306  0.00  0.00    +0.000 C 
BRANCH  25  26
ATOM     26  C   UNL     1      -2.453  11.088  17.728  0.00  0.00    +0.000 C 
BRANCH  26  27
ATOM     27  C   UNL     1      -3.329  10.671  16.558  0.00  0.00    +0.000 C 
ATOM     28  F   UNL     1      -2.847   9.513  16.030  0.00  0.00    +0.000 F 
ENDBRANCH  26  27
ENDBRANCH  25  26
ENDBRANCH  24  25
ENDBRANCH  23  24
ENDBRANCH   1  15
TORSDOF 7
ENDMDL
MODEL 9
REMARK VINA RESULT:      -6.8      2.534      4.506
REMARK  Name = 
REMARK  7 active torsions:
REMARK  status: ('A' for Active; 'I' for Inactive)
REMARK    1  A    between atoms: N_4  and  O_5
REMARK    2  A    between atoms: N_12  and  C_13
REMARK    3  A    between atoms: C_13  and  C_14
REMARK    4  A    between atoms: N_22  and  C_23
REMARK    5  A    between atoms: C_23  and  C_24
REMARK    6  A    between atoms: C_24  and  C_25
REMARK    7  A    between atoms: C_25  and  C_26
REMARK                            x       y       z     vdW  Elec       q    Type
REMARK                         _______ _______ _______ _____ _____    ______ ____
ROOT
ATOM      1  C   UNL     1       2.046   6.804  18.375  0.00  0.00    +0.000 C 
ENDROOT
BRANCH   1  12
ATOM      2  O   UNL     1       1.383   6.483  21.214  0.00  0.00    +0.000 OA
ATOM      3  C   UNL     1       1.508   7.554  20.674  0.00  0.00    +0.000 C 
ATOM      4  C   UNL     1       1.002   8.896  21.241  0.00  0.00    +0.000 C 
ATOM      5  N   UNL     1       0.492   8.972  22.429  0.00  0.00    +0.000 NA
ATOM      6  C   UNL     1       1.204   9.883  20.180  0.00  0.00    +0.000 A 
ATOM      7  C   UNL     1       0.826  11.207  20.079  0.00  0.00    +0.000 A 
ATOM      8  C   UNL     1       1.134  11.833  18.887  0.00  0.00    +0.000 A 
ATOM      9  N   UNL     1       1.788  11.231  17.855  0.00  0.00    +0.000 NA
ATOM     10  C   UNL     1       2.127   9.925  17.993  0.00  0.00    +0.000 A 
ATOM     11  C   UNL     1       1.826   9.209  19.126  0.00  0.00    +0.000 A 
ATOM     12  N   UNL     1       1.999   7.837  19.403  0.00  0.00    +0.000 N 
BRANCH   5  13
ATOM     13  O   UNL     1       0.069  10.262  22.758  0.00  0.00    +0.000 OA
ATOM     14  H   UNL     1       0.204  10.283  23.726  0.00  0.00    +0.000 HD
ENDBRANCH   5  13
ENDBRANCH   1  12
BRANCH   1  15
ATOM     15  C   UNL     1       3.405   6.232  18.128  0.00  0.00    +0.000 A 
ATOM     16  N   UNL     1       4.004   6.137  16.950  0.00  0.00    +0.000 NA
ATOM     17  C   UNL     1       5.249   5.613  17.209  0.00  0.00    +0.000 A 
ATOM     18  C   UNL     1       6.271   5.193  16.351  0.00  0.00    +0.000 A 
ATOM     19  C   UNL     1       7.496   4.805  16.914  0.00  0.00    +0.000 A 
ATOM     20  C   UNL     1       7.722   4.918  18.290  0.00  0.00    +0.000 A 
ATOM     21  C   UNL     1       6.689   5.257  19.167  0.00  0.00    +0.000 A 
ATOM     22  C   UNL     1       5.440   5.498  18.577  0.00  0.00    +0.000 A 
ATOM     23  N   UNL     1       4.141   5.493  19.041  0.00  0.00    +0.000 N 
BRANCH  23  24
ATOM     24  C   UNL     1       3.645   4.445  19.927  0.00  0.00    +0.000 C 
BRANCH  24  25
ATOM     25  C   UNL     1       4.089   2.988  19.643  0.00  0.00    +0.000 C 
BRANCH  25  26
ATOM     26  C   UNL     1       3.721   2.306  18.312  0.00  0.00    +0.000 C 
BRANCH  26  27
ATOM     27  C   UNL     1       2.321   2.570  17.784  0.00  0.00    +0.000 C 
ATOM     28  F   UNL     1       2.400   3.378  16.693  0.00  0.00    +0.000 F 
ENDBRANCH  26  27
ENDBRANCH  25  26
ENDBRANCH  24  25
ENDBRANCH  23  24
ENDBRANCH   1  15
TORSDOF 7
ENDMDL
