MODEL 1
REMARK VINA RESULT:      -8.2      0.000      0.000
REMARK  Name = 
REMARK  4 active torsions:
REMARK  status: ('A' for Active; 'I' for Inactive)
REMARK    1  A    between atoms: C_1  and  C_2
REMARK    2  A    between atoms: C_6  and  C_7
REMARK    3  A    between atoms: C_13  and  C_15
REMARK    4  A    between atoms: C_15  and  C_16
REMARK                            x       y       z     vdW  Elec       q    Type
REMARK                         _______ _______ _______ _____ _____    ______ ____
ROOT
ATOM      1  C   UNL     1       1.879   5.450  18.914  0.00  0.00    +0.000 C 
ATOM      2  C   UNL     1       1.356   6.049  20.260  0.00  0.00    +0.000 C 
ATOM      3  N   UNL     1       1.695   7.469  20.506  0.00  0.00    +0.000 NA
ATOM      4  C   UNL     1       0.881   8.058  21.601  0.00  0.00    +0.000 C 
ATOM      5  C   UNL     1       1.250   9.539  21.859  0.00  0.00    +0.000 C 
ATOM      6  N   UNL     1       1.248  10.333  20.616  0.00  0.00    +0.000 N 
ATOM      7  C   UNL     1       0.567  11.538  20.567  0.00  0.00    +0.000 C 
ATOM      8  O   UNL     1      -0.075  11.968  21.525  0.00  0.00    +0.000 OA
ATOM      9  C   UNL     1       1.980   9.700  19.505  0.00  0.00    +0.000 C 
ATOM     10  C   UNL     1       1.450   8.278  19.280  0.00  0.00    +0.000 C 
ATOM     11  C   UNL     1       2.082   7.651  18.038  0.00  0.00    +0.000 C 
ATOM     12  O   UNL     1       1.530   6.342  17.825  0.00  0.00    +0.000 OA
ENDROOT
BRANCH   1  18
ATOM     13  C   UNL     1       7.402   4.587  13.951  0.00  0.00    +0.000 C 
ATOM     14  C   UNL     1       6.888   5.049  15.312  0.00  0.00    +0.000 C 
ATOM     15  C   UNL     1       5.465   4.554  15.545  0.00  0.00    +0.000 C 
ATOM     16  C   UNL     1       5.077   4.745  16.980  0.00  0.00    +0.000 A 
ATOM     17  C   UNL     1       3.731   4.859  17.343  0.00  0.00    +0.000 A 
ATOM     18  C   UNL     1       3.332   5.051  18.686  0.00  0.00    +0.000 A 
ATOM     19  C   UNL     1       4.312   5.003  19.680  0.00  0.00    +0.000 A 
ATOM     20  C   UNL     1       5.664   4.879  19.323  0.00  0.00    +0.000 A 
ATOM     21  C   UNL     1       6.051   4.782  17.976  0.00  0.00    +0.000 A 
ATOM     22  C   UNL     1       7.497   4.723  17.627  0.00  0.00    +0.000 C 
ATOM     23  O   UNL     1       8.366   4.795  18.482  0.00  0.00    +0.000 OA
ATOM     24  O   UNL     1       7.791   4.539  16.312  0.00  0.00    +0.000 OA
ENDBRANCH   1  18
BRANCH   7  25
ATOM     25  C   UNL     1       0.579  12.333  19.266  0.00  0.00    +0.000 C 
BRANCH  25  26
ATOM     26  C   UNL     1       1.580  13.449  19.283  0.00  0.00    +0.000 A 
ATOM     27  C   UNL     1       1.433  14.555  20.095  0.00  0.00    +0.000 A 
ATOM     28  N   UNL     1       2.328  15.562  20.163  0.00  0.00    +0.000 NA
ATOM     29  C   UNL     1       3.421  15.458  19.373  0.00  0.00    +0.000 A 
ATOM     30  N   UNL     1       4.384  16.496  19.458  0.00  0.00    +0.000 N 
ATOM     31  C   UNL     1       4.355  17.587  20.284  0.00  0.00    +0.000 A 
ATOM     32  N   UNL     1       5.427  18.316  20.075  0.00  0.00    +0.000 NA
ATOM     33  N   UNL     1       6.138  17.661  19.100  0.00  0.00    +0.000 NA
ATOM     34  N   UNL     1       5.517  16.552  18.719  0.00  0.00    +0.000 NA
ATOM     35  N   UNL     1       3.646  14.428  18.530  0.00  0.00    +0.000 NA
ATOM     36  C   UNL     1       2.727  13.444  18.514  0.00  0.00    +0.000 A 
ENDBRANCH  25  26
ENDBRANCH   7  25
TORSDOF 3
ENDMDL
MODEL 2
REMARK VINA RESULT:      -8.2      0.452      1.012
REMARK  Name = 
REMARK  4 active torsions:
REMARK  status: ('A' for Active; 'I' for Inactive)
REMARK    1  A    between atoms: C_1  and  C_2
REMARK    2  A    between atoms: C_6  and  C_7
REMARK    3  A    between atoms: C_13  and  C_15
REMARK    4  A    between atoms: C_15  and  C_16
REMARK                            x       y       z     vdW  Elec       q    Type
REMARK                         _______ _______ _______ _____ _____    ______ ____
ROOT
ATOM      1  C   UNL     1       1.878   5.371  18.928  0.00  0.00    +0.000 C 
ATOM      2  C   UNL     1       1.367   5.931  20.296  0.00  0.00    +0.000 C 
ATOM      3  N   UNL     1       1.718   7.340  20.584  0.00  0.00    +0.000 NA
ATOM      4  C   UNL     1       0.913   7.899  21.702  0.00  0.00    +0.000 C 
ATOM      5  C   UNL     1       1.295   9.369  22.005  0.00  0.00    +0.000 C 
ATOM      6  N   UNL     1       1.292  10.203  20.788  0.00  0.00    +0.000 N 
ATOM      7  C   UNL     1       0.619  11.413  20.781  0.00  0.00    +0.000 C 
ATOM      8  O   UNL     1      -0.014  11.817  21.756  0.00  0.00    +0.000 OA
ATOM      9  C   UNL     1       2.013   9.599  19.654  0.00  0.00    +0.000 C 
ATOM     10  C   UNL     1       1.471   8.189  19.386  0.00  0.00    +0.000 C 
ATOM     11  C   UNL     1       2.092   7.597  18.121  0.00  0.00    +0.000 C 
ATOM     12  O   UNL     1       1.529   6.300  17.870  0.00  0.00    +0.000 OA
ENDROOT
BRANCH   1  18
ATOM     13  C   UNL     1       7.353   4.581  13.901  0.00  0.00    +0.000 C 
ATOM     14  C   UNL     1       6.853   5.017  15.275  0.00  0.00    +0.000 C 
ATOM     15  C   UNL     1       5.430   4.525  15.510  0.00  0.00    +0.000 C 
ATOM     16  C   UNL     1       5.055   4.689  16.952  0.00  0.00    +0.000 A 
ATOM     17  C   UNL     1       3.712   4.803  17.329  0.00  0.00    +0.000 A 
ATOM     18  C   UNL     1       3.327   4.970  18.679  0.00  0.00    +0.000 A 
ATOM     19  C   UNL     1       4.315   4.896  19.663  0.00  0.00    +0.000 A 
ATOM     20  C   UNL     1       5.662   4.772  19.293  0.00  0.00    +0.000 A 
ATOM     21  C   UNL     1       6.038   4.701  17.940  0.00  0.00    +0.000 A 
ATOM     22  C   UNL     1       7.480   4.641  17.577  0.00  0.00    +0.000 C 
ATOM     23  O   UNL     1       8.357   4.691  18.426  0.00  0.00    +0.000 OA
ATOM     24  O   UNL     1       7.762   4.483  16.256  0.00  0.00    +0.000 OA
ENDBRANCH   1  18
BRANCH   7  25
ATOM     25  C   UNL     1       0.631  12.249  19.507  0.00  0.00    +0.000 C 
BRANCH  25  26
ATOM     26  C   UNL     1       1.612  13.380  19.569  0.00  0.00    +0.000 A 
ATOM     27  C   UNL     1       2.796  13.365  18.858  0.00  0.00    +0.000 A 
ATOM     28  N   UNL     1       3.687  14.378  18.862  0.00  0.00    +0.000 NA
ATOM     29  C   UNL     1       3.382  15.454  19.621  0.00  0.00    +0.000 A 
ATOM     30  N   UNL     1       4.297  16.537  19.610  0.00  0.00    +0.000 N 
ATOM     31  C   UNL     1       5.452  16.638  18.881  0.00  0.00    +0.000 A 
ATOM     32  N   UNL     1       6.023  17.794  19.133  0.00  0.00    +0.000 NA
ATOM     33  N   UNL     1       5.202  18.424  20.036  0.00  0.00    +0.000 NA
ATOM     34  N   UNL     1       4.148  17.673  20.331  0.00  0.00    +0.000 NA
ATOM     35  N   UNL     1       2.261  15.556  20.368  0.00  0.00    +0.000 NA
ATOM     36  C   UNL     1       1.400  14.522  20.315  0.00  0.00    +0.000 A 
ENDBRANCH  25  26
ENDBRANCH   7  25
TORSDOF 3
ENDMDL
MODEL 3
REMARK VINA RESULT:      -8.1      5.824      9.523
REMARK  Name = 
REMARK  4 active torsions:
REMARK  status: ('A' for Active; 'I' for Inactive)
REMARK    1  A    between atoms: C_1  and  C_2
REMARK    2  A    between atoms: C_6  and  C_7
REMARK    3  A    between atoms: C_13  and  C_15
REMARK    4  A    between atoms: C_15  and  C_16
REMARK                            x       y       z     vdW  Elec       q    Type
REMARK                         _______ _______ _______ _____ _____    ______ ____
ROOT
ATOM      1  C   UNL     1       4.212  16.387  18.526  0.00  0.00    +0.000 C 
ATOM      2  C   UNL     1       3.376  15.269  17.822  0.00  0.00    +0.000 C 
ATOM      3  N   UNL     1       2.970  14.134  18.680  0.00  0.00    +0.000 NA
ATOM      4  C   UNL     1       1.901  13.313  18.053  0.00  0.00    +0.000 C 
ATOM      5  C   UNL     1       1.490  12.121  18.952  0.00  0.00    +0.000 C 
ATOM      6  N   UNL     1       1.188  12.548  20.331  0.00  0.00    +0.000 N 
ATOM      7  C   UNL     1       0.014  12.136  20.940  0.00  0.00    +0.000 C 
ATOM      8  O   UNL     1      -0.817  11.441  20.358  0.00  0.00    +0.000 OA
ATOM      9  C   UNL     1       2.207  13.437  20.914  0.00  0.00    +0.000 C 
ATOM     10  C   UNL     1       2.447  14.633  19.982  0.00  0.00    +0.000 C 
ATOM     11  C   UNL     1       3.384  15.650  20.630  0.00  0.00    +0.000 C 
ATOM     12  O   UNL     1       3.549  16.778  19.756  0.00  0.00    +0.000 OA
ENDROOT
BRANCH   1  18
ATOM     13  C   UNL     1      10.475  12.436  17.508  0.00  0.00    +0.000 C 
ATOM     14  C   UNL     1       9.742  13.767  17.641  0.00  0.00    +0.000 C 
ATOM     15  C   UNL     1       8.307  13.546  18.106  0.00  0.00    +0.000 C 
ATOM     16  C   UNL     1       7.690  14.847  18.522  0.00  0.00    +0.000 A 
ATOM     17  C   UNL     1       6.301  15.015  18.497  0.00  0.00    +0.000 A 
ATOM     18  C   UNL     1       5.689  16.233  18.872  0.00  0.00    +0.000 A 
ATOM     19  C   UNL     1       6.495  17.247  19.394  0.00  0.00    +0.000 A 
ATOM     20  C   UNL     1       7.889  17.081  19.432  0.00  0.00    +0.000 A 
ATOM     21  C   UNL     1       8.490  15.898  18.967  0.00  0.00    +0.000 A 
ATOM     22  C   UNL     1       9.974  15.781  18.955  0.00  0.00    +0.000 C 
ATOM     23  O   UNL     1      10.692  16.706  19.304  0.00  0.00    +0.000 OA
ATOM     24  O   UNL     1      10.479  14.576  18.578  0.00  0.00    +0.000 OA
ENDBRANCH   1  18
BRANCH   7  25
ATOM     25  C   UNL     1      -0.272  12.598  22.365  0.00  0.00    +0.000 C 
BRANCH  25  26
ATOM     26  C   UNL     1      -1.737  12.742  22.640  0.00  0.00    +0.000 A 
ATOM     27  C   UNL     1      -2.496  13.746  22.073  0.00  0.00    +0.000 A 
ATOM     28  N   UNL     1      -3.823  13.889  22.269  0.00  0.00    +0.000 NA
ATOM     29  C   UNL     1      -4.417  12.985  23.081  0.00  0.00    +0.000 A 
ATOM     30  N   UNL     1      -5.818  13.106  23.271  0.00  0.00    +0.000 N 
ATOM     31  C   UNL     1      -6.656  14.021  22.693  0.00  0.00    +0.000 A 
ATOM     32  N   UNL     1      -7.883  13.808  23.111  0.00  0.00    +0.000 NA
ATOM     33  N   UNL     1      -7.803  12.737  23.966  0.00  0.00    +0.000 NA
ATOM     34  N   UNL     1      -6.555  12.298  24.069  0.00  0.00    +0.000 NA
ATOM     35  N   UNL     1      -3.760  11.980  23.699  0.00  0.00    +0.000 NA
ATOM     36  C   UNL     1      -2.440  11.877  23.455  0.00  0.00    +0.000 A 
ENDBRANCH  25  26
ENDBRANCH   7  25
TORSDOF 3
ENDMDL
MODEL 4
REMARK VINA RESULT:      -8.0      5.524      7.993
REMARK  Name = 
REMARK  4 active torsions:
REMARK  status: ('A' for Active; 'I' for Inactive)
REMARK    1  A    between atoms: C_1  and  C_2
REMARK    2  A    between atoms: C_6  and  C_7
REMARK    3  A    between atoms: C_13  and  C_15
REMARK    4  A    between atoms: C_15  and  C_16
REMARK                            x       y       z     vdW  Elec       q    Type
REMARK                         _______ _______ _______ _____ _____    ______ ____
ROOT
ATOM      1  C   UNL     1       1.013  10.245  19.672  0.00  0.00    +0.000 C 
ATOM      2  C   UNL     1       0.531  11.253  18.579  0.00  0.00    +0.000 C 
ATOM      3  N   UNL     1      -0.690  10.862  17.838  0.00  0.00    +0.000 NA
ATOM      4  C   UNL     1      -1.280  12.003  17.089  0.00  0.00    +0.000 C 
ATOM      5  C   UNL     1      -2.548  11.583  16.308  0.00  0.00    +0.000 C 
ATOM      6  N   UNL     1      -3.512  10.864  17.164  0.00  0.00    +0.000 N 
ATOM      7  C   UNL     1      -4.843  11.244  17.176  0.00  0.00    +0.000 C 
ATOM      8  O   UNL     1      -5.260  12.194  16.513  0.00  0.00    +0.000 OA
ATOM      9  C   UNL     1      -2.903   9.794  17.973  0.00  0.00    +0.000 C 
ATOM     10  C   UNL     1      -1.727  10.360  18.781  0.00  0.00    +0.000 C 
ATOM     11  C   UNL     1      -1.172   9.312  19.744  0.00  0.00    +0.000 C 
ATOM     12  O   UNL     1      -0.108   9.885  20.519  0.00  0.00    +0.000 OA
ENDROOT
BRANCH   1  18
ATOM     13  C   UNL     1       2.014   3.058  21.466  0.00  0.00    +0.000 C 
ATOM     14  C   UNL     1       1.822   4.163  20.432  0.00  0.00    +0.000 C 
ATOM     15  C   UNL     1       1.930   5.535  21.085  0.00  0.00    +0.000 C 
ATOM     16  C   UNL     1       2.042   6.602  20.038  0.00  0.00    +0.000 A 
ATOM     17  C   UNL     1       1.651   7.916  20.316  0.00  0.00    +0.000 A 
ATOM     18  C   UNL     1       1.734   8.942  19.347  0.00  0.00    +0.000 A 
ATOM     19  C   UNL     1       2.337   8.648  18.122  0.00  0.00    +0.000 A 
ATOM     20  C   UNL     1       2.742   7.334  17.840  0.00  0.00    +0.000 A 
ATOM     21  C   UNL     1       2.566   6.305  18.782  0.00  0.00    +0.000 A 
ATOM     22  C   UNL     1       2.941   4.909  18.425  0.00  0.00    +0.000 C 
ATOM     23  O   UNL     1       3.364   4.622  17.315  0.00  0.00    +0.000 OA
ATOM     24  O   UNL     1       2.827   3.984  19.416  0.00  0.00    +0.000 OA
ENDBRANCH   1  18
BRANCH   7  25
ATOM     25  C   UNL     1      -5.813  10.485  18.074  0.00  0.00    +0.000 C 
BRANCH  25  26
ATOM     26  C   UNL     1      -6.177  11.254  19.308  0.00  0.00    +0.000 A 
ATOM     27  C   UNL     1      -7.012  10.735  20.277  0.00  0.00    +0.000 A 
ATOM     28  N   UNL     1      -7.335  11.381  21.416  0.00  0.00    +0.000 NA
ATOM     29  C   UNL     1      -6.802  12.612  21.588  0.00  0.00    +0.000 A 
ATOM     30  N   UNL     1      -7.110  13.290  22.795  0.00  0.00    +0.000 N 
ATOM     31  C   UNL     1      -7.866  12.823  23.838  0.00  0.00    +0.000 A 
ATOM     32  N   UNL     1      -7.916  13.738  24.779  0.00  0.00    +0.000 NA
ATOM     33  N   UNL     1      -7.175  14.794  24.310  0.00  0.00    +0.000 NA
ATOM     34  N   UNL     1      -6.676  14.534  23.108  0.00  0.00    +0.000 NA
ATOM     35  N   UNL     1      -5.992  13.215  20.691  0.00  0.00    +0.000 NA
ATOM     36  C   UNL     1      -5.691  12.517  19.580  0.00  0.00    +0.000 A 
ENDBRANCH  25  26
ENDBRANCH   7  25
TORSDOF 3
ENDMDL
MODEL 5
REMARK VINA RESULT:      -7.7      2.719      4.772
REMARK  Name = 
REMARK  4 active torsions:
REMARK  status: ('A' for Active; 'I' for Inactive)
REMARK    1  A    between atoms: C_1  and  C_2
REMARK    2  A    between atoms: C_6  and  C_7
REMARK    3  A    between atoms: C_13  and  C_15
REMARK    4  A    between atoms: C_15  and  C_16
REMARK                            x       y       z     vdW  Elec       q    Type
REMARK                         _______ _______ _______ _____ _____    ______ ____
ROOT
ATOM      1  C   UNL     1       0.662   9.639  18.816  0.00  0.00    +0.000 C 
ATOM      2  C   UNL     1       0.401  10.629  19.998  0.00  0.00    +0.000 C 
ATOM      3  N   UNL     1       1.420  11.686  20.187  0.00  0.00    +0.000 NA
ATOM      4  C   UNL     1       0.936  12.778  21.073  0.00  0.00    +0.000 C 
ATOM      5  C   UNL     1       2.011  13.873  21.274  0.00  0.00    +0.000 C 
ATOM      6  N   UNL     1       2.568  14.344  19.991  0.00  0.00    +0.000 N 
ATOM      7  C   UNL     1       2.648  15.701  19.729  0.00  0.00    +0.000 C 
ATOM      8  O   UNL     1       2.238  16.548  20.523  0.00  0.00    +0.000 OA
ATOM      9  C   UNL     1       2.960  13.255  19.080  0.00  0.00    +0.000 C 
ATOM     10  C   UNL     1       1.778  12.297  18.877  0.00  0.00    +0.000 C 
ATOM     11  C   UNL     1       2.104  11.245  17.819  0.00  0.00    +0.000 C 
ATOM     12  O   UNL     1       0.964  10.396  17.616  0.00  0.00    +0.000 OA
ENDROOT
BRANCH   1  18
ATOM     13  C   UNL     1       2.406   2.930  21.613  0.00  0.00    +0.000 C 
ATOM     14  C   UNL     1       2.352   3.923  20.456  0.00  0.00    +0.000 C 
ATOM     15  C   UNL     1       1.967   5.310  20.954  0.00  0.00    +0.000 C 
ATOM     16  C   UNL     1       2.207   6.332  19.884  0.00  0.00    +0.000 A 
ATOM     17  C   UNL     1       1.496   7.537  19.880  0.00  0.00    +0.000 A 
ATOM     18  C   UNL     1       1.690   8.516  18.878  0.00  0.00    +0.000 A 
ATOM     19  C   UNL     1       2.709   8.314  17.945  0.00  0.00    +0.000 A 
ATOM     20  C   UNL     1       3.433   7.112  17.950  0.00  0.00    +0.000 A 
ATOM     21  C   UNL     1       3.163   6.108  18.896  0.00  0.00    +0.000 A 
ATOM     22  C   UNL     1       3.901   4.817  18.830  0.00  0.00    +0.000 C 
ATOM     23  O   UNL     1       4.713   4.586  17.948  0.00  0.00    +0.000 OA
ATOM     24  O   UNL     1       3.651   3.930  19.832  0.00  0.00    +0.000 OA
ENDBRANCH   1  18
BRANCH   7  25
ATOM     25  C   UNL     1       3.224  16.155  18.393  0.00  0.00    +0.000 C 
BRANCH  25  26
ATOM     26  C   UNL     1       4.721  16.102  18.363  0.00  0.00    +0.000 A 
ATOM     27  C   UNL     1       5.503  17.088  18.929  0.00  0.00    +0.000 A 
ATOM     28  N   UNL     1       6.851  17.058  18.953  0.00  0.00    +0.000 NA
ATOM     29  C   UNL     1       7.445  15.991  18.372  0.00  0.00    +0.000 A 
ATOM     30  N   UNL     1       8.862  15.933  18.416  0.00  0.00    +0.000 N 
ATOM     31  C   UNL     1       9.709  16.825  19.018  0.00  0.00    +0.000 A 
ATOM     32  N   UNL     1      10.948  16.425  18.850  0.00  0.00    +0.000 NA
ATOM     33  N   UNL     1      10.867  15.259  18.129  0.00  0.00    +0.000 NA
ATOM     34  N   UNL     1       9.605  14.946  17.862  0.00  0.00    +0.000 NA
ATOM     35  N   UNL     1       6.770  14.986  17.773  0.00  0.00    +0.000 NA
ATOM     36  C   UNL     1       5.426  15.060  17.793  0.00  0.00    +0.000 A 
ENDBRANCH  25  26
ENDBRANCH   7  25
TORSDOF 3
ENDMDL
MODEL 6
REMARK VINA RESULT:      -7.7      3.473      5.807
REMARK  Name = 
REMARK  4 active torsions:
REMARK  status: ('A' for Active; 'I' for Inactive)
REMARK    1  A    between atoms: C_1  and  C_2
REMARK    2  A    between atoms: C_6  and  C_7
REMARK    3  A    between atoms: C_13  and  C_15
REMARK    4  A    between atoms: C_15  and  C_16
REMARK                            x       y       z     vdW  Elec       q    Type
REMARK                         _______ _______ _______ _____ _____    ______ ____
ROOT
ATOM      1  C   UNL     1       0.005  11.510  19.700  0.00  0.00    +0.000 C 
ATOM      2  C   UNL     1       0.264  12.526  20.860  0.00  0.00    +0.000 C 
ATOM      3  N   UNL     1       1.633  13.083  20.932  0.00  0.00    +0.000 NA
ATOM      4  C   UNL     1       1.705  14.282  21.809  0.00  0.00    +0.000 C 
ATOM      5  C   UNL     1       3.142  14.851  21.887  0.00  0.00    +0.000 C 
ATOM      6  N   UNL     1       3.732  15.050  20.550  0.00  0.00    +0.000 N 
ATOM      7  C   UNL     1       4.329  16.258  20.231  0.00  0.00    +0.000 C 
ATOM      8  O   UNL     1       4.363  17.201  21.020  0.00  0.00    +0.000 OA
ATOM      9  C   UNL     1       3.576  13.891  19.654  0.00  0.00    +0.000 C 
ATOM     10  C   UNL     1       2.097  13.491  19.577  0.00  0.00    +0.000 C 
ATOM     11  C   UNL     1       1.883  12.391  18.538  0.00  0.00    +0.000 C 
ATOM     12  O   UNL     1       0.484  12.074  18.453  0.00  0.00    +0.000 OA
ENDROOT
BRANCH   1  18
ATOM     13  C   UNL     1       4.609   6.430  16.721  0.00  0.00    +0.000 C 
ATOM     14  C   UNL     1       3.948   7.090  17.928  0.00  0.00    +0.000 C 
ATOM     15  C   UNL     1       2.840   8.037  17.483  0.00  0.00    +0.000 C 
ATOM     16  C   UNL     1       2.004   8.447  18.657  0.00  0.00    +0.000 A 
ATOM     17  C   UNL     1       1.285   9.647  18.633  0.00  0.00    +0.000 A 
ATOM     18  C   UNL     1       0.496  10.067  19.729  0.00  0.00    +0.000 A 
ATOM     19  C   UNL     1       0.343   9.194  20.808  0.00  0.00    +0.000 A 
ATOM     20  C   UNL     1       1.052   7.983  20.833  0.00  0.00    +0.000 A 
ATOM     21  C   UNL     1       1.907   7.623  19.776  0.00  0.00    +0.000 A 
ATOM     22  C   UNL     1       2.700   6.366  19.866  0.00  0.00    +0.000 C 
ATOM     23  O   UNL     1       2.659   5.652  20.856  0.00  0.00    +0.000 OA
ATOM     24  O   UNL     1       3.434   6.039  18.768  0.00  0.00    +0.000 OA
ENDBRANCH   1  18
BRANCH   7  25
ATOM     25  C   UNL     1       4.925  16.434  18.839  0.00  0.00    +0.000 C 
BRANCH  25  26
ATOM     26  C   UNL     1       6.232  15.717  18.677  0.00  0.00    +0.000 A 
ATOM     27  C   UNL     1       7.318  15.978  19.487  0.00  0.00    +0.000 A 
ATOM     28  N   UNL     1       8.498  15.331  19.395  0.00  0.00    +0.000 NA
ATOM     29  C   UNL     1       8.596  14.381  18.437  0.00  0.00    +0.000 A 
ATOM     30  N   UNL     1       9.822  13.673  18.350  0.00  0.00    +0.000 N 
ATOM     31  C   UNL     1      10.920  13.814  19.156  0.00  0.00    +0.000 A 
ATOM     32  N   UNL     1      11.854  12.978  18.764  0.00  0.00    +0.000 NA
ATOM     33  N   UNL     1      11.322  12.302  17.694  0.00  0.00    +0.000 NA
ATOM     34  N   UNL     1      10.087  12.712  17.434  0.00  0.00    +0.000 NA
ATOM     35  N   UNL     1       7.599  14.067  17.582  0.00  0.00    +0.000 NA
ATOM     36  C   UNL     1       6.439  14.734  17.730  0.00  0.00    +0.000 A 
ENDBRANCH  25  26
ENDBRANCH   7  25
TORSDOF 3
ENDMDL
MODEL 7
REMARK VINA RESULT:      -7.7      2.665      4.648
REMARK  Name = 
REMARK  4 active torsions:
REMARK  status: ('A' for Active; 'I' for Inactive)
REMARK    1  A    between atoms: C_1  and  C_2
REMARK    2  A    between atoms: C_6  and  C_7
REMARK    3  A    between atoms: C_13  and  C_15
REMARK    4  A    between atoms: C_15  and  C_16
REMARK                            x       y       z     vdW  Elec       q    Type
REMARK                         _______ _______ _______ _____ _____    ______ ____
ROOT
ATOM      1  C   UNL     1       0.783   9.334  18.629  0.00  0.00    +0.000 C 
ATOM      2  C   UNL     1       0.413  10.320  19.785  0.00  0.00    +0.000 C 
ATOM      3  N   UNL     1       1.376  11.418  20.025  0.00  0.00    +0.000 NA
ATOM      4  C   UNL     1       0.797  12.494  20.871  0.00  0.00    +0.000 C 
ATOM      5  C   UNL     1       1.814  13.633  21.127  0.00  0.00    +0.000 C 
ATOM      6  N   UNL     1       2.428  14.118  19.876  0.00  0.00    +0.000 N 
ATOM      7  C   UNL     1       2.470  15.475  19.608  0.00  0.00    +0.000 C 
ATOM      8  O   UNL     1       1.981  16.310  20.369  0.00  0.00    +0.000 OA
ATOM      9  C   UNL     1       2.916  13.040  18.999  0.00  0.00    +0.000 C 
ATOM     10  C   UNL     1       1.788  12.035  18.734  0.00  0.00    +0.000 C 
ATOM     11  C   UNL     1       2.218  10.990  17.706  0.00  0.00    +0.000 C 
ATOM     12  O   UNL     1       1.126  10.095  17.443  0.00  0.00    +0.000 OA
ENDROOT
BRANCH   1  18
ATOM     13  C   UNL     1       2.619   2.717  21.581  0.00  0.00    +0.000 C 
ATOM     14  C   UNL     1       2.595   3.699  20.414  0.00  0.00    +0.000 C 
ATOM     15  C   UNL     1       2.127   5.073  20.877  0.00  0.00    +0.000 C 
ATOM     16  C   UNL     1       2.390   6.097  19.815  0.00  0.00    +0.000 A 
ATOM     17  C   UNL     1       1.633   7.273  19.758  0.00  0.00    +0.000 A 
ATOM     18  C   UNL     1       1.849   8.253  18.762  0.00  0.00    +0.000 A 
ATOM     19  C   UNL     1       2.928   8.086  17.892  0.00  0.00    +0.000 A 
ATOM     20  C   UNL     1       3.698   6.914  17.950  0.00  0.00    +0.000 A 
ATOM     21  C   UNL     1       3.412   5.906  18.887  0.00  0.00    +0.000 A 
ATOM     22  C   UNL     1       4.202   4.644  18.876  0.00  0.00    +0.000 C 
ATOM     23  O   UNL     1       5.074   4.441  18.045  0.00  0.00    +0.000 OA
ATOM     24  O   UNL     1       3.928   3.755  19.868  0.00  0.00    +0.000 OA
ENDBRANCH   1  18
BRANCH   7  25
ATOM     25  C   UNL     1       3.107  15.944  18.305  0.00  0.00    +0.000 C 
BRANCH  25  26
ATOM     26  C   UNL     1       4.603  15.982  18.375  0.00  0.00    +0.000 A 
ATOM     27  C   UNL     1       5.389  14.982  17.840  0.00  0.00    +0.000 A 
ATOM     28  N   UNL     1       6.738  14.996  17.854  0.00  0.00    +0.000 NA
ATOM     29  C   UNL     1       7.327  16.062  18.441  0.00  0.00    +0.000 A 
ATOM     30  N   UNL     1       8.745  16.104  18.435  0.00  0.00    +0.000 N 
ATOM     31  C   UNL     1       9.598  15.197  17.865  0.00  0.00    +0.000 A 
ATOM     32  N   UNL     1      10.837  15.585  18.064  0.00  0.00    +0.000 NA
ATOM     33  N   UNL     1      10.750  16.759  18.771  0.00  0.00    +0.000 NA
ATOM     34  N   UNL     1       9.485  17.088  18.999  0.00  0.00    +0.000 NA
ATOM     35  N   UNL     1       6.648  17.081  19.011  0.00  0.00    +0.000 NA
ATOM     36  C   UNL     1       5.304  17.021  18.954  0.00  0.00    +0.000 A 
ENDBRANCH  25  26
ENDBRANCH   7  25
TORSDOF 3
ENDMDL
MODEL 8
REMARK VINA RESULT:      -7.7      5.892      9.385
REMARK  Name = 
REMARK  4 active torsions:
REMARK  status: ('A' for Active; 'I' for Inactive)
REMARK    1  A    between atoms: C_1  and  C_2
REMARK    2  A    between atoms: C_6  and  C_7
REMARK    3  A    between atoms: C_13  and  C_15
REMARK    4  A    between atoms: C_15  and  C_16
REMARK                            x       y       z     vdW  Elec       q    Type
REMARK                         _______ _______ _______ _____ _____    ______ ____
ROOT
ATOM      1  C   UNL     1       5.132  16.316  19.051  0.00  0.00    +0.000 C 
ATOM      2  C   UNL     1       4.159  15.465  18.172  0.00  0.00    +0.000 C 
ATOM      3  N   UNL     1       3.463  14.361  18.870  0.00  0.00    +0.000 NA
ATOM      4  C   UNL     1       2.314  13.839  18.084  0.00  0.00    +0.000 C 
ATOM      5  C   UNL     1       1.599  12.677  18.816  0.00  0.00    +0.000 C 
ATOM      6  N   UNL     1       1.264  13.025  20.210  0.00  0.00    +0.000 N 
ATOM      7  C   UNL     1      -0.018  12.806  20.688  0.00  0.00    +0.000 C 
ATOM      8  O   UNL     1      -0.914  12.353  19.977  0.00  0.00    +0.000 OA
ATOM      9  C   UNL     1       2.382  13.628  20.956  0.00  0.00    +0.000 C 
ATOM     10  C   UNL     1       2.933  14.831  20.180  0.00  0.00    +0.000 C 
ATOM     11  C   UNL     1       3.991  15.569  20.999  0.00  0.00    +0.000 C 
ATOM     12  O   UNL     1       4.452  16.717  20.268  0.00  0.00    +0.000 OA
ENDROOT
BRANCH   1  18
ATOM     13  C   UNL     1      10.891  11.791  17.554  0.00  0.00    +0.000 C 
ATOM     14  C   UNL     1      10.330  13.142  17.989  0.00  0.00    +0.000 C 
ATOM     15  C   UNL     1       8.829  13.048  18.233  0.00  0.00    +0.000 C 
ATOM     16  C   UNL     1       8.340  14.275  18.941  0.00  0.00    +0.000 A 
ATOM     17  C   UNL     1       7.003  14.673  18.832  0.00  0.00    +0.000 A 
ATOM     18  C   UNL     1       6.513  15.832  19.478  0.00  0.00    +0.000 A 
ATOM     19  C   UNL     1       7.368  16.520  20.341  0.00  0.00    +0.000 A 
ATOM     20  C   UNL     1       8.708  16.120  20.464  0.00  0.00    +0.000 A 
ATOM     21  C   UNL     1       9.203  15.020  19.741  0.00  0.00    +0.000 A 
ATOM     22  C   UNL     1      10.646  14.665  19.838  0.00  0.00    +0.000 C 
ATOM     23  O   UNL     1      11.426  15.330  20.502  0.00  0.00    +0.000 OA
ATOM     24  O   UNL     1      11.033  13.537  19.183  0.00  0.00    +0.000 OA
ENDBRANCH   1  18
BRANCH   7  25
ATOM     25  C   UNL     1      -0.333  13.180  22.131  0.00  0.00    +0.000 C 
BRANCH  25  26
ATOM     26  C   UNL     1      -1.806  13.237  22.402  0.00  0.00    +0.000 A 
ATOM     27  C   UNL     1      -2.464  12.244  23.099  0.00  0.00    +0.000 A 
ATOM     28  N   UNL     1      -3.780  12.277  23.393  0.00  0.00    +0.000 NA
ATOM     29  C   UNL     1      -4.473  13.354  22.958  0.00  0.00    +0.000 A 
ATOM     30  N   UNL     1      -5.852  13.415  23.286  0.00  0.00    +0.000 N 
ATOM     31  C   UNL     1      -6.566  12.516  24.032  0.00  0.00    +0.000 A 
ATOM     32  N   UNL     1      -7.812  12.921  24.121  0.00  0.00    +0.000 NA
ATOM     33  N   UNL     1      -7.871  14.098  23.416  0.00  0.00    +0.000 NA
ATOM     34  N   UNL     1      -6.686  14.411  22.907  0.00  0.00    +0.000 NA
ATOM     35  N   UNL     1      -3.926  14.367  22.251  0.00  0.00    +0.000 NA
ATOM     36  C   UNL     1      -2.605  14.289  22.001  0.00  0.00    +0.000 A 
ENDBRANCH  25  26
ENDBRANCH   7  25
TORSDOF 3
ENDMDL
MODEL 9
REMARK VINA RESULT:      -7.7      3.408      5.847
REMARK  Name = 
REMARK  4 active torsions:
REMARK  status: ('A' for Active; 'I' for Inactive)
REMARK    1  A    between atoms: C_1  and  C_2
REMARK    2  A    between atoms: C_6  and  C_7
REMARK    3  A    between atoms: C_13  and  C_15
REMARK    4  A    between atoms: C_15  and  C_16
REMARK                            x       y       z     vdW  Elec       q    Type
REMARK                         _______ _______ _______ _____ _____    ______ ____
ROOT
ATOM      1  C   UNL     1      -0.115  11.519  19.594  0.00  0.00    +0.000 C 
ATOM      2  C   UNL     1       0.047  12.566  20.743  0.00  0.00    +0.000 C 
ATOM      3  N   UNL     1       1.404  13.133  20.909  0.00  0.00    +0.000 NA
ATOM      4  C   UNL     1       1.401  14.354  21.757  0.00  0.00    +0.000 C 
ATOM      5  C   UNL     1       2.826  14.934  21.934  0.00  0.00    +0.000 C 
ATOM      6  N   UNL     1       3.518  15.102  20.643  0.00  0.00    +0.000 N 
ATOM      7  C   UNL     1       4.133  16.306  20.341  0.00  0.00    +0.000 C 
ATOM      8  O   UNL     1       4.101  17.269  21.106  0.00  0.00    +0.000 OA
ATOM      9  C   UNL     1       3.438  13.920  19.768  0.00  0.00    +0.000 C 
ATOM     10  C   UNL     1       1.971  13.509  19.584  0.00  0.00    +0.000 C 
ATOM     11  C   UNL     1       1.845  12.382  18.561  0.00  0.00    +0.000 C 
ATOM     12  O   UNL     1       0.459  12.054  18.374  0.00  0.00    +0.000 OA
ENDROOT
BRANCH   1  18
ATOM     13  C   UNL     1       4.447   6.276  16.841  0.00  0.00    +0.000 C 
ATOM     14  C   UNL     1       3.804   7.005  18.017  0.00  0.00    +0.000 C 
ATOM     15  C   UNL     1       2.689   7.924  17.536  0.00  0.00    +0.000 C 
ATOM     16  C   UNL     1       1.870   8.401  18.698  0.00  0.00    +0.000 A 
ATOM     17  C   UNL     1       1.150   9.598  18.616  0.00  0.00    +0.000 A 
ATOM     18  C   UNL     1       0.378  10.081  19.698  0.00  0.00    +0.000 A 
ATOM     19  C   UNL     1       0.243   9.271  20.828  0.00  0.00    +0.000 A 
ATOM     20  C   UNL     1       0.955   8.064  20.912  0.00  0.00    +0.000 A 
ATOM     21  C   UNL     1       1.793   7.644  19.864  0.00  0.00    +0.000 A 
ATOM     22  C   UNL     1       2.588   6.395  20.014  0.00  0.00    +0.000 C 
ATOM     23  O   UNL     1       2.565   5.739  21.044  0.00  0.00    +0.000 OA
ATOM     24  O   UNL     1       3.305   6.004  18.926  0.00  0.00    +0.000 OA
ENDBRANCH   1  18
BRANCH   7  25
ATOM     25  C   UNL     1       4.837  16.450  18.996  0.00  0.00    +0.000 C 
BRANCH  25  26
ATOM     26  C   UNL     1       6.121  15.680  18.932  0.00  0.00    +0.000 A 
ATOM     27  C   UNL     1       6.454  14.897  17.846  0.00  0.00    +0.000 A 
ATOM     28  N   UNL     1       7.614  14.217  17.736  0.00  0.00    +0.000 NA
ATOM     29  C   UNL     1       8.478  14.319  18.771  0.00  0.00    +0.000 A 
ATOM     30  N   UNL     1       9.714  13.633  18.655  0.00  0.00    +0.000 N 
ATOM     31  C   UNL     1      10.156  12.898  17.588  0.00  0.00    +0.000 A 
ATOM     32  N   UNL     1      11.352  12.424  17.855  0.00  0.00    +0.000 NA
ATOM     33  N   UNL     1      11.658  12.878  19.114  0.00  0.00    +0.000 NA
ATOM     34  N   UNL     1      10.673  13.616  19.610  0.00  0.00    +0.000 NA
ATOM     35  N   UNL     1       8.236  15.041  19.887  0.00  0.00    +0.000 NA
ATOM     36  C   UNL     1       7.070  15.712  19.935  0.00  0.00    +0.000 A 
ENDBRANCH  25  26
ENDBRANCH   7  25
TORSDOF 3
ENDMDL
