MODEL 1
REMARK VINA RESULT:      -7.4      0.000      0.000
REMARK  Name = 
REMARK  10 active torsions:
REMARK  status: ('A' for Active; 'I' for Inactive)
REMARK    1  A    between atoms: C_1  and  C_2
REMARK    2  A    between atoms: C_2  and  N_3
REMARK    3  A    between atoms: C_11  and  S_12
REMARK    4  A    between atoms: S_12  and  N_15
REMARK    5  A    between atoms: N_15  and  C_16
REMARK    6  A    between atoms: C_16  and  C_17
REMARK    7  A    between atoms: C_16  and  C_20
REMARK    8  A    between atoms: C_17  and  O_19
REMARK    9  A    between atoms: C_20  and  C_21
REMARK   10  A    between atoms: C_20  and  C_22
REMARK                            x       y       z     vdW  Elec       q    Type
REMARK                         _______ _______ _______ _____ _____    ______ ____
ROOT
ATOM      1  N   UNL     1       2.500   3.817  19.681  0.00  0.00    +0.000 N 
ATOM      2  C   UNL     1       1.947   5.020  20.180  0.00  0.00    +0.000 C 
ATOM      3  O   UNL     1       1.197   5.119  21.142  0.00  0.00    +0.000 OA
ATOM      4  C   UNL     1       2.462   6.013  19.259  0.00  0.00    +0.000 A 
ATOM      5  C   UNL     1       2.261   7.388  19.216  0.00  0.00    +0.000 A 
ATOM      6  C   UNL     1       2.840   8.079  18.140  0.00  0.00    +0.000 A 
ATOM      7  C   UNL     1       3.635   7.425  17.178  0.00  0.00    +0.000 A 
ATOM      8  C   UNL     1       3.886   6.032  17.266  0.00  0.00    +0.000 A 
ATOM      9  C   UNL     1       4.694   5.173  16.482  0.00  0.00    +0.000 A 
ATOM     10  C   UNL     1       4.751   3.774  16.732  0.00  0.00    +0.000 A 
ATOM     11  C   UNL     1       4.020   3.181  17.769  0.00  0.00    +0.000 A 
ATOM     12  C   UNL     1       3.289   4.050  18.556  0.00  0.00    +0.000 A 
ATOM     13  C   UNL     1       3.250   5.403  18.296  0.00  0.00    +0.000 A 
ENDROOT
BRANCH   9  14
ATOM     14  S   UNL     1       5.847   5.827  15.315  0.00  0.00    +0.000 S 
ATOM     15  O   UNL     1       6.285   4.739  14.472  0.00  0.00    +0.000 OA
ATOM     16  O   UNL     1       5.237   7.021  14.776  0.00  0.00    +0.000 OA
BRANCH  14  17
ATOM     17  N   UNL     1       7.185   6.304  16.193  0.00  0.00    +0.000 NA
ATOM     18  H   UNL     1       7.858   6.822  15.627  0.00  0.00    +0.000 HD
BRANCH  17  19
ATOM     19  C   UNL     1       7.138   6.682  17.630  0.00  0.00    +0.000 C 
BRANCH  19  20
ATOM     20  C   UNL     1       7.643   5.587  18.600  0.00  0.00    +0.000 C 
ATOM     21  C   UNL     1       6.608   5.269  19.685  0.00  0.00    +0.000 C 
ATOM     22  C   UNL     1       8.036   4.301  17.867  0.00  0.00    +0.000 C 
ENDBRANCH  19  20
BRANCH  19  23
ATOM     23  C   UNL     1       7.803   8.041  17.841  0.00  0.00    +0.000 C 
ATOM     24  O   UNL     1       7.582   9.014  17.131  0.00  0.00    +0.000 OA
BRANCH  23  25
ATOM     25  O   UNL     1       8.696   8.080  18.855  0.00  0.00    +0.000 OA
ATOM     26  H   UNL     1       9.436   8.718  18.718  0.00  0.00    +0.000 HD
ENDBRANCH  23  25
ENDBRANCH  19  23
ENDBRANCH  17  19
ENDBRANCH  14  17
ENDBRANCH   9  14
BRANCH   1  28
ATOM     27  C   UNL     1       0.908   2.004  19.302  0.00  0.00    +0.000 C 
ATOM     28  C   UNL     1       2.075   2.513  20.136  0.00  0.00    +0.000 C 
ENDBRANCH   1  28
TORSDOF 7
ENDMDL
MODEL 2
REMARK VINA RESULT:      -6.9      2.406      3.451
REMARK  Name = 
REMARK  10 active torsions:
REMARK  status: ('A' for Active; 'I' for Inactive)
REMARK    1  A    between atoms: C_1  and  C_2
REMARK    2  A    between atoms: C_2  and  N_3
REMARK    3  A    between atoms: C_11  and  S_12
REMARK    4  A    between atoms: S_12  and  N_15
REMARK    5  A    between atoms: N_15  and  C_16
REMARK    6  A    between atoms: C_16  and  C_17
REMARK    7  A    between atoms: C_16  and  C_20
REMARK    8  A    between atoms: C_17  and  O_19
REMARK    9  A    between atoms: C_20  and  C_21
REMARK   10  A    between atoms: C_20  and  C_22
REMARK                            x       y       z     vdW  Elec       q    Type
REMARK                         _______ _______ _______ _____ _____    ______ ____
ROOT
ATOM      1  N   UNL     1       2.365   3.800  19.537  0.00  0.00    +0.000 N 
ATOM      2  C   UNL     1       1.734   5.039  19.800  0.00  0.00    +0.000 C 
ATOM      3  O   UNL     1       0.751   5.207  20.509  0.00  0.00    +0.000 OA
ATOM      4  C   UNL     1       2.516   5.967  19.007  0.00  0.00    +0.000 A 
ATOM      5  C   UNL     1       2.378   7.341  18.839  0.00  0.00    +0.000 A 
ATOM      6  C   UNL     1       3.254   7.958  17.932  0.00  0.00    +0.000 A 
ATOM      7  C   UNL     1       4.264   7.235  17.265  0.00  0.00    +0.000 A 
ATOM      8  C   UNL     1       4.435   5.846  17.491  0.00  0.00    +0.000 A 
ATOM      9  C   UNL     1       5.401   4.929  17.009  0.00  0.00    +0.000 A 
ATOM     10  C   UNL     1       5.341   3.546  17.337  0.00  0.00    +0.000 A 
ATOM     11  C   UNL     1       4.334   3.027  18.160  0.00  0.00    +0.000 A 
ATOM     12  C   UNL     1       3.442   3.953  18.666  0.00  0.00    +0.000 A 
ATOM     13  C   UNL     1       3.519   5.289  18.336  0.00  0.00    +0.000 A 
ENDROOT
BRANCH   9  14
ATOM     14  S   UNL     1       6.852   5.494  16.177  0.00  0.00    +0.000 S 
ATOM     15  O   UNL     1       7.098   6.855  16.595  0.00  0.00    +0.000 OA
ATOM     16  O   UNL     1       7.838   4.450  16.338  0.00  0.00    +0.000 OA
BRANCH  14  17
ATOM     17  N   UNL     1       6.465   5.567  14.554  0.00  0.00    +0.000 NA
ATOM     18  H   UNL     1       6.092   6.477  14.283  0.00  0.00    +0.000 HD
BRANCH  17  19
ATOM     19  C   UNL     1       7.214   4.845  13.493  0.00  0.00    +0.000 C 
BRANCH  19  20
ATOM     20  C   UNL     1       6.325   4.085  12.480  0.00  0.00    +0.000 C 
ATOM     21  C   UNL     1       7.110   2.995  11.742  0.00  0.00    +0.000 C 
ATOM     22  C   UNL     1       5.087   3.473  13.142  0.00  0.00    +0.000 C 
ENDBRANCH  19  20
BRANCH  19  23
ATOM     23  C   UNL     1       8.231   5.777  12.836  0.00  0.00    +0.000 C 
ATOM     24  O   UNL     1       9.324   6.031  13.327  0.00  0.00    +0.000 OA
BRANCH  23  25
ATOM     25  O   UNL     1       7.814   6.342  11.681  0.00  0.00    +0.000 OA
ATOM     26  H   UNL     1       8.222   5.954  10.871  0.00  0.00    +0.000 HD
ENDBRANCH  23  25
ENDBRANCH  19  23
ENDBRANCH  17  19
ENDBRANCH  14  17
ENDBRANCH   9  14
BRANCH   1  28
ATOM     27  C   UNL     1       0.718   2.101  18.932  0.00  0.00    +0.000 C 
ATOM     28  C   UNL     1       1.789   2.532  19.923  0.00  0.00    +0.000 C 
ENDBRANCH   1  28
TORSDOF 7
ENDMDL
MODEL 3
REMARK VINA RESULT:      -6.9      2.501      3.677
REMARK  Name = 
REMARK  10 active torsions:
REMARK  status: ('A' for Active; 'I' for Inactive)
REMARK    1  A    between atoms: C_1  and  C_2
REMARK    2  A    between atoms: C_2  and  N_3
REMARK    3  A    between atoms: C_11  and  S_12
REMARK    4  A    between atoms: S_12  and  N_15
REMARK    5  A    between atoms: N_15  and  C_16
REMARK    6  A    between atoms: C_16  and  C_17
REMARK    7  A    between atoms: C_16  and  C_20
REMARK    8  A    between atoms: C_17  and  O_19
REMARK    9  A    between atoms: C_20  and  C_21
REMARK   10  A    between atoms: C_20  and  C_22
REMARK                            x       y       z     vdW  Elec       q    Type
REMARK                         _______ _______ _______ _____ _____    ______ ____
ROOT
ATOM      1  N   UNL     1       2.170   4.013  19.748  0.00  0.00    +0.000 N 
ATOM      2  C   UNL     1       1.722   5.330  20.007  0.00  0.00    +0.000 C 
ATOM      3  O   UNL     1       0.883   5.652  20.838  0.00  0.00    +0.000 OA
ATOM      4  C   UNL     1       2.466   6.114  19.041  0.00  0.00    +0.000 A 
ATOM      5  C   UNL     1       2.451   7.482  18.792  0.00  0.00    +0.000 A 
ATOM      6  C   UNL     1       3.237   7.939  17.723  0.00  0.00    +0.000 A 
ATOM      7  C   UNL     1       4.049   7.066  16.971  0.00  0.00    +0.000 A 
ATOM      8  C   UNL     1       4.105   5.682  17.273  0.00  0.00    +0.000 A 
ATOM      9  C   UNL     1       4.882   4.633  16.724  0.00  0.00    +0.000 A 
ATOM     10  C   UNL     1       4.727   3.288  17.160  0.00  0.00    +0.000 A 
ATOM     11  C   UNL     1       3.809   2.938  18.159  0.00  0.00    +0.000 A 
ATOM     12  C   UNL     1       3.110   3.990  18.719  0.00  0.00    +0.000 A 
ATOM     13  C   UNL     1       3.276   5.285  18.282  0.00  0.00    +0.000 A 
ENDROOT
BRANCH   9  14
ATOM     14  S   UNL     1       6.239   4.977  15.648  0.00  0.00    +0.000 S 
ATOM     15  O   UNL     1       6.349   6.411  15.522  0.00  0.00    +0.000 OA
ATOM     16  O   UNL     1       7.336   4.158  16.113  0.00  0.00    +0.000 OA
BRANCH  14  17
ATOM     17  N   UNL     1       5.799   4.409  14.141  0.00  0.00    +0.000 NA
ATOM     18  H   UNL     1       4.928   4.824  13.807  0.00  0.00    +0.000 HD
BRANCH  17  19
ATOM     19  C   UNL     1       6.772   4.036  13.082  0.00  0.00    +0.000 C 
BRANCH  19  20
ATOM     20  C   UNL     1       6.146   3.353  11.842  0.00  0.00    +0.000 C 
ATOM     21  C   UNL     1       6.712   1.947  11.623  0.00  0.00    +0.000 C 
ATOM     22  C   UNL     1       4.619   3.290  11.927  0.00  0.00    +0.000 C 
ENDBRANCH  19  20
BRANCH  19  23
ATOM     23  C   UNL     1       7.663   5.229  12.739  0.00  0.00    +0.000 C 
ATOM     24  O   UNL     1       7.654   5.781  11.645  0.00  0.00    +0.000 OA
BRANCH  23  25
ATOM     25  O   UNL     1       8.503   5.609  13.728  0.00  0.00    +0.000 OA
ATOM     26  H   UNL     1       8.227   5.314  14.628  0.00  0.00    +0.000 HD
ENDBRANCH  23  25
ENDBRANCH  19  23
ENDBRANCH  17  19
ENDBRANCH  14  17
ENDBRANCH   9  14
BRANCH   1  28
ATOM     27  C   UNL     1       2.166   2.466  21.638  0.00  0.00    +0.000 C 
ATOM     28  C   UNL     1       1.529   2.845  20.309  0.00  0.00    +0.000 C 
ENDBRANCH   1  28
TORSDOF 7
ENDMDL
MODEL 4
REMARK VINA RESULT:      -6.7      2.611      4.129
REMARK  Name = 
REMARK  10 active torsions:
REMARK  status: ('A' for Active; 'I' for Inactive)
REMARK    1  A    between atoms: C_1  and  C_2
REMARK    2  A    between atoms: C_2  and  N_3
REMARK    3  A    between atoms: C_11  and  S_12
REMARK    4  A    between atoms: S_12  and  N_15
REMARK    5  A    between atoms: N_15  and  C_16
REMARK    6  A    between atoms: C_16  and  C_17
REMARK    7  A    between atoms: C_16  and  C_20
REMARK    8  A    between atoms: C_17  and  O_19
REMARK    9  A    between atoms: C_20  and  C_21
REMARK   10  A    between atoms: C_20  and  C_22
REMARK                            x       y       z     vdW  Elec       q    Type
REMARK                         _______ _______ _______ _____ _____    ______ ____
ROOT
ATOM      1  N   UNL     1       1.095   8.006  20.701  0.00  0.00    +0.000 N 
ATOM      2  C   UNL     1       1.395   8.945  19.685  0.00  0.00    +0.000 C 
ATOM      3  O   UNL     1       0.990  10.099  19.635  0.00  0.00    +0.000 OA
ATOM      4  C   UNL     1       2.224   8.178  18.777  0.00  0.00    +0.000 A 
ATOM      5  C   UNL     1       2.820   8.547  17.577  0.00  0.00    +0.000 A 
ATOM      6  C   UNL     1       3.509   7.544  16.877  0.00  0.00    +0.000 A 
ATOM      7  C   UNL     1       3.640   6.237  17.389  0.00  0.00    +0.000 A 
ATOM      8  C   UNL     1       3.081   5.887  18.644  0.00  0.00    +0.000 A 
ATOM      9  C   UNL     1       3.137   4.687  19.394  0.00  0.00    +0.000 A 
ATOM     10  C   UNL     1       2.441   4.549  20.628  0.00  0.00    +0.000 A 
ATOM     11  C   UNL     1       1.678   5.594  21.164  0.00  0.00    +0.000 A 
ATOM     12  C   UNL     1       1.692   6.773  20.443  0.00  0.00    +0.000 A 
ATOM     13  C   UNL     1       2.373   6.885  19.251  0.00  0.00    +0.000 A 
ENDROOT
BRANCH   9  14
ATOM     14  S   UNL     1       4.258   3.395  18.956  0.00  0.00    +0.000 S 
ATOM     15  O   UNL     1       4.219   2.404  20.007  0.00  0.00    +0.000 OA
ATOM     16  O   UNL     1       3.971   3.067  17.579  0.00  0.00    +0.000 OA
BRANCH  14  17
ATOM     17  N   UNL     1       5.787   4.063  19.001  0.00  0.00    +0.000 NA
ATOM     18  H   UNL     1       6.490   3.406  19.341  0.00  0.00    +0.000 HD
BRANCH  17  19
ATOM     19  C   UNL     1       6.277   5.070  18.024  0.00  0.00    +0.000 C 
BRANCH  19  20
ATOM     20  C   UNL     1       7.027   6.268  18.654  0.00  0.00    +0.000 C 
ATOM     21  C   UNL     1       8.156   5.807  19.582  0.00  0.00    +0.000 C 
ATOM     22  C   UNL     1       7.585   7.223  17.595  0.00  0.00    +0.000 C 
ENDBRANCH  19  20
BRANCH  19  23
ATOM     23  C   UNL     1       7.054   4.384  16.902  0.00  0.00    +0.000 C 
ATOM     24  O   UNL     1       8.245   4.107  16.982  0.00  0.00    +0.000 OA
BRANCH  23  25
ATOM     25  O   UNL     1       6.333   4.140  15.784  0.00  0.00    +0.000 OA
ATOM     26  H   UNL     1       6.013   3.210  15.705  0.00  0.00    +0.000 HD
ENDBRANCH  23  25
ENDBRANCH  19  23
ENDBRANCH  17  19
ENDBRANCH  14  17
ENDBRANCH   9  14
BRANCH   1  28
ATOM     27  C   UNL     1       0.588   9.256  22.736  0.00  0.00    +0.000 C 
ATOM     28  C   UNL     1       0.093   8.243  21.714  0.00  0.00    +0.000 C 
ENDBRANCH   1  28
TORSDOF 7
ENDMDL
MODEL 5
REMARK VINA RESULT:      -6.6      2.416      3.493
REMARK  Name = 
REMARK  10 active torsions:
REMARK  status: ('A' for Active; 'I' for Inactive)
REMARK    1  A    between atoms: C_1  and  C_2
REMARK    2  A    between atoms: C_2  and  N_3
REMARK    3  A    between atoms: C_11  and  S_12
REMARK    4  A    between atoms: S_12  and  N_15
REMARK    5  A    between atoms: N_15  and  C_16
REMARK    6  A    between atoms: C_16  and  C_17
REMARK    7  A    between atoms: C_16  and  C_20
REMARK    8  A    between atoms: C_17  and  O_19
REMARK    9  A    between atoms: C_20  and  C_21
REMARK   10  A    between atoms: C_20  and  C_22
REMARK                            x       y       z     vdW  Elec       q    Type
REMARK                         _______ _______ _______ _____ _____    ______ ____
ROOT
ATOM      1  N   UNL     1       2.601   4.331  20.152  0.00  0.00    +0.000 N 
ATOM      2  C   UNL     1       1.938   5.581  20.189  0.00  0.00    +0.000 C 
ATOM      3  O   UNL     1       0.991   5.869  20.909  0.00  0.00    +0.000 OA
ATOM      4  C   UNL     1       2.635   6.340  19.171  0.00  0.00    +0.000 A 
ATOM      5  C   UNL     1       2.434   7.642  18.727  0.00  0.00    +0.000 A 
ATOM      6  C   UNL     1       3.232   8.076  17.656  0.00  0.00    +0.000 A 
ATOM      7  C   UNL     1       4.229   7.255  17.092  0.00  0.00    +0.000 A 
ATOM      8  C   UNL     1       4.468   5.950  17.593  0.00  0.00    +0.000 A 
ATOM      9  C   UNL     1       5.440   4.978  17.253  0.00  0.00    +0.000 A 
ATOM     10  C   UNL     1       5.454   3.695  17.867  0.00  0.00    +0.000 A 
ATOM     11  C   UNL     1       4.516   3.336  18.844  0.00  0.00    +0.000 A 
ATOM     12  C   UNL     1       3.619   4.325  19.201  0.00  0.00    +0.000 A 
ATOM     13  C   UNL     1       3.624   5.561  18.593  0.00  0.00    +0.000 A 
ENDROOT
BRANCH   9  14
ATOM     14  S   UNL     1       6.818   5.392  16.228  0.00  0.00    +0.000 S 
ATOM     15  O   UNL     1       7.084   6.802  16.398  0.00  0.00    +0.000 OA
ATOM     16  O   UNL     1       7.821   4.384  16.480  0.00  0.00    +0.000 OA
BRANCH  14  17
ATOM     17  N   UNL     1       6.305   5.201  14.651  0.00  0.00    +0.000 NA
ATOM     18  H   UNL     1       5.850   6.037  14.285  0.00  0.00    +0.000 HD
BRANCH  17  19
ATOM     19  C   UNL     1       7.020   4.373  13.645  0.00  0.00    +0.000 C 
BRANCH  19  20
ATOM     20  C   UNL     1       6.144   3.303  12.950  0.00  0.00    +0.000 C 
ATOM     21  C   UNL     1       4.851   3.904  12.390  0.00  0.00    +0.000 C 
ATOM     22  C   UNL     1       6.900   2.571  11.838  0.00  0.00    +0.000 C 
ENDBRANCH  19  20
BRANCH  19  23
ATOM     23  C   UNL     1       7.780   5.269  12.668  0.00  0.00    +0.000 C 
ATOM     24  O   UNL     1       7.546   5.303  11.466  0.00  0.00    +0.000 OA
BRANCH  23  25
ATOM     25  O   UNL     1       8.772   5.999  13.228  0.00  0.00    +0.000 OA
ATOM     26  H   UNL     1       9.137   5.614  14.060  0.00  0.00    +0.000 HD
ENDBRANCH  23  25
ENDBRANCH  19  23
ENDBRANCH  17  19
ENDBRANCH  14  17
ENDBRANCH   9  14
BRANCH   1  28
ATOM     27  C   UNL     1       1.102   2.414  19.958  0.00  0.00    +0.000 C 
ATOM     28  C   UNL     1       2.099   3.159  20.832  0.00  0.00    +0.000 C 
ENDBRANCH   1  28
TORSDOF 7
ENDMDL
MODEL 6
REMARK VINA RESULT:      -6.5      2.762      4.526
REMARK  Name = 
REMARK  10 active torsions:
REMARK  status: ('A' for Active; 'I' for Inactive)
REMARK    1  A    between atoms: C_1  and  C_2
REMARK    2  A    between atoms: C_2  and  N_3
REMARK    3  A    between atoms: C_11  and  S_12
REMARK    4  A    between atoms: S_12  and  N_15
REMARK    5  A    between atoms: N_15  and  C_16
REMARK    6  A    between atoms: C_16  and  C_17
REMARK    7  A    between atoms: C_16  and  C_20
REMARK    8  A    between atoms: C_17  and  O_19
REMARK    9  A    between atoms: C_20  and  C_21
REMARK   10  A    between atoms: C_20  and  C_22
REMARK                            x       y       z     vdW  Elec       q    Type
REMARK                         _______ _______ _______ _____ _____    ______ ____
ROOT
ATOM      1  N   UNL     1       2.483   7.298  18.992  0.00  0.00    +0.000 N 
ATOM      2  C   UNL     1       2.101   6.344  19.966  0.00  0.00    +0.000 C 
ATOM      3  O   UNL     1       1.262   6.511  20.841  0.00  0.00    +0.000 OA
ATOM      4  C   UNL     1       2.962   5.219  19.663  0.00  0.00    +0.000 A 
ATOM      5  C   UNL     1       3.069   3.978  20.283  0.00  0.00    +0.000 A 
ATOM      6  C   UNL     1       4.065   3.115  19.802  0.00  0.00    +0.000 A 
ATOM      7  C   UNL     1       4.884   3.460  18.707  0.00  0.00    +0.000 A 
ATOM      8  C   UNL     1       4.725   4.703  18.043  0.00  0.00    +0.000 A 
ATOM      9  C   UNL     1       5.360   5.242  16.897  0.00  0.00    +0.000 A 
ATOM     10  C   UNL     1       5.069   6.556  16.437  0.00  0.00    +0.000 A 
ATOM     11  C   UNL     1       4.134   7.374  17.085  0.00  0.00    +0.000 A 
ATOM     12  C   UNL     1       3.486   6.800  18.161  0.00  0.00    +0.000 A 
ATOM     13  C   UNL     1       3.783   5.525  18.590  0.00  0.00    +0.000 A 
ENDROOT
BRANCH   9  14
ATOM     14  S   UNL     1       6.361   4.229  15.854  0.00  0.00    +0.000 S 
ATOM     15  O   UNL     1       7.738   4.422  16.245  0.00  0.00    +0.000 OA
ATOM     16  O   UNL     1       5.739   2.925  15.845  0.00  0.00    +0.000 OA
BRANCH  14  17
ATOM     17  N   UNL     1       6.221   4.858  14.314  0.00  0.00    +0.000 NA
ATOM     18  H   UNL     1       5.940   5.839  14.317  0.00  0.00    +0.000 HD
BRANCH  17  19
ATOM     19  C   UNL     1       7.078   4.446  13.172  0.00  0.00    +0.000 C 
BRANCH  19  20
ATOM     20  C   UNL     1       6.316   3.786  11.998  0.00  0.00    +0.000 C 
ATOM     21  C   UNL     1       7.035   2.534  11.487  0.00  0.00    +0.000 C 
ATOM     22  C   UNL     1       4.872   3.438  12.371  0.00  0.00    +0.000 C 
ENDBRANCH  19  20
BRANCH  19  23
ATOM     23  C   UNL     1       7.979   5.604  12.743  0.00  0.00    +0.000 C 
ATOM     24  O   UNL     1       7.887   6.157  11.654  0.00  0.00    +0.000 OA
BRANCH  23  25
ATOM     25  O   UNL     1       8.924   5.948  13.647  0.00  0.00    +0.000 OA
ATOM     26  H   UNL     1       8.583   6.478  14.406  0.00  0.00    +0.000 HD
ENDBRANCH  23  25
ENDBRANCH  19  23
ENDBRANCH  17  19
ENDBRANCH  14  17
ENDBRANCH   9  14
BRANCH   1  28
ATOM     27  C   UNL     1       1.230   9.034  17.819  0.00  0.00    +0.000 C 
ATOM     28  C   UNL     1       2.062   8.679  19.043  0.00  0.00    +0.000 C 
ENDBRANCH   1  28
TORSDOF 7
ENDMDL
MODEL 7
REMARK VINA RESULT:      -6.5      4.568      6.777
REMARK  Name = 
REMARK  10 active torsions:
REMARK  status: ('A' for Active; 'I' for Inactive)
REMARK    1  A    between atoms: C_1  and  C_2
REMARK    2  A    between atoms: C_2  and  N_3
REMARK    3  A    between atoms: C_11  and  S_12
REMARK    4  A    between atoms: S_12  and  N_15
REMARK    5  A    between atoms: N_15  and  C_16
REMARK    6  A    between atoms: C_16  and  C_17
REMARK    7  A    between atoms: C_16  and  C_20
REMARK    8  A    between atoms: C_17  and  O_19
REMARK    9  A    between atoms: C_20  and  C_21
REMARK   10  A    between atoms: C_20  and  C_22
REMARK                            x       y       z     vdW  Elec       q    Type
REMARK                         _______ _______ _______ _____ _____    ______ ____
ROOT
ATOM      1  N   UNL     1       2.623   4.605  20.396  0.00  0.00    +0.000 N 
ATOM      2  C   UNL     1       3.506   4.180  19.376  0.00  0.00    +0.000 C 
ATOM      3  O   UNL     1       4.045   3.084  19.306  0.00  0.00    +0.000 OA
ATOM      4  C   UNL     1       3.602   5.353  18.530  0.00  0.00    +0.000 A 
ATOM      5  C   UNL     1       4.335   5.563  17.367  0.00  0.00    +0.000 A 
ATOM      6  C   UNL     1       4.283   6.851  16.811  0.00  0.00    +0.000 A 
ATOM      7  C   UNL     1       3.483   7.869  17.367  0.00  0.00    +0.000 A 
ATOM      8  C   UNL     1       2.690   7.626  18.517  0.00  0.00    +0.000 A 
ATOM      9  C   UNL     1       1.765   8.445  19.209  0.00  0.00    +0.000 A 
ATOM     10  C   UNL     1       1.115   7.995  20.392  0.00  0.00    +0.000 A 
ATOM     11  C   UNL     1       1.349   6.720  20.922  0.00  0.00    +0.000 A 
ATOM     12  C   UNL     1       2.208   5.920  20.193  0.00  0.00    +0.000 A 
ATOM     13  C   UNL     1       2.827   6.376  19.049  0.00  0.00    +0.000 A 
ENDROOT
BRANCH   9  14
ATOM     14  S   UNL     1       1.197   9.964  18.510  0.00  0.00    +0.000 S 
ATOM     15  O   UNL     1       2.351  10.677  18.013  0.00  0.00    +0.000 OA
ATOM     16  O   UNL     1       0.080   9.621  17.661  0.00  0.00    +0.000 OA
BRANCH  14  17
ATOM     17  N   UNL     1       0.599  10.870  19.778  0.00  0.00    +0.000 NA
ATOM     18  H   UNL     1       1.340  11.267  20.357  0.00  0.00    +0.000 HD
BRANCH  17  19
ATOM     19  C   UNL     1      -0.648  11.674  19.702  0.00  0.00    +0.000 C 
BRANCH  19  20
ATOM     20  C   UNL     1      -1.119  12.263  21.054  0.00  0.00    +0.000 C 
ATOM     21  C   UNL     1      -2.594  12.674  21.011  0.00  0.00    +0.000 C 
ATOM     22  C   UNL     1      -0.885  11.296  22.218  0.00  0.00    +0.000 C 
ENDBRANCH  19  20
BRANCH  19  23
ATOM     23  C   UNL     1      -0.541  12.712  18.587  0.00  0.00    +0.000 C 
ATOM     24  O   UNL     1       0.163  13.712  18.665  0.00  0.00    +0.000 OA
BRANCH  23  25
ATOM     25  O   UNL     1      -1.324  12.468  17.511  0.00  0.00    +0.000 OA
ATOM     26  H   UNL     1      -1.141  11.606  17.066  0.00  0.00    +0.000 HD
ENDBRANCH  23  25
ENDBRANCH  19  23
ENDBRANCH  17  19
ENDBRANCH  14  17
ENDBRANCH   9  14
BRANCH   1  28
ATOM     27  C   UNL     1       1.292   2.831  21.418  0.00  0.00    +0.000 C 
ATOM     28  C   UNL     1       2.407   3.849  21.608  0.00  0.00    +0.000 C 
ENDBRANCH   1  28
TORSDOF 7
ENDMDL
MODEL 8
REMARK VINA RESULT:      -6.5      2.165      3.462
REMARK  Name = 
REMARK  10 active torsions:
REMARK  status: ('A' for Active; 'I' for Inactive)
REMARK    1  A    between atoms: C_1  and  C_2
REMARK    2  A    between atoms: C_2  and  N_3
REMARK    3  A    between atoms: C_11  and  S_12
REMARK    4  A    between atoms: S_12  and  N_15
REMARK    5  A    between atoms: N_15  and  C_16
REMARK    6  A    between atoms: C_16  and  C_17
REMARK    7  A    between atoms: C_16  and  C_20
REMARK    8  A    between atoms: C_17  and  O_19
REMARK    9  A    between atoms: C_20  and  C_21
REMARK   10  A    between atoms: C_20  and  C_22
REMARK                            x       y       z     vdW  Elec       q    Type
REMARK                         _______ _______ _______ _____ _____    ______ ____
ROOT
ATOM      1  N   UNL     1       2.615   4.965  20.686  0.00  0.00    +0.000 N 
ATOM      2  C   UNL     1       1.813   6.112  20.478  0.00  0.00    +0.000 C 
ATOM      3  O   UNL     1       0.801   6.402  21.101  0.00  0.00    +0.000 OA
ATOM      4  C   UNL     1       2.476   6.766  19.367  0.00  0.00    +0.000 A 
ATOM      5  C   UNL     1       2.154   7.938  18.693  0.00  0.00    +0.000 A 
ATOM      6  C   UNL     1       2.956   8.276  17.592  0.00  0.00    +0.000 A 
ATOM      7  C   UNL     1       4.070   7.498  17.218  0.00  0.00    +0.000 A 
ATOM      8  C   UNL     1       4.427   6.338  17.950  0.00  0.00    +0.000 A 
ATOM      9  C   UNL     1       5.521   5.447  17.821  0.00  0.00    +0.000 A 
ATOM     10  C   UNL     1       5.646   4.299  18.653  0.00  0.00    +0.000 A 
ATOM     11  C   UNL     1       4.702   4.001  19.643  0.00  0.00    +0.000 A 
ATOM     12  C   UNL     1       3.680   4.920  19.788  0.00  0.00    +0.000 A 
ATOM     13  C   UNL     1       3.578   6.025  18.972  0.00  0.00    +0.000 A 
ENDROOT
BRANCH   9  14
ATOM     14  S   UNL     1       6.898   5.844  16.790  0.00  0.00    +0.000 S 
ATOM     15  O   UNL     1       7.368   7.156  17.169  0.00  0.00    +0.000 OA
ATOM     16  O   UNL     1       7.759   4.684  16.807  0.00  0.00    +0.000 OA
BRANCH  14  17
ATOM     17  N   UNL     1       6.297   5.993  15.240  0.00  0.00    +0.000 NA
ATOM     18  H   UNL     1       6.717   6.772  14.732  0.00  0.00    +0.000 HD
BRANCH  17  19
ATOM     19  C   UNL     1       5.877   4.840  14.402  0.00  0.00    +0.000 C 
BRANCH  19  20
ATOM     20  C   UNL     1       6.983   4.280  13.475  0.00  0.00    +0.000 C 
ATOM     21  C   UNL     1       6.393   3.527  12.279  0.00  0.00    +0.000 C 
ATOM     22  C   UNL     1       7.931   5.376  12.980  0.00  0.00    +0.000 C 
ENDBRANCH  19  20
BRANCH  19  23
ATOM     23  C   UNL     1       5.207   3.774  15.267  0.00  0.00    +0.000 C 
ATOM     24  O   UNL     1       4.044   3.850  15.646  0.00  0.00    +0.000 OA
BRANCH  23  25
ATOM     25  O   UNL     1       6.014   2.749  15.625  0.00  0.00    +0.000 OA
ATOM     26  H   UNL     1       6.977   2.954  15.565  0.00  0.00    +0.000 HD
ENDBRANCH  23  25
ENDBRANCH  19  23
ENDBRANCH  17  19
ENDBRANCH  14  17
ENDBRANCH   9  14
BRANCH   1  28
ATOM     27  C   UNL     1       1.278   2.925  20.808  0.00  0.00    +0.000 C 
ATOM     28  C   UNL     1       2.212   3.875  21.544  0.00  0.00    +0.000 C 
ENDBRANCH   1  28
TORSDOF 7
ENDMDL
MODEL 9
REMARK VINA RESULT:      -6.4      3.964      6.334
REMARK  Name = 
REMARK  10 active torsions:
REMARK  status: ('A' for Active; 'I' for Inactive)
REMARK    1  A    between atoms: C_1  and  C_2
REMARK    2  A    between atoms: C_2  and  N_3
REMARK    3  A    between atoms: C_11  and  S_12
REMARK    4  A    between atoms: S_12  and  N_15
REMARK    5  A    between atoms: N_15  and  C_16
REMARK    6  A    between atoms: C_16  and  C_17
REMARK    7  A    between atoms: C_16  and  C_20
REMARK    8  A    between atoms: C_17  and  O_19
REMARK    9  A    between atoms: C_20  and  C_21
REMARK   10  A    between atoms: C_20  and  C_22
REMARK                            x       y       z     vdW  Elec       q    Type
REMARK                         _______ _______ _______ _____ _____    ______ ____
ROOT
ATOM      1  N   UNL     1       5.132   4.851  18.202  0.00  0.00    +0.000 N 
ATOM      2  C   UNL     1       4.651   4.079  19.287  0.00  0.00    +0.000 C 
ATOM      3  O   UNL     1       5.121   3.017  19.674  0.00  0.00    +0.000 OA
ATOM      4  C   UNL     1       3.504   4.842  19.736  0.00  0.00    +0.000 A 
ATOM      5  C   UNL     1       2.605   4.588  20.765  0.00  0.00    +0.000 A 
ATOM      6  C   UNL     1       1.535   5.486  20.907  0.00  0.00    +0.000 A 
ATOM      7  C   UNL     1       1.406   6.624  20.084  0.00  0.00    +0.000 A 
ATOM      8  C   UNL     1       2.363   6.907  19.077  0.00  0.00    +0.000 A 
ATOM      9  C   UNL     1       2.493   8.001  18.188  0.00  0.00    +0.000 A 
ATOM     10  C   UNL     1       3.525   8.044  17.210  0.00  0.00    +0.000 A 
ATOM     11  C   UNL     1       4.467   7.014  17.086  0.00  0.00    +0.000 A 
ATOM     12  C   UNL     1       4.353   5.990  18.006  0.00  0.00    +0.000 A 
ATOM     13  C   UNL     1       3.346   5.969  18.946  0.00  0.00    +0.000 A 
ENDROOT
BRANCH   9  14
ATOM     14  S   UNL     1       1.532   9.467  18.406  0.00  0.00    +0.000 S 
ATOM     15  O   UNL     1       2.338  10.588  17.981  0.00  0.00    +0.000 OA
ATOM     16  O   UNL     1       0.238   9.186  17.827  0.00  0.00    +0.000 OA
BRANCH  14  17
ATOM     17  N   UNL     1       1.314   9.645  20.051  0.00  0.00    +0.000 NA
ATOM     18  H   UNL     1       2.195   9.772  20.550  0.00  0.00    +0.000 HD
BRANCH  17  19
ATOM     19  C   UNL     1       0.136  10.317  20.659  0.00  0.00    +0.000 C 
BRANCH  19  20
ATOM     20  C   UNL     1      -0.284   9.757  22.040  0.00  0.00    +0.000 C 
ATOM     21  C   UNL     1       0.916   9.207  22.818  0.00  0.00    +0.000 C 
ATOM     22  C   UNL     1      -1.018  10.800  22.888  0.00  0.00    +0.000 C 
ENDBRANCH  19  20
BRANCH  19  23
ATOM     23  C   UNL     1       0.327  11.833  20.647  0.00  0.00    +0.000 C 
ATOM     24  O   UNL     1      -0.471  12.606  20.131  0.00  0.00    +0.000 OA
BRANCH  23  25
ATOM     25  O   UNL     1       1.477  12.261  21.216  0.00  0.00    +0.000 OA
ATOM     26  H   UNL     1       1.348  12.903  21.954  0.00  0.00    +0.000 HD
ENDBRANCH  23  25
ENDBRANCH  19  23
ENDBRANCH  17  19
ENDBRANCH  14  17
ENDBRANCH   9  14
BRANCH   1  28
ATOM     27  C   UNL     1       7.529   4.746  17.751  0.00  0.00    +0.000 C 
ATOM     28  C   UNL     1       6.133   4.366  17.280  0.00  0.00    +0.000 C 
ENDBRANCH   1  28
TORSDOF 7
ENDMDL
