MODEL 1
REMARK VINA RESULT:      -8.1      0.000      0.000
REMARK  Name = 
REMARK  4 active torsions:
REMARK  status: ('A' for Active; 'I' for Inactive)
REMARK    1  A    between atoms: C_1  and  C_2
REMARK    2  A    between atoms: C_13  and  C_14
REMARK    3  A    between atoms: C_17  and  C_18
REMARK    4  A    between atoms: C_31  and  C_32
REMARK                            x       y       z     vdW  Elec       q    Type
REMARK                         _______ _______ _______ _____ _____    ______ ____
ROOT
ATOM      1  C   UNL     1       7.190   4.248  17.888  0.00  0.00    +0.000 C 
ATOM      2  C   UNL     1       6.888   4.483  16.411  0.00  0.00    +0.000 C 
ATOM      3  C   UNL     1       5.384   4.534  16.080  0.00  0.00    +0.000 C 
ATOM      4  N   UNL     1       4.822   5.859  16.326  0.00  0.00    +0.000 N 
ATOM      5  C   UNL     1       4.051   6.090  17.443  0.00  0.00    +0.000 A 
ATOM      6  N   UNL     1       3.797   5.037  18.255  0.00  0.00    +0.000 NA
ATOM      7  C   UNL     1       2.995   5.153  19.352  0.00  0.00    +0.000 A 
ATOM      8  N   UNL     1       2.832   4.076  20.224  0.00  0.00    +0.000 N 
ATOM      9  C   UNL     1       3.951   3.114  20.178  0.00  0.00    +0.000 C 
ATOM     10  C   UNL     1       3.875   2.226  21.429  0.00  0.00    +0.000 C 
ATOM     11  O   UNL     1       2.617   1.531  21.506  0.00  0.00    +0.000 OA
ATOM     12  C   UNL     1       1.522   2.468  21.504  0.00  0.00    +0.000 C 
ATOM     13  C   UNL     1       1.531   3.352  20.228  0.00  0.00    +0.000 C 
ATOM     14  C   UNL     1       0.279   4.220  20.210  0.00  0.00    +0.000 C 
ATOM     15  C   UNL     1       2.453   6.427  19.603  0.00  0.00    +0.000 A 
ATOM     16  N   UNL     1       1.649   6.932  20.604  0.00  0.00    +0.000 NA
ATOM     17  C   UNL     1       1.433   8.202  20.308  0.00  0.00    +0.000 A 
ATOM     18  N   UNL     1       2.124   8.534  19.161  0.00  0.00    +0.000 N 
ATOM     19  C   UNL     1       2.778   7.423  18.711  0.00  0.00    +0.000 A 
ATOM     20  N   UNL     1       3.565   7.332  17.634  0.00  0.00    +0.000 NA
ATOM     21  C   UNL     1       5.547   6.953  15.691  0.00  0.00    +0.000 C 
ATOM     22  C   UNL     1       7.054   6.894  16.019  0.00  0.00    +0.000 C 
ATOM     23  C   UNL     1       7.413   7.528  17.360  0.00  0.00    +0.000 C 
ATOM     24  O   UNL     1       7.635   5.586  15.870  0.00  0.00    +0.000 OA
ATOM     25  H   UNL     1       2.162   9.442  18.729  0.00  0.00    +0.000 HD
ENDROOT
BRANCH  17  26
ATOM     26  C   UNL     1       0.601   9.142  21.062  0.00  0.00    +0.000 A 
ATOM     27  C   UNL     1       0.495   9.102  22.465  0.00  0.00    +0.000 A 
ATOM     28  C   UNL     1      -0.307  10.013  23.154  0.00  0.00    +0.000 A 
ATOM     29  C   UNL     1      -1.031  10.993  22.471  0.00  0.00    +0.000 A 
ATOM     30  C   UNL     1      -0.913  11.038  21.077  0.00  0.00    +0.000 A 
ATOM     31  N   UNL     1      -1.503  11.891  20.172  0.00  0.00    +0.000 N 
ATOM     32  C   UNL     1      -1.109  11.582  18.901  0.00  0.00    +0.000 A 
ATOM     33  C   UNL     1      -0.253  10.510  18.979  0.00  0.00    +0.000 A 
ATOM     34  C   UNL     1      -0.112  10.142  20.353  0.00  0.00    +0.000 A 
ATOM     35  H   UNL     1      -2.132  12.640  20.420  0.00  0.00    +0.000 HD
ENDBRANCH  17  26
TORSDOF 1
ENDMDL
MODEL 2
REMARK VINA RESULT:      -7.6      8.231     10.239
REMARK  Name = 
REMARK  4 active torsions:
REMARK  status: ('A' for Active; 'I' for Inactive)
REMARK    1  A    between atoms: C_1  and  C_2
REMARK    2  A    between atoms: C_13  and  C_14
REMARK    3  A    between atoms: C_17  and  C_18
REMARK    4  A    between atoms: C_31  and  C_32
REMARK                            x       y       z     vdW  Elec       q    Type
REMARK                         _______ _______ _______ _____ _____    ______ ____
ROOT
ATOM      1  C   UNL     1       8.263  12.629  17.364  0.00  0.00    +0.000 C 
ATOM      2  C   UNL     1       9.742  12.927  17.585  0.00  0.00    +0.000 C 
ATOM      3  C   UNL     1      10.009  14.062  18.592  0.00  0.00    +0.000 C 
ATOM      4  N   UNL     1       9.979  13.580  19.970  0.00  0.00    +0.000 N 
ATOM      5  C   UNL     1       8.888  13.831  20.771  0.00  0.00    +0.000 A 
ATOM      6  N   UNL     1       7.890  14.582  20.249  0.00  0.00    +0.000 NA
ATOM      7  C   UNL     1       6.796  14.935  20.983  0.00  0.00    +0.000 A 
ATOM      8  N   UNL     1       5.739  15.624  20.388  0.00  0.00    +0.000 N 
ATOM      9  C   UNL     1       5.662  15.425  18.927  0.00  0.00    +0.000 C 
ATOM     10  C   UNL     1       4.270  15.869  18.453  0.00  0.00    +0.000 C 
ATOM     11  O   UNL     1       4.013  17.244  18.788  0.00  0.00    +0.000 OA
ATOM     12  C   UNL     1       4.134  17.449  20.209  0.00  0.00    +0.000 C 
ATOM     13  C   UNL     1       5.546  17.062  20.722  0.00  0.00    +0.000 C 
ATOM     14  C   UNL     1       5.664  17.430  22.196  0.00  0.00    +0.000 C 
ATOM     15  C   UNL     1       6.754  14.469  22.310  0.00  0.00    +0.000 A 
ATOM     16  N   UNL     1       5.824  14.585  23.323  0.00  0.00    +0.000 NA
ATOM     17  C   UNL     1       6.333  13.964  24.373  0.00  0.00    +0.000 A 
ATOM     18  N   UNL     1       7.551  13.410  24.038  0.00  0.00    +0.000 N 
ATOM     19  C   UNL     1       7.823  13.716  22.735  0.00  0.00    +0.000 A 
ATOM     20  N   UNL     1       8.901  13.355  22.031  0.00  0.00    +0.000 NA
ATOM     21  C   UNL     1      10.832  12.425  20.227  0.00  0.00    +0.000 C 
ATOM     22  C   UNL     1      10.567  11.293  19.212  0.00  0.00    +0.000 C 
ATOM     23  C   UNL     1       9.380  10.408  19.579  0.00  0.00    +0.000 C 
ATOM     24  O   UNL     1      10.505  11.736  17.844  0.00  0.00    +0.000 OA
ATOM     25  H   UNL     1       8.140  12.856  24.637  0.00  0.00    +0.000 HD
ENDROOT
BRANCH  17  26
ATOM     26  C   UNL     1       5.723  13.855  25.700  0.00  0.00    +0.000 A 
ATOM     27  C   UNL     1       5.490  14.976  26.520  0.00  0.00    +0.000 A 
ATOM     28  C   UNL     1       4.906  14.838  27.780  0.00  0.00    +0.000 A 
ATOM     29  C   UNL     1       4.535  13.583  28.267  0.00  0.00    +0.000 A 
ATOM     30  C   UNL     1       4.756  12.473  27.444  0.00  0.00    +0.000 A 
ATOM     31  N   UNL     1       4.485  11.142  27.671  0.00  0.00    +0.000 N 
ATOM     32  C   UNL     1       4.861  10.391  26.594  0.00  0.00    +0.000 A 
ATOM     33  C   UNL     1       5.388  11.244  25.654  0.00  0.00    +0.000 A 
ATOM     34  C   UNL     1       5.336  12.575  26.169  0.00  0.00    +0.000 A 
ATOM     35  H   UNL     1       4.063  10.782  28.514  0.00  0.00    +0.000 HD
ENDBRANCH  17  26
TORSDOF 1
ENDMDL
MODEL 3
REMARK VINA RESULT:      -7.6      8.159     10.087
REMARK  Name = 
REMARK  4 active torsions:
REMARK  status: ('A' for Active; 'I' for Inactive)
REMARK    1  A    between atoms: C_1  and  C_2
REMARK    2  A    between atoms: C_13  and  C_14
REMARK    3  A    between atoms: C_17  and  C_18
REMARK    4  A    between atoms: C_31  and  C_32
REMARK                            x       y       z     vdW  Elec       q    Type
REMARK                         _______ _______ _______ _____ _____    ______ ____
ROOT
ATOM      1  C   UNL     1       8.607  13.069  17.351  0.00  0.00    +0.000 C 
ATOM      2  C   UNL     1      10.082  13.191  17.717  0.00  0.00    +0.000 C 
ATOM      3  C   UNL     1      10.343  13.995  19.005  0.00  0.00    +0.000 C 
ATOM      4  N   UNL     1      10.194  13.168  20.199  0.00  0.00    +0.000 N 
ATOM      5  C   UNL     1       9.067  13.275  20.982  0.00  0.00    +0.000 A 
ATOM      6  N   UNL     1       8.150  14.207  20.632  0.00  0.00    +0.000 NA
ATOM      7  C   UNL     1       7.030  14.429  21.379  0.00  0.00    +0.000 A 
ATOM      8  N   UNL     1       6.055  15.326  20.940  0.00  0.00    +0.000 N 
ATOM      9  C   UNL     1       6.066  15.529  19.477  0.00  0.00    +0.000 C 
ATOM     10  C   UNL     1       4.736  16.181  19.071  0.00  0.00    +0.000 C 
ATOM     11  O   UNL     1       4.534  17.433  19.751  0.00  0.00    +0.000 OA
ATOM     12  C   UNL     1       4.569  17.243  21.179  0.00  0.00    +0.000 C 
ATOM     13  C   UNL     1       5.920  16.633  21.639  0.00  0.00    +0.000 C 
ATOM     14  C   UNL     1       5.958  16.587  23.161  0.00  0.00    +0.000 C 
ATOM     15  C   UNL     1       6.872  13.632  22.527  0.00  0.00    +0.000 A 
ATOM     16  N   UNL     1       5.884  13.541  23.486  0.00  0.00    +0.000 NA
ATOM     17  C   UNL     1       6.285  12.628  24.354  0.00  0.00    +0.000 A 
ATOM     18  N   UNL     1       7.491  12.097  23.943  0.00  0.00    +0.000 N 
ATOM     19  C   UNL     1       7.867  12.718  22.786  0.00  0.00    +0.000 A 
ATOM     20  N   UNL     1       8.968  12.481  22.066  0.00  0.00    +0.000 NA
ATOM     21  C   UNL     1      10.962  11.928  20.178  0.00  0.00    +0.000 C 
ATOM     22  C   UNL     1      10.703  11.129  18.883  0.00  0.00    +0.000 C 
ATOM     23  C   UNL     1       9.447  10.266  18.937  0.00  0.00    +0.000 C 
ATOM     24  O   UNL     1      10.759  11.923  17.684  0.00  0.00    +0.000 OA
ATOM     25  H   UNL     1       8.006  11.363  24.399  0.00  0.00    +0.000 HD
ENDROOT
BRANCH  17  26
ATOM     26  C   UNL     1       5.582  12.215  25.570  0.00  0.00    +0.000 A 
ATOM     27  C   UNL     1       5.209  10.879  25.812  0.00  0.00    +0.000 A 
ATOM     28  C   UNL     1       4.540  10.518  26.982  0.00  0.00    +0.000 A 
ATOM     29  C   UNL     1       4.218  11.472  27.950  0.00  0.00    +0.000 A 
ATOM     30  C   UNL     1       4.603  12.796  27.712  0.00  0.00    +0.000 A 
ATOM     31  N   UNL     1       4.419  13.918  28.490  0.00  0.00    +0.000 N 
ATOM     32  C   UNL     1       4.957  15.014  27.876  0.00  0.00    +0.000 A 
ATOM     33  C   UNL     1       5.495  14.601  26.681  0.00  0.00    +0.000 A 
ATOM     34  C   UNL     1       5.282  13.194  26.550  0.00  0.00    +0.000 A 
ATOM     35  H   UNL     1       3.957  13.921  29.387  0.00  0.00    +0.000 HD
ENDBRANCH  17  26
TORSDOF 1
ENDMDL
MODEL 4
REMARK VINA RESULT:      -7.6      8.474     11.890
REMARK  Name = 
REMARK  4 active torsions:
REMARK  status: ('A' for Active; 'I' for Inactive)
REMARK    1  A    between atoms: C_1  and  C_2
REMARK    2  A    between atoms: C_13  and  C_14
REMARK    3  A    between atoms: C_17  and  C_18
REMARK    4  A    between atoms: C_31  and  C_32
REMARK                            x       y       z     vdW  Elec       q    Type
REMARK                         _______ _______ _______ _____ _____    ______ ____
ROOT
ATOM      1  C   UNL     1       1.336  14.606  21.830  0.00  0.00    +0.000 C 
ATOM      2  C   UNL     1       0.913  15.848  21.052  0.00  0.00    +0.000 C 
ATOM      3  C   UNL     1       2.049  16.864  20.827  0.00  0.00    +0.000 C 
ATOM      4  N   UNL     1       2.868  16.512  19.670  0.00  0.00    +0.000 N 
ATOM      5  C   UNL     1       4.111  15.947  19.844  0.00  0.00    +0.000 A 
ATOM      6  N   UNL     1       4.554  15.791  21.113  0.00  0.00    +0.000 NA
ATOM      7  C   UNL     1       5.796  15.297  21.386  0.00  0.00    +0.000 A 
ATOM      8  N   UNL     1       6.186  15.055  22.703  0.00  0.00    +0.000 N 
ATOM      9  C   UNL     1       5.047  14.842  23.619  0.00  0.00    +0.000 C 
ATOM     10  C   UNL     1       5.578  14.192  24.905  0.00  0.00    +0.000 C 
ATOM     11  O   UNL     1       6.581  15.011  25.533  0.00  0.00    +0.000 OA
ATOM     12  C   UNL     1       7.672  15.259  24.624  0.00  0.00    +0.000 C 
ATOM     13  C   UNL     1       7.186  15.963  23.330  0.00  0.00    +0.000 C 
ATOM     14  C   UNL     1       8.391  16.328  22.473  0.00  0.00    +0.000 C 
ATOM     15  C   UNL     1       6.590  14.948  20.278  0.00  0.00    +0.000 A 
ATOM     16  N   UNL     1       7.850  14.400  20.154  0.00  0.00    +0.000 NA
ATOM     17  C   UNL     1       8.097  14.316  18.858  0.00  0.00    +0.000 A 
ATOM     18  N   UNL     1       6.999  14.755  18.147  0.00  0.00    +0.000 N 
ATOM     19  C   UNL     1       6.038  15.149  19.034  0.00  0.00    +0.000 A 
ATOM     20  N   UNL     1       4.823  15.627  18.746  0.00  0.00    +0.000 NA
ATOM     21  C   UNL     1       2.114  16.272  18.444  0.00  0.00    +0.000 C 
ATOM     22  C   UNL     1       0.972  15.260  18.676  0.00  0.00    +0.000 C 
ATOM     23  C   UNL     1       1.420  13.803  18.600  0.00  0.00    +0.000 C 
ATOM     24  O   UNL     1       0.188  15.521  19.854  0.00  0.00    +0.000 OA
ATOM     25  H   UNL     1       6.903  14.770  17.146  0.00  0.00    +0.000 HD
ENDROOT
BRANCH  17  26
ATOM     26  C   UNL     1       9.332  13.831  18.237  0.00  0.00    +0.000 A 
ATOM     27  C   UNL     1       9.632  12.461  18.120  0.00  0.00    +0.000 A 
ATOM     28  C   UNL     1      10.818  12.031  17.522  0.00  0.00    +0.000 A 
ATOM     29  C   UNL     1      11.745  12.949  17.022  0.00  0.00    +0.000 A 
ATOM     30  C   UNL     1      11.436  14.310  17.129  0.00  0.00    +0.000 A 
ATOM     31  N   UNL     1      12.158  15.409  16.721  0.00  0.00    +0.000 N 
ATOM     32  C   UNL     1      11.483  16.558  17.020  0.00  0.00    +0.000 A 
ATOM     33  C   UNL     1      10.305  16.202  17.634  0.00  0.00    +0.000 A 
ATOM     34  C   UNL     1      10.251  14.777  17.718  0.00  0.00    +0.000 A 
ATOM     35  H   UNL     1      13.056  15.364  16.262  0.00  0.00    +0.000 HD
ENDBRANCH  17  26
TORSDOF 1
ENDMDL
MODEL 5
REMARK VINA RESULT:      -7.5      7.254     11.011
REMARK  Name = 
REMARK  4 active torsions:
REMARK  status: ('A' for Active; 'I' for Inactive)
REMARK    1  A    between atoms: C_1  and  C_2
REMARK    2  A    between atoms: C_13  and  C_14
REMARK    3  A    between atoms: C_17  and  C_18
REMARK    4  A    between atoms: C_31  and  C_32
REMARK                            x       y       z     vdW  Elec       q    Type
REMARK                         _______ _______ _______ _____ _____    ______ ____
ROOT
ATOM      1  C   UNL     1      -7.320  13.645  19.583  0.00  0.00    +0.000 C 
ATOM      2  C   UNL     1      -7.579  13.241  21.030  0.00  0.00    +0.000 C 
ATOM      3  C   UNL     1      -6.502  12.315  21.626  0.00  0.00    +0.000 C 
ATOM      4  N   UNL     1      -5.355  13.070  22.123  0.00  0.00    +0.000 N 
ATOM      5  C   UNL     1      -4.183  13.108  21.402  0.00  0.00    +0.000 A 
ATOM      6  N   UNL     1      -4.126  12.378  20.264  0.00  0.00    +0.000 NA
ATOM      7  C   UNL     1      -2.989  12.303  19.514  0.00  0.00    +0.000 A 
ATOM      8  N   UNL     1      -2.991  11.625  18.295  0.00  0.00    +0.000 N 
ATOM      9  C   UNL     1      -4.332  11.526  17.684  0.00  0.00    +0.000 C 
ATOM     10  C   UNL     1      -4.161  11.148  16.205  0.00  0.00    +0.000 C 
ATOM     11  O   UNL     1      -3.449   9.906  16.058  0.00  0.00    +0.000 OA
ATOM     12  C   UNL     1      -2.158   9.985  16.694  0.00  0.00    +0.000 C 
ATOM     13  C   UNL     1      -2.288  10.315  18.205  0.00  0.00    +0.000 C 
ATOM     14  C   UNL     1      -0.911  10.247  18.854  0.00  0.00    +0.000 C 
ATOM     15  C   UNL     1      -1.880  13.032  19.980  0.00  0.00    +0.000 A 
ATOM     16  N   UNL     1      -0.604  13.228  19.492  0.00  0.00    +0.000 NA
ATOM     17  C   UNL     1       0.021  13.993  20.370  0.00  0.00    +0.000 A 
ATOM     18  N   UNL     1      -0.845  14.332  21.389  0.00  0.00    +0.000 N 
ATOM     19  C   UNL     1      -2.051  13.738  21.149  0.00  0.00    +0.000 A 
ATOM     20  N   UNL     1      -3.157  13.828  21.895  0.00  0.00    +0.000 NA
ATOM     21  C   UNL     1      -5.693  14.154  23.038  0.00  0.00    +0.000 C 
ATOM     22  C   UNL     1      -6.778  15.075  22.441  0.00  0.00    +0.000 C 
ATOM     23  C   UNL     1      -6.226  16.140  21.498  0.00  0.00    +0.000 C 
ATOM     24  O   UNL     1      -7.892  14.370  21.864  0.00  0.00    +0.000 OA
ATOM     25  H   UNL     1      -0.641  14.931  22.171  0.00  0.00    +0.000 HD
ENDROOT
BRANCH  17  26
ATOM     26  C   UNL     1       1.415  14.436  20.300  0.00  0.00    +0.000 A 
ATOM     27  C   UNL     1       2.444  13.819  21.037  0.00  0.00    +0.000 A 
ATOM     28  C   UNL     1       3.763  14.266  20.948  0.00  0.00    +0.000 A 
ATOM     29  C   UNL     1       4.103  15.342  20.125  0.00  0.00    +0.000 A 
ATOM     30  C   UNL     1       3.080  15.945  19.385  0.00  0.00    +0.000 A 
ATOM     31  N   UNL     1       3.138  17.003  18.506  0.00  0.00    +0.000 N 
ATOM     32  C   UNL     1       1.898  17.268  17.998  0.00  0.00    +0.000 A 
ATOM     33  C   UNL     1       1.019  16.370  18.557  0.00  0.00    +0.000 A 
ATOM     34  C   UNL     1       1.745  15.518  19.445  0.00  0.00    +0.000 A 
ATOM     35  H   UNL     1       3.982  17.504  18.271  0.00  0.00    +0.000 HD
ENDBRANCH  17  26
TORSDOF 1
ENDMDL
MODEL 6
REMARK VINA RESULT:      -7.4      6.227      9.470
REMARK  Name = 
REMARK  4 active torsions:
REMARK  status: ('A' for Active; 'I' for Inactive)
REMARK    1  A    between atoms: C_1  and  C_2
REMARK    2  A    between atoms: C_13  and  C_14
REMARK    3  A    between atoms: C_17  and  C_18
REMARK    4  A    between atoms: C_31  and  C_32
REMARK                            x       y       z     vdW  Elec       q    Type
REMARK                         _______ _______ _______ _____ _____    ______ ____
ROOT
ATOM      1  C   UNL     1       3.346  15.233  19.778  0.00  0.00    +0.000 C 
ATOM      2  C   UNL     1       3.014  16.501  19.000  0.00  0.00    +0.000 C 
ATOM      3  C   UNL     1       1.700  16.419  18.199  0.00  0.00    +0.000 C 
ATOM      4  N   UNL     1       0.539  16.718  19.032  0.00  0.00    +0.000 N 
ATOM      5  C   UNL     1      -0.277  15.702  19.477  0.00  0.00    +0.000 A 
ATOM      6  N   UNL     1       0.008  14.446  19.064  0.00  0.00    +0.000 NA
ATOM      7  C   UNL     1      -0.776  13.382  19.401  0.00  0.00    +0.000 A 
ATOM      8  N   UNL     1      -0.402  12.087  19.044  0.00  0.00    +0.000 N 
ATOM      9  C   UNL     1       1.051  11.940  18.821  0.00  0.00    +0.000 C 
ATOM     10  C   UNL     1       1.394  10.443  18.844  0.00  0.00    +0.000 C 
ATOM     11  O   UNL     1       0.656   9.718  17.844  0.00  0.00    +0.000 OA
ATOM     12  C   UNL     1      -0.762   9.898  18.033  0.00  0.00    +0.000 C 
ATOM     13  C   UNL     1      -1.159  11.397  17.963  0.00  0.00    +0.000 C 
ATOM     14  C   UNL     1      -2.677  11.517  18.026  0.00  0.00    +0.000 C 
ATOM     15  C   UNL     1      -1.894  13.658  20.210  0.00  0.00    +0.000 A 
ATOM     16  N   UNL     1      -2.873  12.864  20.771  0.00  0.00    +0.000 NA
ATOM     17  C   UNL     1      -3.691  13.677  21.418  0.00  0.00    +0.000 A 
ATOM     18  N   UNL     1      -3.226  14.973  21.324  0.00  0.00    +0.000 N 
ATOM     19  C   UNL     1      -2.087  14.971  20.570  0.00  0.00    +0.000 A 
ATOM     20  N   UNL     1      -1.328  16.026  20.254  0.00  0.00    +0.000 NA
ATOM     21  C   UNL     1       0.633  17.968  19.778  0.00  0.00    +0.000 C 
ATOM     22  C   UNL     1       1.954  18.050  20.573  0.00  0.00    +0.000 C 
ATOM     23  C   UNL     1       1.903  17.334  21.919  0.00  0.00    +0.000 C 
ATOM     24  O   UNL     1       3.119  17.683  19.812  0.00  0.00    +0.000 OA
ATOM     25  H   UNL     1      -3.637  15.786  21.750  0.00  0.00    +0.000 HD
ENDROOT
BRANCH  17  26
ATOM     26  C   UNL     1      -4.906  13.295  22.140  0.00  0.00    +0.000 A 
ATOM     27  C   UNL     1      -5.116  13.619  23.494  0.00  0.00    +0.000 A 
ATOM     28  C   UNL     1      -6.287  13.241  24.153  0.00  0.00    +0.000 A 
ATOM     29  C   UNL     1      -7.286  12.527  23.489  0.00  0.00    +0.000 A 
ATOM     30  C   UNL     1      -7.080  12.218  22.140  0.00  0.00    +0.000 A 
ATOM     31  N   UNL     1      -7.892  11.538  21.260  0.00  0.00    +0.000 N 
ATOM     32  C   UNL     1      -7.301  11.462  20.030  0.00  0.00    +0.000 A 
ATOM     33  C   UNL     1      -6.085  12.098  20.112  0.00  0.00    +0.000 A 
ATOM     34  C   UNL     1      -5.918  12.587  21.444  0.00  0.00    +0.000 A 
ATOM     35  H   UNL     1      -8.796  11.157  21.495  0.00  0.00    +0.000 HD
ENDBRANCH  17  26
TORSDOF 1
ENDMDL
MODEL 7
REMARK VINA RESULT:      -7.3      4.608     10.333
REMARK  Name = 
REMARK  4 active torsions:
REMARK  status: ('A' for Active; 'I' for Inactive)
REMARK    1  A    between atoms: C_1  and  C_2
REMARK    2  A    between atoms: C_13  and  C_14
REMARK    3  A    between atoms: C_17  and  C_18
REMARK    4  A    between atoms: C_31  and  C_32
REMARK                            x       y       z     vdW  Elec       q    Type
REMARK                         _______ _______ _______ _____ _____    ______ ____
ROOT
ATOM      1  C   UNL     1      -2.081  15.274  23.535  0.00  0.00    +0.000 C 
ATOM      2  C   UNL     1      -3.376  15.318  22.731  0.00  0.00    +0.000 C 
ATOM      3  C   UNL     1      -3.179  15.124  21.215  0.00  0.00    +0.000 C 
ATOM      4  N   UNL     1      -3.095  13.711  20.857  0.00  0.00    +0.000 N 
ATOM      5  C   UNL     1      -1.878  13.141  20.561  0.00  0.00    +0.000 A 
ATOM      6  N   UNL     1      -0.793  13.949  20.559  0.00  0.00    +0.000 NA
ATOM      7  C   UNL     1       0.446  13.490  20.219  0.00  0.00    +0.000 A 
ATOM      8  N   UNL     1       1.561  14.323  20.323  0.00  0.00    +0.000 N 
ATOM      9  C   UNL     1       1.379  15.423  21.292  0.00  0.00    +0.000 C 
ATOM     10  C   UNL     1       2.761  16.004  21.625  0.00  0.00    +0.000 C 
ATOM     11  O   UNL     1       3.430  16.481  20.444  0.00  0.00    +0.000 OA
ATOM     12  C   UNL     1       3.567  15.419  19.478  0.00  0.00    +0.000 C 
ATOM     13  C   UNL     1       2.186  14.837  19.073  0.00  0.00    +0.000 C 
ATOM     14  C   UNL     1       2.378  13.823  17.953  0.00  0.00    +0.000 C 
ATOM     15  C   UNL     1       0.539  12.128  19.879  0.00  0.00    +0.000 A 
ATOM     16  N   UNL     1       1.594  11.313  19.525  0.00  0.00    +0.000 NA
ATOM     17  C   UNL     1       1.083  10.117  19.289  0.00  0.00    +0.000 A 
ATOM     18  N   UNL     1      -0.275  10.138  19.533  0.00  0.00    +0.000 N 
ATOM     19  C   UNL     1      -0.628  11.401  19.914  0.00  0.00    +0.000 A 
ATOM     20  N   UNL     1      -1.850  11.830  20.249  0.00  0.00    +0.000 NA
ATOM     21  C   UNL     1      -4.190  12.891  21.363  0.00  0.00    +0.000 C 
ATOM     22  C   UNL     1      -4.389  13.094  22.881  0.00  0.00    +0.000 C 
ATOM     23  C   UNL     1      -3.453  12.247  23.739  0.00  0.00    +0.000 C 
ATOM     24  O   UNL     1      -4.395  14.473  23.291  0.00  0.00    +0.000 OA
ATOM     25  H   UNL     1      -0.906   9.357  19.464  0.00  0.00    +0.000 HD
ENDROOT
BRANCH  17  26
ATOM     26  C   UNL     1       1.815   8.930  18.843  0.00  0.00    +0.000 A 
ATOM     27  C   UNL     1       2.514   8.886  17.622  0.00  0.00    +0.000 A 
ATOM     28  C   UNL     1       3.202   7.738  17.226  0.00  0.00    +0.000 A 
ATOM     29  C   UNL     1       3.218   6.596  18.030  0.00  0.00    +0.000 A 
ATOM     30  C   UNL     1       2.533   6.648  19.249  0.00  0.00    +0.000 A 
ATOM     31  N   UNL     1       2.393   5.682  20.221  0.00  0.00    +0.000 N 
ATOM     32  C   UNL     1       1.640   6.157  21.257  0.00  0.00    +0.000 A 
ATOM     33  C   UNL     1       1.282   7.449  20.955  0.00  0.00    +0.000 A 
ATOM     34  C   UNL     1       1.835   7.787  19.682  0.00  0.00    +0.000 A 
ATOM     35  H   UNL     1       2.797   4.759  20.170  0.00  0.00    +0.000 HD
ENDBRANCH  17  26
TORSDOF 1
ENDMDL
MODEL 8
REMARK VINA RESULT:      -7.2      7.236     11.071
REMARK  Name = 
REMARK  4 active torsions:
REMARK  status: ('A' for Active; 'I' for Inactive)
REMARK    1  A    between atoms: C_1  and  C_2
REMARK    2  A    between atoms: C_13  and  C_14
REMARK    3  A    between atoms: C_17  and  C_18
REMARK    4  A    between atoms: C_31  and  C_32
REMARK                            x       y       z     vdW  Elec       q    Type
REMARK                         _______ _______ _______ _____ _____    ______ ____
ROOT
ATOM      1  C   UNL     1      -6.906  13.537  20.420  0.00  0.00    +0.000 C 
ATOM      2  C   UNL     1      -6.850  13.340  21.932  0.00  0.00    +0.000 C 
ATOM      3  C   UNL     1      -5.575  12.631  22.425  0.00  0.00    +0.000 C 
ATOM      4  N   UNL     1      -4.464  13.565  22.583  0.00  0.00    +0.000 N 
ATOM      5  C   UNL     1      -3.453  13.606  21.649  0.00  0.00    +0.000 A 
ATOM      6  N   UNL     1      -3.507  12.717  20.631  0.00  0.00    +0.000 NA
ATOM      7  C   UNL     1      -2.521  12.640  19.690  0.00  0.00    +0.000 A 
ATOM      8  N   UNL     1      -2.654  11.783  18.598  0.00  0.00    +0.000 N 
ATOM      9  C   UNL     1      -4.059  11.457  18.279  0.00  0.00    +0.000 C 
ATOM     10  C   UNL     1      -4.107  10.871  16.860  0.00  0.00    +0.000 C 
ATOM     11  O   UNL     1      -3.280   9.698  16.746  0.00  0.00    +0.000 OA
ATOM     12  C   UNL     1      -1.917  10.005  17.101  0.00  0.00    +0.000 C 
ATOM     13  C   UNL     1      -1.817  10.552  18.550  0.00  0.00    +0.000 C 
ATOM     14  C   UNL     1      -0.349  10.724  18.922  0.00  0.00    +0.000 C 
ATOM     15  C   UNL     1      -1.449  13.540  19.829  0.00  0.00    +0.000 A 
ATOM     16  N   UNL     1      -0.317  13.783  19.080  0.00  0.00    +0.000 NA
ATOM     17  C   UNL     1       0.353  14.735  19.708  0.00  0.00    +0.000 A 
ATOM     18  N   UNL     1      -0.355  15.141  20.821  0.00  0.00    +0.000 N 
ATOM     19  C   UNL     1      -1.498  14.399  20.903  0.00  0.00    +0.000 A 
ATOM     20  N   UNL     1      -2.456  14.494  21.832  0.00  0.00    +0.000 NA
ATOM     21  C   UNL     1      -4.769  14.739  23.392  0.00  0.00    +0.000 C 
ATOM     22  C   UNL     1      -6.052  15.443  22.899  0.00  0.00    +0.000 C 
ATOM     23  C   UNL     1      -5.816  16.397  21.732  0.00  0.00    +0.000 C 
ATOM     24  O   UNL     1      -7.151  14.549  22.651  0.00  0.00    +0.000 OA
ATOM     25  H   UNL     1      -0.092  15.871  21.461  0.00  0.00    +0.000 HD
ENDROOT
BRANCH  17  26
ATOM     26  C   UNL     1       1.643  15.299  19.310  0.00  0.00    +0.000 A 
ATOM     27  C   UNL     1       1.781  16.181  18.221  0.00  0.00    +0.000 A 
ATOM     28  C   UNL     1       3.026  16.703  17.868  0.00  0.00    +0.000 A 
ATOM     29  C   UNL     1       4.177  16.363  18.583  0.00  0.00    +0.000 A 
ATOM     30  C   UNL     1       4.034  15.496  19.672  0.00  0.00    +0.000 A 
ATOM     31  N   UNL     1       4.988  15.009  20.538  0.00  0.00    +0.000 N 
ATOM     32  C   UNL     1       4.412  14.187  21.465  0.00  0.00    +0.000 A 
ATOM     33  C   UNL     1       3.065  14.136  21.197  0.00  0.00    +0.000 A 
ATOM     34  C   UNL     1       2.797  14.958  20.059  0.00  0.00    +0.000 A 
ATOM     35  H   UNL     1       5.970  15.236  20.492  0.00  0.00    +0.000 HD
ENDBRANCH  17  26
TORSDOF 1
ENDMDL
MODEL 9
REMARK VINA RESULT:      -7.2      4.465     10.022
REMARK  Name = 
REMARK  4 active torsions:
REMARK  status: ('A' for Active; 'I' for Inactive)
REMARK    1  A    between atoms: C_1  and  C_2
REMARK    2  A    between atoms: C_13  and  C_14
REMARK    3  A    between atoms: C_17  and  C_18
REMARK    4  A    between atoms: C_31  and  C_32
REMARK                            x       y       z     vdW  Elec       q    Type
REMARK                         _______ _______ _______ _____ _____    ______ ____
ROOT
ATOM      1  C   UNL     1      -1.901  15.622  23.147  0.00  0.00    +0.000 C 
ATOM      2  C   UNL     1      -3.162  15.615  22.289  0.00  0.00    +0.000 C 
ATOM      3  C   UNL     1      -2.945  15.080  20.861  0.00  0.00    +0.000 C 
ATOM      4  N   UNL     1      -2.999  13.621  20.817  0.00  0.00    +0.000 N 
ATOM      5  C   UNL     1      -1.840  12.886  20.708  0.00  0.00    +0.000 A 
ATOM      6  N   UNL     1      -0.677  13.568  20.588  0.00  0.00    +0.000 NA
ATOM      7  C   UNL     1       0.516  12.929  20.414  0.00  0.00    +0.000 A 
ATOM      8  N   UNL     1       1.708  13.654  20.393  0.00  0.00    +0.000 N 
ATOM      9  C   UNL     1       1.615  14.950  21.096  0.00  0.00    +0.000 C 
ATOM     10  C   UNL     1       3.041  15.455  21.365  0.00  0.00    +0.000 C 
ATOM     11  O   UNL     1       3.788  15.598  20.144  0.00  0.00    +0.000 OA
ATOM     12  C   UNL     1       3.840  14.345  19.434  0.00  0.00    +0.000 C 
ATOM     13  C   UNL     1       2.418  13.823  19.095  0.00  0.00    +0.000 C 
ATOM     14  C   UNL     1       2.534  12.577  18.227  0.00  0.00    +0.000 C 
ATOM     15  C   UNL     1       0.477  11.524  20.377  0.00  0.00    +0.000 A 
ATOM     16  N   UNL     1       1.451  10.554  20.256  0.00  0.00    +0.000 NA
ATOM     17  C   UNL     1       0.824   9.390  20.256  0.00  0.00    +0.000 A 
ATOM     18  N   UNL     1      -0.530   9.593  20.423  0.00  0.00    +0.000 N 
ATOM     19  C   UNL     1      -0.760  10.937  20.509  0.00  0.00    +0.000 A 
ATOM     20  N   UNL     1      -1.939  11.543  20.684  0.00  0.00    +0.000 NA
ATOM     21  C   UNL     1      -4.186  13.039  21.431  0.00  0.00    +0.000 C 
ATOM     22  C   UNL     1      -4.405  13.583  22.859  0.00  0.00    +0.000 C 
ATOM     23  C   UNL     1      -3.586  12.857  23.922  0.00  0.00    +0.000 C 
ATOM     24  O   UNL     1      -4.279  15.013  22.966  0.00  0.00    +0.000 OA
ATOM     25  H   UNL     1      -1.237   8.880  20.491  0.00  0.00    +0.000 HD
ENDROOT
BRANCH  17  26
ATOM     26  C   UNL     1       1.440   8.070  20.109  0.00  0.00    +0.000 A 
ATOM     27  C   UNL     1       1.236   7.031  21.037  0.00  0.00    +0.000 A 
ATOM     28  C   UNL     1       1.838   5.784  20.868  0.00  0.00    +0.000 A 
ATOM     29  C   UNL     1       2.664   5.527  19.771  0.00  0.00    +0.000 A 
ATOM     30  C   UNL     1       2.854   6.558  18.844  0.00  0.00    +0.000 A 
ATOM     31  N   UNL     1       3.603   6.573  17.688  0.00  0.00    +0.000 N 
ATOM     32  C   UNL     1       3.509   7.791  17.077  0.00  0.00    +0.000 A 
ATOM     33  C   UNL     1       2.689   8.582  17.847  0.00  0.00    +0.000 A 
ATOM     34  C   UNL     1       2.260   7.822  18.979  0.00  0.00    +0.000 A 
ATOM     35  H   UNL     1       4.139   5.789  17.345  0.00  0.00    +0.000 HD
ENDBRANCH  17  26
TORSDOF 1
ENDMDL
