MODEL 1
REMARK VINA RESULT:      -9.2      0.000      0.000
REMARK  Name = 
REMARK  6 active torsions:
REMARK  status: ('A' for Active; 'I' for Inactive)
REMARK    1  A    between atoms: C_1  and  C_2
REMARK    2  A    between atoms: C_5  and  C_6
REMARK    3  A    between atoms: N_8  and  C_9
REMARK    4  A    between atoms: C_14  and  C_15
REMARK    5  A    between atoms: C_18  and  N_19
REMARK    6  A    between atoms: C_20  and  C_22
REMARK                            x       y       z     vdW  Elec       q    Type
REMARK                         _______ _______ _______ _____ _____    ______ ____
ROOT
ATOM      1  C   UNL     1       2.470   6.768  18.758  0.00  0.00    +0.000 A 
ATOM      2  C   UNL     1       2.273   7.858  17.888  0.00  0.00    +0.000 A 
ATOM      3  C   UNL     1       1.769   9.092  18.333  0.00  0.00    +0.000 A 
ATOM      4  C   UNL     1       1.401   9.275  19.662  0.00  0.00    +0.000 A 
ATOM      5  C   UNL     1       1.577   8.210  20.542  0.00  0.00    +0.000 A 
ATOM      6  C   UNL     1       2.140   7.000  20.101  0.00  0.00    +0.000 A 
ENDROOT
BRANCH   1  13
ATOM      7  C   UNL     1       1.783   3.986  19.979  0.00  0.00    +0.000 C 
ATOM      8  C   UNL     1       2.724   4.196  18.818  0.00  0.00    +0.000 A 
ATOM      9  C   UNL     1       3.321   3.031  18.288  0.00  0.00    +0.000 A 
ATOM     10  C   UNL     1       4.184   3.085  17.197  0.00  0.00    +0.000 A 
ATOM     11  C   UNL     1       4.482   4.314  16.623  0.00  0.00    +0.000 A 
ATOM     12  C   UNL     1       3.918   5.484  17.159  0.00  0.00    +0.000 A 
ATOM     13  C   UNL     1       3.029   5.468  18.264  0.00  0.00    +0.000 A 
BRANCH  11  14
ATOM     14  C   UNL     1       5.392   4.366  15.469  0.00  0.00    +0.000 A 
ATOM     15  N   UNL     1       5.285   3.737  14.337  0.00  0.00    +0.000 NA
ATOM     16  N   UNL     1       6.394   4.165  13.663  0.00  0.00    +0.000 N 
ATOM     17  C   UNL     1       6.734   3.718  12.342  0.00  0.00    +0.000 C 
ATOM     18  C   UNL     1       7.139   5.031  14.423  0.00  0.00    +0.000 A 
ATOM     19  O   UNL     1       8.186   5.583  14.140  0.00  0.00    +0.000 OA
ATOM     20  O   UNL     1       6.475   5.166  15.604  0.00  0.00    +0.000 OA
ENDBRANCH  11  14
ENDBRANCH   1  13
BRANCH   4  21
ATOM     21  N   UNL     1       0.889  10.480  20.194  0.00  0.00    +0.000 N 
ATOM     22  C   UNL     1      -0.383  10.997  20.010  0.00  0.00    +0.000 C 
ATOM     23  O   UNL     1      -1.282  10.427  19.402  0.00  0.00    +0.000 OA
ATOM     24  H   UNL     1       1.548  11.035  20.732  0.00  0.00    +0.000 HD
BRANCH  22  25
ATOM     25  C   UNL     1      -0.657  12.347  20.581  0.00  0.00    +0.000 A 
ATOM     26  C   UNL     1      -0.867  13.482  19.793  0.00  0.00    +0.000 A 
ATOM     27  F   UNL     1      -0.795  13.417  18.454  0.00  0.00    +0.000 F 
ATOM     28  C   UNL     1      -1.158  14.725  20.364  0.00  0.00    +0.000 A 
ATOM     29  C   UNL     1      -1.248  14.852  21.747  0.00  0.00    +0.000 A 
ATOM     30  C   UNL     1      -1.036  13.738  22.550  0.00  0.00    +0.000 A 
ATOM     31  C   UNL     1      -0.739  12.501  21.970  0.00  0.00    +0.000 A 
ATOM     32  F   UNL     1      -0.540  11.475  22.809  0.00  0.00    +0.000 F 
ENDBRANCH  22  25
ENDBRANCH   4  21
TORSDOF 4
ENDMDL
MODEL 2
REMARK VINA RESULT:      -9.2      1.149      1.659
REMARK  Name = 
REMARK  6 active torsions:
REMARK  status: ('A' for Active; 'I' for Inactive)
REMARK    1  A    between atoms: C_1  and  C_2
REMARK    2  A    between atoms: C_5  and  C_6
REMARK    3  A    between atoms: N_8  and  C_9
REMARK    4  A    between atoms: C_14  and  C_15
REMARK    5  A    between atoms: C_18  and  N_19
REMARK    6  A    between atoms: C_20  and  C_22
REMARK                            x       y       z     vdW  Elec       q    Type
REMARK                         _______ _______ _______ _____ _____    ______ ____
ROOT
ATOM      1  C   UNL     1       2.295   7.343  18.964  0.00  0.00    +0.000 A 
ATOM      2  C   UNL     1       2.127   8.302  17.947  0.00  0.00    +0.000 A 
ATOM      3  C   UNL     1       1.526   9.550  18.184  0.00  0.00    +0.000 A 
ATOM      4  C   UNL     1       1.030   9.876  19.442  0.00  0.00    +0.000 A 
ATOM      5  C   UNL     1       1.176   8.941  20.464  0.00  0.00    +0.000 A 
ATOM      6  C   UNL     1       1.834   7.722  20.233  0.00  0.00    +0.000 A 
ENDROOT
BRANCH   1  13
ATOM      7  C   UNL     1       1.980   4.816  20.756  0.00  0.00    +0.000 C 
ATOM      8  C   UNL     1       2.823   4.871  19.507  0.00  0.00    +0.000 A 
ATOM      9  C   UNL     1       3.508   3.682  19.170  0.00  0.00    +0.000 A 
ATOM     10  C   UNL     1       4.294   3.593  18.025  0.00  0.00    +0.000 A 
ATOM     11  C   UNL     1       4.427   4.702  17.199  0.00  0.00    +0.000 A 
ATOM     12  C   UNL     1       3.775   5.899  17.538  0.00  0.00    +0.000 A 
ATOM     13  C   UNL     1       2.958   6.027  18.692  0.00  0.00    +0.000 A 
BRANCH  11  14
ATOM     14  C   UNL     1       5.257   4.602  15.990  0.00  0.00    +0.000 A 
ATOM     15  N   UNL     1       5.029   3.902  14.918  0.00  0.00    +0.000 NA
ATOM     16  N   UNL     1       6.116   4.196  14.145  0.00  0.00    +0.000 N 
ATOM     17  C   UNL     1       6.333   3.631  12.844  0.00  0.00    +0.000 C 
ATOM     18  C   UNL     1       6.970   5.056  14.788  0.00  0.00    +0.000 A 
ATOM     19  O   UNL     1       8.032   5.506  14.398  0.00  0.00    +0.000 OA
ATOM     20  O   UNL     1       6.400   5.326  15.994  0.00  0.00    +0.000 OA
ENDBRANCH  11  14
ENDBRANCH   1  13
BRANCH   4  21
ATOM     21  N   UNL     1       0.415  11.106  19.767  0.00  0.00    +0.000 N 
ATOM     22  C   UNL     1      -0.741  11.631  19.213  0.00  0.00    +0.000 C 
ATOM     23  O   UNL     1      -1.442  11.050  18.392  0.00  0.00    +0.000 OA
ATOM     24  H   UNL     1       0.907  11.672  20.452  0.00  0.00    +0.000 HD
BRANCH  22  25
ATOM     25  C   UNL     1      -1.136  13.004  19.639  0.00  0.00    +0.000 A 
ATOM     26  C   UNL     1      -2.183  13.257  20.529  0.00  0.00    +0.000 A 
ATOM     27  F   UNL     1      -2.925  12.254  21.026  0.00  0.00    +0.000 F 
ATOM     28  C   UNL     1      -2.501  14.557  20.936  0.00  0.00    +0.000 A 
ATOM     29  C   UNL     1      -1.763  15.636  20.456  0.00  0.00    +0.000 A 
ATOM     30  C   UNL     1      -0.722  15.408  19.565  0.00  0.00    +0.000 A 
ATOM     31  C   UNL     1      -0.416  14.105  19.160  0.00  0.00    +0.000 A 
ATOM     32  F   UNL     1       0.596  13.966  18.293  0.00  0.00    +0.000 F 
ENDBRANCH  22  25
ENDBRANCH   4  21
TORSDOF 4
ENDMDL
MODEL 3
REMARK VINA RESULT:      -9.2      1.124      1.137
REMARK  Name = 
REMARK  6 active torsions:
REMARK  status: ('A' for Active; 'I' for Inactive)
REMARK    1  A    between atoms: C_1  and  C_2
REMARK    2  A    between atoms: C_5  and  C_6
REMARK    3  A    between atoms: N_8  and  C_9
REMARK    4  A    between atoms: C_14  and  C_15
REMARK    5  A    between atoms: C_18  and  N_19
REMARK    6  A    between atoms: C_20  and  C_22
REMARK                            x       y       z     vdW  Elec       q    Type
REMARK                         _______ _______ _______ _____ _____    ______ ____
ROOT
ATOM      1  C   UNL     1       2.296   7.374  19.013  0.00  0.00    +0.000 A 
ATOM      2  C   UNL     1       2.138   8.331  17.992  0.00  0.00    +0.000 A 
ATOM      3  C   UNL     1       1.494   9.561  18.209  0.00  0.00    +0.000 A 
ATOM      4  C   UNL     1       0.942   9.869  19.449  0.00  0.00    +0.000 A 
ATOM      5  C   UNL     1       1.076   8.935  20.474  0.00  0.00    +0.000 A 
ATOM      6  C   UNL     1       1.777   7.735  20.264  0.00  0.00    +0.000 A 
ENDROOT
BRANCH   1  13
ATOM      7  C   UNL     1       2.125   4.890  20.884  0.00  0.00    +0.000 C 
ATOM      8  C   UNL     1       2.937   4.943  19.613  0.00  0.00    +0.000 A 
ATOM      9  C   UNL     1       3.662   3.773  19.294  0.00  0.00    +0.000 A 
ATOM     10  C   UNL     1       4.425   3.681  18.134  0.00  0.00    +0.000 A 
ATOM     11  C   UNL     1       4.493   4.770  17.274  0.00  0.00    +0.000 A 
ATOM     12  C   UNL     1       3.800   5.950  17.594  0.00  0.00    +0.000 A 
ATOM     13  C   UNL     1       3.006   6.078  18.763  0.00  0.00    +0.000 A 
BRANCH  11  14
ATOM     14  C   UNL     1       5.298   4.668  16.048  0.00  0.00    +0.000 A 
ATOM     15  N   UNL     1       5.056   3.954  14.989  0.00  0.00    +0.000 NA
ATOM     16  N   UNL     1       6.124   4.253  14.190  0.00  0.00    +0.000 N 
ATOM     17  C   UNL     1       6.320   3.678  12.890  0.00  0.00    +0.000 C 
ATOM     18  C   UNL     1       6.980   5.130  14.805  0.00  0.00    +0.000 A 
ATOM     19  O   UNL     1       8.028   5.590  14.388  0.00  0.00    +0.000 OA
ATOM     20  O   UNL     1       6.432   5.406  16.021  0.00  0.00    +0.000 OA
ENDBRANCH  11  14
ENDBRANCH   1  13
BRANCH   4  21
ATOM     21  N   UNL     1       0.281  11.079  19.754  0.00  0.00    +0.000 N 
ATOM     22  C   UNL     1       0.755  12.110  20.550  0.00  0.00    +0.000 C 
ATOM     23  O   UNL     1       1.872  12.139  21.053  0.00  0.00    +0.000 OA
ATOM     24  H   UNL     1      -0.657  11.171  19.376  0.00  0.00    +0.000 HD
BRANCH  22  25
ATOM     25  C   UNL     1      -0.176  13.244  20.818  0.00  0.00    +0.000 A 
ATOM     26  C   UNL     1      -0.401  14.280  19.908  0.00  0.00    +0.000 A 
ATOM     27  F   UNL     1       0.252  14.324  18.736  0.00  0.00    +0.000 F 
ATOM     28  C   UNL     1      -1.311  15.307  20.178  0.00  0.00    +0.000 A 
ATOM     29  C   UNL     1      -2.020  15.311  21.377  0.00  0.00    +0.000 A 
ATOM     30  C   UNL     1      -1.806  14.294  22.299  0.00  0.00    +0.000 A 
ATOM     31  C   UNL     1      -0.890  13.275  22.022  0.00  0.00    +0.000 A 
ATOM     32  F   UNL     1      -0.733  12.334  22.963  0.00  0.00    +0.000 F 
ENDBRANCH  22  25
ENDBRANCH   4  21
TORSDOF 4
ENDMDL
MODEL 4
REMARK VINA RESULT:      -9.1      1.125      1.849
REMARK  Name = 
REMARK  6 active torsions:
REMARK  status: ('A' for Active; 'I' for Inactive)
REMARK    1  A    between atoms: C_1  and  C_2
REMARK    2  A    between atoms: C_5  and  C_6
REMARK    3  A    between atoms: N_8  and  C_9
REMARK    4  A    between atoms: C_14  and  C_15
REMARK    5  A    between atoms: C_18  and  N_19
REMARK    6  A    between atoms: C_20  and  C_22
REMARK                            x       y       z     vdW  Elec       q    Type
REMARK                         _______ _______ _______ _____ _____    ______ ____
ROOT
ATOM      1  C   UNL     1       2.301   7.360  19.001  0.00  0.00    +0.000 A 
ATOM      2  C   UNL     1       2.091   8.290  17.965  0.00  0.00    +0.000 A 
ATOM      3  C   UNL     1       1.446   9.521  18.179  0.00  0.00    +0.000 A 
ATOM      4  C   UNL     1       0.946   9.855  19.433  0.00  0.00    +0.000 A 
ATOM      5  C   UNL     1       1.131   8.948  20.474  0.00  0.00    +0.000 A 
ATOM      6  C   UNL     1       1.832   7.749  20.264  0.00  0.00    +0.000 A 
ENDROOT
BRANCH   1  13
ATOM      7  C   UNL     1       2.130   4.879  20.876  0.00  0.00    +0.000 C 
ATOM      8  C   UNL     1       2.941   4.929  19.604  0.00  0.00    +0.000 A 
ATOM      9  C   UNL     1       3.666   3.759  19.287  0.00  0.00    +0.000 A 
ATOM     10  C   UNL     1       4.428   3.666  18.126  0.00  0.00    +0.000 A 
ATOM     11  C   UNL     1       4.496   4.753  17.264  0.00  0.00    +0.000 A 
ATOM     12  C   UNL     1       3.803   5.933  17.583  0.00  0.00    +0.000 A 
ATOM     13  C   UNL     1       3.010   6.064  18.752  0.00  0.00    +0.000 A 
BRANCH  11  14
ATOM     14  C   UNL     1       5.300   4.648  16.038  0.00  0.00    +0.000 A 
ATOM     15  N   UNL     1       5.060   3.930  14.982  0.00  0.00    +0.000 NA
ATOM     16  N   UNL     1       6.125   4.230  14.181  0.00  0.00    +0.000 N 
ATOM     17  C   UNL     1       6.323   3.650  12.883  0.00  0.00    +0.000 C 
ATOM     18  C   UNL     1       6.980   5.112  14.792  0.00  0.00    +0.000 A 
ATOM     19  O   UNL     1       8.025   5.573  14.372  0.00  0.00    +0.000 OA
ATOM     20  O   UNL     1       6.432   5.390  16.007  0.00  0.00    +0.000 OA
ENDBRANCH  11  14
ENDBRANCH   1  13
BRANCH   4  21
ATOM     21  N   UNL     1       0.287  11.068  19.737  0.00  0.00    +0.000 N 
ATOM     22  C   UNL     1       0.786  12.121  20.487  0.00  0.00    +0.000 C 
ATOM     23  O   UNL     1       1.923  12.170  20.942  0.00  0.00    +0.000 OA
ATOM     24  H   UNL     1      -0.667  11.143  19.396  0.00  0.00    +0.000 HD
BRANCH  22  25
ATOM     25  C   UNL     1      -0.142  13.254  20.767  0.00  0.00    +0.000 A 
ATOM     26  C   UNL     1      -0.879  13.365  21.950  0.00  0.00    +0.000 A 
ATOM     27  F   UNL     1      -0.811  12.416  22.897  0.00  0.00    +0.000 F 
ATOM     28  C   UNL     1      -1.711  14.462  22.194  0.00  0.00    +0.000 A 
ATOM     29  C   UNL     1      -1.818  15.478  21.248  0.00  0.00    +0.000 A 
ATOM     30  C   UNL     1      -1.100  15.384  20.062  0.00  0.00    +0.000 A 
ATOM     31  C   UNL     1      -0.276  14.281  19.825  0.00  0.00    +0.000 A 
ATOM     32  F   UNL     1       0.379  14.257  18.655  0.00  0.00    +0.000 F 
ENDBRANCH  22  25
ENDBRANCH   4  21
TORSDOF 4
ENDMDL
MODEL 5
REMARK VINA RESULT:      -9.1      0.389      1.536
REMARK  Name = 
REMARK  6 active torsions:
REMARK  status: ('A' for Active; 'I' for Inactive)
REMARK    1  A    between atoms: C_1  and  C_2
REMARK    2  A    between atoms: C_5  and  C_6
REMARK    3  A    between atoms: N_8  and  C_9
REMARK    4  A    between atoms: C_14  and  C_15
REMARK    5  A    between atoms: C_18  and  N_19
REMARK    6  A    between atoms: C_20  and  C_22
REMARK                            x       y       z     vdW  Elec       q    Type
REMARK                         _______ _______ _______ _____ _____    ______ ____
ROOT
ATOM      1  C   UNL     1       2.248   6.843  19.079  0.00  0.00    +0.000 A 
ATOM      2  C   UNL     1       2.143   7.959  18.227  0.00  0.00    +0.000 A 
ATOM      3  C   UNL     1       1.667   9.204  18.674  0.00  0.00    +0.000 A 
ATOM      4  C   UNL     1       1.237   9.374  19.986  0.00  0.00    +0.000 A 
ATOM      5  C   UNL     1       1.322   8.283  20.848  0.00  0.00    +0.000 A 
ATOM      6  C   UNL     1       1.857   7.060  20.409  0.00  0.00    +0.000 A 
ENDROOT
BRANCH   1  13
ATOM      7  C   UNL     1       1.479   4.074  20.280  0.00  0.00    +0.000 C 
ATOM      8  C   UNL     1       2.436   4.265  19.130  0.00  0.00    +0.000 A 
ATOM      9  C   UNL     1       3.009   3.088  18.600  0.00  0.00    +0.000 A 
ATOM     10  C   UNL     1       3.883   3.125  17.517  0.00  0.00    +0.000 A 
ATOM     11  C   UNL     1       4.219   4.349  16.952  0.00  0.00    +0.000 A 
ATOM     12  C   UNL     1       3.679   5.530  17.488  0.00  0.00    +0.000 A 
ATOM     13  C   UNL     1       2.779   5.532  18.585  0.00  0.00    +0.000 A 
BRANCH  11  14
ATOM     14  C   UNL     1       5.141   4.382  15.807  0.00  0.00    +0.000 A 
ATOM     15  N   UNL     1       5.036   3.752  14.676  0.00  0.00    +0.000 NA
ATOM     16  N   UNL     1       6.158   4.160  14.013  0.00  0.00    +0.000 N 
ATOM     17  C   UNL     1       6.505   3.704  12.697  0.00  0.00    +0.000 C 
ATOM     18  C   UNL     1       6.909   5.016  14.778  0.00  0.00    +0.000 A 
ATOM     19  O   UNL     1       7.967   5.551  14.504  0.00  0.00    +0.000 OA
ATOM     20  O   UNL     1       6.234   5.166  15.952  0.00  0.00    +0.000 OA
ENDBRANCH  11  14
ENDBRANCH   1  13
BRANCH   4  21
ATOM     21  N   UNL     1       0.747  10.587  20.518  0.00  0.00    +0.000 N 
ATOM     22  C   UNL     1      -0.486  11.168  20.269  0.00  0.00    +0.000 C 
ATOM     23  O   UNL     1      -1.369  10.657  19.590  0.00  0.00    +0.000 OA
ATOM     24  H   UNL     1       1.395  11.096  21.112  0.00  0.00    +0.000 HD
BRANCH  22  25
ATOM     25  C   UNL     1      -0.734  12.515  20.861  0.00  0.00    +0.000 A 
ATOM     26  C   UNL     1      -0.846  12.737  22.236  0.00  0.00    +0.000 A 
ATOM     27  F   UNL     1      -0.770  11.720  23.109  0.00  0.00    +0.000 F 
ATOM     28  C   UNL     1      -1.040  14.020  22.756  0.00  0.00    +0.000 A 
ATOM     29  C   UNL     1      -1.123  15.114  21.898  0.00  0.00    +0.000 A 
ATOM     30  C   UNL     1      -1.022  14.915  20.527  0.00  0.00    +0.000 A 
ATOM     31  C   UNL     1      -0.833  13.627  20.016  0.00  0.00    +0.000 A 
ATOM     32  F   UNL     1      -0.752  13.514  18.683  0.00  0.00    +0.000 F 
ENDBRANCH  22  25
ENDBRANCH   4  21
TORSDOF 4
ENDMDL
MODEL 6
REMARK VINA RESULT:      -9.1      0.724      1.745
REMARK  Name = 
REMARK  6 active torsions:
REMARK  status: ('A' for Active; 'I' for Inactive)
REMARK    1  A    between atoms: C_1  and  C_2
REMARK    2  A    between atoms: C_5  and  C_6
REMARK    3  A    between atoms: N_8  and  C_9
REMARK    4  A    between atoms: C_14  and  C_15
REMARK    5  A    between atoms: C_18  and  N_19
REMARK    6  A    between atoms: C_20  and  C_22
REMARK                            x       y       z     vdW  Elec       q    Type
REMARK                         _______ _______ _______ _____ _____    ______ ____
ROOT
ATOM      1  C   UNL     1       2.433   7.021  18.757  0.00  0.00    +0.000 A 
ATOM      2  C   UNL     1       2.007   7.261  20.077  0.00  0.00    +0.000 A 
ATOM      3  C   UNL     1       1.428   8.480  20.470  0.00  0.00    +0.000 A 
ATOM      4  C   UNL     1       1.288   9.528  19.565  0.00  0.00    +0.000 A 
ATOM      5  C   UNL     1       1.710   9.320  18.254  0.00  0.00    +0.000 A 
ATOM      6  C   UNL     1       2.230   8.077  17.856  0.00  0.00    +0.000 A 
ENDROOT
BRANCH   1  13
ATOM      7  C   UNL     1       1.868   4.325  20.210  0.00  0.00    +0.000 C 
ATOM      8  C   UNL     1       2.778   4.472  19.017  0.00  0.00    +0.000 A 
ATOM      9  C   UNL     1       3.406   3.289  18.569  0.00  0.00    +0.000 A 
ATOM     10  C   UNL     1       4.245   3.284  17.458  0.00  0.00    +0.000 A 
ATOM     11  C   UNL     1       4.489   4.472  16.781  0.00  0.00    +0.000 A 
ATOM     12  C   UNL     1       3.895   5.661  17.234  0.00  0.00    +0.000 A 
ATOM     13  C   UNL     1       3.028   5.705  18.356  0.00  0.00    +0.000 A 
BRANCH  11  14
ATOM     14  C   UNL     1       5.375   4.460  15.607  0.00  0.00    +0.000 A 
ATOM     15  N   UNL     1       5.235   3.785  14.506  0.00  0.00    +0.000 NA
ATOM     16  N   UNL     1       6.335   4.167  13.792  0.00  0.00    +0.000 N 
ATOM     17  C   UNL     1       6.641   3.659  12.485  0.00  0.00    +0.000 C 
ATOM     18  C   UNL     1       7.108   5.054  14.498  0.00  0.00    +0.000 A 
ATOM     19  O   UNL     1       8.156   5.579  14.169  0.00  0.00    +0.000 OA
ATOM     20  O   UNL     1       6.471   5.250  15.685  0.00  0.00    +0.000 OA
ENDBRANCH  11  14
ENDBRANCH   1  13
BRANCH   4  21
ATOM     21  N   UNL     1       0.717  10.782  19.874  0.00  0.00    +0.000 N 
ATOM     22  C   UNL     1      -0.559  11.218  19.555  0.00  0.00    +0.000 C 
ATOM     23  O   UNL     1      -1.410  10.527  19.007  0.00  0.00    +0.000 OA
ATOM     24  H   UNL     1       1.334  11.439  20.344  0.00  0.00    +0.000 HD
BRANCH  22  25
ATOM     25  C   UNL     1      -0.898  12.631  19.890  0.00  0.00    +0.000 A 
ATOM     26  C   UNL     1      -1.724  12.986  20.960  0.00  0.00    +0.000 A 
ATOM     27  F   UNL     1      -2.294  12.049  21.733  0.00  0.00    +0.000 F 
ATOM     28  C   UNL     1      -1.989  14.324  21.267  0.00  0.00    +0.000 A 
ATOM     29  C   UNL     1      -1.421  15.340  20.501  0.00  0.00    +0.000 A 
ATOM     30  C   UNL     1      -0.603  15.009  19.428  0.00  0.00    +0.000 A 
ATOM     31  C   UNL     1      -0.349  13.668  19.126  0.00  0.00    +0.000 A 
ATOM     32  F   UNL     1       0.444  13.428  18.072  0.00  0.00    +0.000 F 
ENDBRANCH  22  25
ENDBRANCH   4  21
TORSDOF 4
ENDMDL
MODEL 7
REMARK VINA RESULT:      -9.1      1.081      1.108
REMARK  Name = 
REMARK  6 active torsions:
REMARK  status: ('A' for Active; 'I' for Inactive)
REMARK    1  A    between atoms: C_1  and  C_2
REMARK    2  A    between atoms: C_5  and  C_6
REMARK    3  A    between atoms: N_8  and  C_9
REMARK    4  A    between atoms: C_14  and  C_15
REMARK    5  A    between atoms: C_18  and  N_19
REMARK    6  A    between atoms: C_20  and  C_22
REMARK                            x       y       z     vdW  Elec       q    Type
REMARK                         _______ _______ _______ _____ _____    ______ ____
ROOT
ATOM      1  C   UNL     1       2.276   7.384  18.934  0.00  0.00    +0.000 A 
ATOM      2  C   UNL     1       2.136   8.362  17.931  0.00  0.00    +0.000 A 
ATOM      3  C   UNL     1       1.569   9.624  18.185  0.00  0.00    +0.000 A 
ATOM      4  C   UNL     1       1.081   9.945  19.448  0.00  0.00    +0.000 A 
ATOM      5  C   UNL     1       1.199   8.991  20.456  0.00  0.00    +0.000 A 
ATOM      6  C   UNL     1       1.824   7.757  20.208  0.00  0.00    +0.000 A 
ENDROOT
BRANCH   1  13
ATOM      7  C   UNL     1       1.841   4.826  20.656  0.00  0.00    +0.000 C 
ATOM      8  C   UNL     1       2.713   4.884  19.426  0.00  0.00    +0.000 A 
ATOM      9  C   UNL     1       3.367   3.683  19.075  0.00  0.00    +0.000 A 
ATOM     10  C   UNL     1       4.175   3.596  17.944  0.00  0.00    +0.000 A 
ATOM     11  C   UNL     1       4.361   4.720  17.150  0.00  0.00    +0.000 A 
ATOM     12  C   UNL     1       3.739   5.929  17.504  0.00  0.00    +0.000 A 
ATOM     13  C   UNL     1       2.903   6.055  18.643  0.00  0.00    +0.000 A 
BRANCH  11  14
ATOM     14  C   UNL     1       5.213   4.622  15.956  0.00  0.00    +0.000 A 
ATOM     15  N   UNL     1       5.013   3.913  14.885  0.00  0.00    +0.000 NA
ATOM     16  N   UNL     1       6.110   4.215  14.129  0.00  0.00    +0.000 N 
ATOM     17  C   UNL     1       6.357   3.644  12.836  0.00  0.00    +0.000 C 
ATOM     18  C   UNL     1       6.942   5.089  14.781  0.00  0.00    +0.000 A 
ATOM     19  O   UNL     1       8.005   5.550  14.407  0.00  0.00    +0.000 OA
ATOM     20  O   UNL     1       6.347   5.360  15.976  0.00  0.00    +0.000 OA
ENDBRANCH  11  14
ENDBRANCH   1  13
BRANCH   4  21
ATOM     21  N   UNL     1       0.500  11.186  19.790  0.00  0.00    +0.000 N 
ATOM     22  C   UNL     1      -0.735  11.667  19.386  0.00  0.00    +0.000 C 
ATOM     23  O   UNL     1      -1.541  11.032  18.715  0.00  0.00    +0.000 OA
ATOM     24  H   UNL     1       1.078  11.796  20.360  0.00  0.00    +0.000 HD
BRANCH  22  25
ATOM     25  C   UNL     1      -1.086  13.060  19.788  0.00  0.00    +0.000 A 
ATOM     26  C   UNL     1      -0.452  14.189  19.262  0.00  0.00    +0.000 A 
ATOM     27  F   UNL     1       0.550  14.070  18.377  0.00  0.00    +0.000 F 
ATOM     28  C   UNL     1      -0.834  15.482  19.634  0.00  0.00    +0.000 A 
ATOM     29  C   UNL     1      -1.870  15.666  20.546  0.00  0.00    +0.000 A 
ATOM     30  C   UNL     1      -2.509  14.557  21.087  0.00  0.00    +0.000 A 
ATOM     31  C   UNL     1      -2.116  13.269  20.713  0.00  0.00    +0.000 A 
ATOM     32  F   UNL     1      -2.774  12.249  21.282  0.00  0.00    +0.000 F 
ENDBRANCH  22  25
ENDBRANCH   4  21
TORSDOF 4
ENDMDL
MODEL 8
REMARK VINA RESULT:      -9.0      1.165      1.214
REMARK  Name = 
REMARK  6 active torsions:
REMARK  status: ('A' for Active; 'I' for Inactive)
REMARK    1  A    between atoms: C_1  and  C_2
REMARK    2  A    between atoms: C_5  and  C_6
REMARK    3  A    between atoms: N_8  and  C_9
REMARK    4  A    between atoms: C_14  and  C_15
REMARK    5  A    between atoms: C_18  and  N_19
REMARK    6  A    between atoms: C_20  and  C_22
REMARK                            x       y       z     vdW  Elec       q    Type
REMARK                         _______ _______ _______ _____ _____    ______ ____
ROOT
ATOM      1  C   UNL     1       2.445   6.601  18.865  0.00  0.00    +0.000 A 
ATOM      2  C   UNL     1       2.272   7.712  18.018  0.00  0.00    +0.000 A 
ATOM      3  C   UNL     1       1.692   8.913  18.462  0.00  0.00    +0.000 A 
ATOM      4  C   UNL     1       1.221   9.039  19.765  0.00  0.00    +0.000 A 
ATOM      5  C   UNL     1       1.372   7.951  20.622  0.00  0.00    +0.000 A 
ATOM      6  C   UNL     1       2.010   6.777  20.187  0.00  0.00    +0.000 A 
ENDROOT
BRANCH   1  13
ATOM      7  C   UNL     1       2.009   3.798  20.150  0.00  0.00    +0.000 C 
ATOM      8  C   UNL     1       2.896   4.058  18.957  0.00  0.00    +0.000 A 
ATOM      9  C   UNL     1       3.564   2.932  18.427  0.00  0.00    +0.000 A 
ATOM     10  C   UNL     1       4.387   3.032  17.308  0.00  0.00    +0.000 A 
ATOM     11  C   UNL     1       4.574   4.270  16.706  0.00  0.00    +0.000 A 
ATOM     12  C   UNL     1       3.938   5.402  17.242  0.00  0.00    +0.000 A 
ATOM     13  C   UNL     1       3.086   5.339  18.375  0.00  0.00    +0.000 A 
BRANCH  11  14
ATOM     14  C   UNL     1       5.442   4.369  15.524  0.00  0.00    +0.000 A 
ATOM     15  N   UNL     1       5.296   3.784  14.373  0.00  0.00    +0.000 NA
ATOM     16  N   UNL     1       6.380   4.242  13.677  0.00  0.00    +0.000 N 
ATOM     17  C   UNL     1       6.674   3.849  12.329  0.00  0.00    +0.000 C 
ATOM     18  C   UNL     1       7.149   5.081  14.444  0.00  0.00    +0.000 A 
ATOM     19  O   UNL     1       8.184   5.648  14.146  0.00  0.00    +0.000 OA
ATOM     20  O   UNL     1       6.527   5.168  15.652  0.00  0.00    +0.000 OA
ENDBRANCH  11  14
ENDBRANCH   1  13
BRANCH   4  21
ATOM     21  N   UNL     1       0.628  10.207  20.294  0.00  0.00    +0.000 N 
ATOM     22  C   UNL     1       0.651  10.628  21.614  0.00  0.00    +0.000 C 
ATOM     23  O   UNL     1       1.266  10.063  22.512  0.00  0.00    +0.000 OA
ATOM     24  H   UNL     1       0.097  10.765  19.632  0.00  0.00    +0.000 HD
BRANCH  22  25
ATOM     25  C   UNL     1      -0.147  11.841  21.954  0.00  0.00    +0.000 A 
ATOM     26  C   UNL     1       0.126  13.107  21.427  0.00  0.00    +0.000 A 
ATOM     27  F   UNL     1       1.164  13.302  20.599  0.00  0.00    +0.000 F 
ATOM     28  C   UNL     1      -0.668  14.215  21.739  0.00  0.00    +0.000 A 
ATOM     29  C   UNL     1      -1.761  14.072  22.589  0.00  0.00    +0.000 A 
ATOM     30  C   UNL     1      -2.045  12.824  23.130  0.00  0.00    +0.000 A 
ATOM     31  C   UNL     1      -1.243  11.723  22.817  0.00  0.00    +0.000 A 
ATOM     32  F   UNL     1      -1.575  10.555  23.383  0.00  0.00    +0.000 F 
ENDBRANCH  22  25
ENDBRANCH   4  21
TORSDOF 4
ENDMDL
MODEL 9
REMARK VINA RESULT:      -8.8      1.056      1.828
REMARK  Name = 
REMARK  6 active torsions:
REMARK  status: ('A' for Active; 'I' for Inactive)
REMARK    1  A    between atoms: C_1  and  C_2
REMARK    2  A    between atoms: C_5  and  C_6
REMARK    3  A    between atoms: N_8  and  C_9
REMARK    4  A    between atoms: C_14  and  C_15
REMARK    5  A    between atoms: C_18  and  N_19
REMARK    6  A    between atoms: C_20  and  C_22
REMARK                            x       y       z     vdW  Elec       q    Type
REMARK                         _______ _______ _______ _____ _____    ______ ____
ROOT
ATOM      1  C   UNL     1       2.640   6.925  18.583  0.00  0.00    +0.000 A 
ATOM      2  C   UNL     1       2.448   7.994  17.687  0.00  0.00    +0.000 A 
ATOM      3  C   UNL     1       1.849   9.204  18.080  0.00  0.00    +0.000 A 
ATOM      4  C   UNL     1       1.380   9.380  19.377  0.00  0.00    +0.000 A 
ATOM      5  C   UNL     1       1.549   8.334  20.281  0.00  0.00    +0.000 A 
ATOM      6  C   UNL     1       2.205   7.152  19.897  0.00  0.00    +0.000 A 
ENDROOT
BRANCH   1  13
ATOM      7  C   UNL     1       2.243   4.172  19.985  0.00  0.00    +0.000 C 
ATOM      8  C   UNL     1       3.128   4.394  18.783  0.00  0.00    +0.000 A 
ATOM      9  C   UNL     1       3.813   3.256  18.302  0.00  0.00    +0.000 A 
ATOM     10  C   UNL     1       4.636   3.321  17.181  0.00  0.00    +0.000 A 
ATOM     11  C   UNL     1       4.806   4.534  16.527  0.00  0.00    +0.000 A 
ATOM     12  C   UNL     1       4.153   5.679  17.013  0.00  0.00    +0.000 A 
ATOM     13  C   UNL     1       3.300   5.652  18.147  0.00  0.00    +0.000 A 
BRANCH  11  14
ATOM     14  C   UNL     1       5.674   4.596  15.342  0.00  0.00    +0.000 A 
ATOM     15  N   UNL     1       6.655   5.416  15.111  0.00  0.00    +0.000 NA
ATOM     16  N   UNL     1       7.088   5.008  13.881  0.00  0.00    +0.000 N 
ATOM     17  C   UNL     1       8.167   5.639  13.176  0.00  0.00    +0.000 C 
ATOM     18  C   UNL     1       6.339   3.961  13.408  0.00  0.00    +0.000 A 
ATOM     19  O   UNL     1       6.441   3.370  12.349  0.00  0.00    +0.000 OA
ATOM     20  O   UNL     1       5.417   3.688  14.373  0.00  0.00    +0.000 OA
ENDBRANCH  11  14
ENDBRANCH   1  13
BRANCH   4  21
ATOM     21  N   UNL     1       0.769  10.561  19.856  0.00  0.00    +0.000 N 
ATOM     22  C   UNL     1      -0.514  11.006  19.578  0.00  0.00    +0.000 C 
ATOM     23  O   UNL     1      -1.336  10.382  18.917  0.00  0.00    +0.000 OA
ATOM     24  H   UNL     1       1.359  11.156  20.430  0.00  0.00    +0.000 HD
BRANCH  22  25
ATOM     25  C   UNL     1      -0.898  12.345  20.110  0.00  0.00    +0.000 A 
ATOM     26  C   UNL     1      -1.444  12.534  21.382  0.00  0.00    +0.000 A 
ATOM     27  F   UNL     1      -1.689  11.491  22.191  0.00  0.00    +0.000 F 
ATOM     28  C   UNL     1      -1.757  13.810  21.863  0.00  0.00    +0.000 A 
ATOM     29  C   UNL     1      -1.521  14.929  21.068  0.00  0.00    +0.000 A 
ATOM     30  C   UNL     1      -0.985  14.763  19.797  0.00  0.00    +0.000 A 
ATOM     31  C   UNL     1      -0.682  13.484  19.325  0.00  0.00    +0.000 A 
ATOM     32  F   UNL     1      -0.175  13.403  18.086  0.00  0.00    +0.000 F 
ENDBRANCH  22  25
ENDBRANCH   4  21
TORSDOF 4
ENDMDL
