MODEL 1
REMARK VINA RESULT:      -7.0      0.000      0.000
REMARK  Name = 
REMARK  5 active torsions:
REMARK  status: ('A' for Active; 'I' for Inactive)
REMARK    1  A    between atoms: C_1  and  O_2
REMARK    2  A    between atoms: O_2  and  C_3
REMARK    3  A    between atoms: C_8  and  O_9
REMARK    4  A    between atoms: C_12  and  C_13
REMARK    5  A    between atoms: C_14  and  C_15
REMARK                            x       y       z     vdW  Elec       q    Type
REMARK                         _______ _______ _______ _____ _____    ______ ____
ROOT
ATOM      1  C   UNL     1       6.354   5.911  16.908  0.00  0.00    +0.000 A 
ATOM      2  C   UNL     1       5.558   6.115  18.039  0.00  0.00    +0.000 A 
ATOM      3  C   UNL     1       4.400   5.350  18.253  0.00  0.00    +0.000 A 
ATOM      4  C   UNL     1       4.053   4.363  17.322  0.00  0.00    +0.000 A 
ATOM      5  C   UNL     1       4.826   4.171  16.169  0.00  0.00    +0.000 A 
ATOM      6  C   UNL     1       5.967   4.947  15.970  0.00  0.00    +0.000 A 
ATOM      7  C   UNL     1       2.870   3.494  17.562  0.00  0.00    +0.000 C 
ATOM      8  O   UNL     1       2.479   2.747  16.670  0.00  0.00    +0.000 OA
ATOM      9  C   UNL     1       2.255   3.541  18.958  0.00  0.00    +0.000 C 
ATOM     10  C   UNL     1       0.900   2.832  18.968  0.00  0.00    +0.000 C 
ATOM     11  C   UNL     1       2.176   5.008  19.422  0.00  0.00    +0.000 C 
ATOM     12  C   UNL     1       1.485   5.185  20.776  0.00  0.00    +0.000 C 
ATOM     13  C   UNL     1       3.594   5.591  19.502  0.00  0.00    +0.000 C 
ENDROOT
BRANCH   1  15
ATOM     14  C   UNL     1       7.732   7.748  17.488  0.00  0.00    +0.000 C 
ATOM     15  O   UNL     1       7.488   6.632  16.638  0.00  0.00    +0.000 OA
ENDBRANCH   1  15
BRANCH   6  16
ATOM     16  O   UNL     1       6.735   4.749  14.854  0.00  0.00    +0.000 OA
ATOM     17  H   UNL     1       7.595   5.180  14.974  0.00  0.00    +0.000 HD
ENDBRANCH   6  16
TORSDOF 2
ENDMDL
MODEL 2
REMARK VINA RESULT:      -6.9      1.510      2.895
REMARK  Name = 
REMARK  5 active torsions:
REMARK  status: ('A' for Active; 'I' for Inactive)
REMARK    1  A    between atoms: C_1  and  O_2
REMARK    2  A    between atoms: O_2  and  C_3
REMARK    3  A    between atoms: C_8  and  O_9
REMARK    4  A    between atoms: C_12  and  C_13
REMARK    5  A    between atoms: C_14  and  C_15
REMARK                            x       y       z     vdW  Elec       q    Type
REMARK                         _______ _______ _______ _____ _____    ______ ____
ROOT
ATOM      1  C   UNL     1       5.741   5.023  15.848  0.00  0.00    +0.000 A 
ATOM      2  C   UNL     1       4.810   4.011  16.101  0.00  0.00    +0.000 A 
ATOM      3  C   UNL     1       3.901   4.117  17.166  0.00  0.00    +0.000 A 
ATOM      4  C   UNL     1       3.927   5.262  17.973  0.00  0.00    +0.000 A 
ATOM      5  C   UNL     1       4.876   6.268  17.749  0.00  0.00    +0.000 A 
ATOM      6  C   UNL     1       5.776   6.139  16.692  0.00  0.00    +0.000 A 
ATOM      7  C   UNL     1       2.929   5.428  19.064  0.00  0.00    +0.000 C 
ATOM      8  O   UNL     1       3.059   6.348  19.865  0.00  0.00    +0.000 OA
ATOM      9  C   UNL     1       1.746   4.463  19.066  0.00  0.00    +0.000 C 
ATOM     10  C   UNL     1       0.978   4.566  20.384  0.00  0.00    +0.000 C 
ATOM     11  C   UNL     1       2.260   3.040  18.772  0.00  0.00    +0.000 C 
ATOM     12  C   UNL     1       1.169   1.969  18.844  0.00  0.00    +0.000 C 
ATOM     13  C   UNL     1       2.900   3.012  17.376  0.00  0.00    +0.000 C 
ENDROOT
BRANCH   1  15
ATOM     14  C   UNL     1       6.381   4.046  13.788  0.00  0.00    +0.000 C 
ATOM     15  O   UNL     1       6.660   4.972  14.833  0.00  0.00    +0.000 OA
ENDBRANCH   1  15
BRANCH   6  16
ATOM     16  O   UNL     1       6.693   7.129  16.458  0.00  0.00    +0.000 OA
ATOM     17  H   UNL     1       7.309   7.180  17.203  0.00  0.00    +0.000 HD
ENDBRANCH   6  16
TORSDOF 2
ENDMDL
MODEL 3
REMARK VINA RESULT:      -6.6      1.793      5.241
REMARK  Name = 
REMARK  5 active torsions:
REMARK  status: ('A' for Active; 'I' for Inactive)
REMARK    1  A    between atoms: C_1  and  O_2
REMARK    2  A    between atoms: O_2  and  C_3
REMARK    3  A    between atoms: C_8  and  O_9
REMARK    4  A    between atoms: C_12  and  C_13
REMARK    5  A    between atoms: C_14  and  C_15
REMARK                            x       y       z     vdW  Elec       q    Type
REMARK                         _______ _______ _______ _____ _____    ______ ____
ROOT
ATOM      1  C   UNL     1       2.022   3.750  19.733  0.00  0.00    +0.000 A 
ATOM      2  C   UNL     1       3.214   4.427  20.010  0.00  0.00    +0.000 A 
ATOM      3  C   UNL     1       4.178   4.630  19.009  0.00  0.00    +0.000 A 
ATOM      4  C   UNL     1       3.928   4.154  17.716  0.00  0.00    +0.000 A 
ATOM      5  C   UNL     1       2.753   3.446  17.433  0.00  0.00    +0.000 A 
ATOM      6  C   UNL     1       1.811   3.248  18.443  0.00  0.00    +0.000 A 
ATOM      7  C   UNL     1       4.904   4.416  16.623  0.00  0.00    +0.000 C 
ATOM      8  O   UNL     1       4.759   3.859  15.539  0.00  0.00    +0.000 OA
ATOM      9  C   UNL     1       6.000   5.438  16.912  0.00  0.00    +0.000 C 
ATOM     10  C   UNL     1       7.075   5.387  15.826  0.00  0.00    +0.000 C 
ATOM     11  C   UNL     1       6.555   5.191  18.328  0.00  0.00    +0.000 C 
ATOM     12  C   UNL     1       7.731   6.102  18.691  0.00  0.00    +0.000 C 
ATOM     13  C   UNL     1       5.431   5.391  19.354  0.00  0.00    +0.000 C 
ENDROOT
BRANCH   1  15
ATOM     14  C   UNL     1       1.428   2.680  21.760  0.00  0.00    +0.000 C 
ATOM     15  O   UNL     1       1.050   3.512  20.668  0.00  0.00    +0.000 OA
ENDBRANCH   1  15
BRANCH   6  16
ATOM     16  O   UNL     1       0.652   2.573  18.167  0.00  0.00    +0.000 OA
ATOM     17  H   UNL     1       0.100   2.541  18.962  0.00  0.00    +0.000 HD
ENDBRANCH   6  16
TORSDOF 2
ENDMDL
MODEL 4
REMARK VINA RESULT:      -6.6      1.191      1.227
REMARK  Name = 
REMARK  5 active torsions:
REMARK  status: ('A' for Active; 'I' for Inactive)
REMARK    1  A    between atoms: C_1  and  O_2
REMARK    2  A    between atoms: O_2  and  C_3
REMARK    3  A    between atoms: C_8  and  O_9
REMARK    4  A    between atoms: C_12  and  C_13
REMARK    5  A    between atoms: C_14  and  C_15
REMARK                            x       y       z     vdW  Elec       q    Type
REMARK                         _______ _______ _______ _____ _____    ______ ____
ROOT
ATOM      1  C   UNL     1       6.519   5.235  17.665  0.00  0.00    +0.000 A 
ATOM      2  C   UNL     1       5.935   4.814  18.863  0.00  0.00    +0.000 A 
ATOM      3  C   UNL     1       4.661   4.223  18.876  0.00  0.00    +0.000 A 
ATOM      4  C   UNL     1       3.979   4.045  17.666  0.00  0.00    +0.000 A 
ATOM      5  C   UNL     1       4.540   4.492  16.462  0.00  0.00    +0.000 A 
ATOM      6  C   UNL     1       5.803   5.085  16.471  0.00  0.00    +0.000 A 
ATOM      7  C   UNL     1       2.659   3.360  17.647  0.00  0.00    +0.000 C 
ATOM      8  O   UNL     1       1.997   3.354  16.614  0.00  0.00    +0.000 OA
ATOM      9  C   UNL     1       2.244   2.633  18.923  0.00  0.00    +0.000 C 
ATOM     10  C   UNL     1       0.770   2.233  18.853  0.00  0.00    +0.000 C 
ATOM     11  C   UNL     1       2.575   3.522  20.137  0.00  0.00    +0.000 C 
ATOM     12  C   UNL     1       2.113   2.932  21.471  0.00  0.00    +0.000 C 
ATOM     13  C   UNL     1       4.091   3.761  20.192  0.00  0.00    +0.000 C 
ENDROOT
BRANCH   1  15
ATOM     14  C   UNL     1       7.828   7.166  18.071  0.00  0.00    +0.000 C 
ATOM     15  O   UNL     1       7.751   5.828  17.589  0.00  0.00    +0.000 OA
ENDBRANCH   1  15
BRANCH   6  16
ATOM     16  O   UNL     1       6.362   5.505  15.295  0.00  0.00    +0.000 OA
ATOM     17  H   UNL     1       5.770   6.140  14.865  0.00  0.00    +0.000 HD
ENDBRANCH   6  16
TORSDOF 2
ENDMDL
MODEL 5
REMARK VINA RESULT:      -6.4      2.536      3.794
REMARK  Name = 
REMARK  5 active torsions:
REMARK  status: ('A' for Active; 'I' for Inactive)
REMARK    1  A    between atoms: C_1  and  O_2
REMARK    2  A    between atoms: O_2  and  C_3
REMARK    3  A    between atoms: C_8  and  O_9
REMARK    4  A    between atoms: C_12  and  C_13
REMARK    5  A    between atoms: C_14  and  C_15
REMARK                            x       y       z     vdW  Elec       q    Type
REMARK                         _______ _______ _______ _____ _____    ______ ____
ROOT
ATOM      1  C   UNL     1       4.733   4.191  17.088  0.00  0.00    +0.000 A 
ATOM      2  C   UNL     1       4.403   5.538  16.909  0.00  0.00    +0.000 A 
ATOM      3  C   UNL     1       3.554   6.199  17.811  0.00  0.00    +0.000 A 
ATOM      4  C   UNL     1       3.045   5.495  18.909  0.00  0.00    +0.000 A 
ATOM      5  C   UNL     1       3.342   4.136  19.082  0.00  0.00    +0.000 A 
ATOM      6  C   UNL     1       4.180   3.495  18.170  0.00  0.00    +0.000 A 
ATOM      7  C   UNL     1       2.199   6.192  19.915  0.00  0.00    +0.000 C 
ATOM      8  O   UNL     1       1.625   5.535  20.779  0.00  0.00    +0.000 OA
ATOM      9  C   UNL     1       2.162   7.716  19.844  0.00  0.00    +0.000 C 
ATOM     10  C   UNL     1       1.046   8.263  20.735  0.00  0.00    +0.000 C 
ATOM     11  C   UNL     1       2.027   8.145  18.370  0.00  0.00    +0.000 C 
ATOM     12  C   UNL     1       1.884   9.658  18.185  0.00  0.00    +0.000 C 
ATOM     13  C   UNL     1       3.255   7.658  17.587  0.00  0.00    +0.000 C 
ENDROOT
BRANCH   1  15
ATOM     14  C   UNL     1       5.998   4.195  15.086  0.00  0.00    +0.000 C 
ATOM     15  O   UNL     1       5.545   3.489  16.237  0.00  0.00    +0.000 OA
ENDBRANCH   1  15
BRANCH   6  16
ATOM     16  O   UNL     1       4.489   2.173  18.346  0.00  0.00    +0.000 OA
ATOM     17  H   UNL     1       4.311   1.689  17.526  0.00  0.00    +0.000 HD
ENDBRANCH   6  16
TORSDOF 2
ENDMDL
MODEL 6
REMARK VINA RESULT:      -6.4      3.641      4.879
REMARK  Name = 
REMARK  5 active torsions:
REMARK  status: ('A' for Active; 'I' for Inactive)
REMARK    1  A    between atoms: C_1  and  O_2
REMARK    2  A    between atoms: O_2  and  C_3
REMARK    3  A    between atoms: C_8  and  O_9
REMARK    4  A    between atoms: C_12  and  C_13
REMARK    5  A    between atoms: C_14  and  C_15
REMARK                            x       y       z     vdW  Elec       q    Type
REMARK                         _______ _______ _______ _____ _____    ______ ____
ROOT
ATOM      1  C   UNL     1       1.429   8.993  19.517  0.00  0.00    +0.000 A 
ATOM      2  C   UNL     1       1.414   7.888  20.374  0.00  0.00    +0.000 A 
ATOM      3  C   UNL     1       2.012   6.675  19.997  0.00  0.00    +0.000 A 
ATOM      4  C   UNL     1       2.639   6.583  18.748  0.00  0.00    +0.000 A 
ATOM      5  C   UNL     1       2.632   7.672  17.867  0.00  0.00    +0.000 A 
ATOM      6  C   UNL     1       2.025   8.866  18.257  0.00  0.00    +0.000 A 
ATOM      7  C   UNL     1       3.338   5.329  18.355  0.00  0.00    +0.000 C 
ATOM      8  O   UNL     1       3.740   5.199  17.203  0.00  0.00    +0.000 OA
ATOM      9  C   UNL     1       3.574   4.300  19.456  0.00  0.00    +0.000 C 
ATOM     10  C   UNL     1       4.031   2.971  18.854  0.00  0.00    +0.000 C 
ATOM     11  C   UNL     1       2.295   4.174  20.307  0.00  0.00    +0.000 C 
ATOM     12  C   UNL     1       2.385   3.095  21.389  0.00  0.00    +0.000 C 
ATOM     13  C   UNL     1       1.993   5.525  20.970  0.00  0.00    +0.000 C 
ENDROOT
BRANCH   1  15
ATOM     14  C   UNL     1      -0.569  10.238  19.778  0.00  0.00    +0.000 C 
ATOM     15  O   UNL     1       0.854  10.198  19.823  0.00  0.00    +0.000 OA
ENDBRANCH   1  15
BRANCH   6  16
ATOM     16  O   UNL     1       2.034   9.940  17.407  0.00  0.00    +0.000 OA
ATOM     17  H   UNL     1       1.586  10.688  17.829  0.00  0.00    +0.000 HD
ENDBRANCH   6  16
TORSDOF 2
ENDMDL
MODEL 7
REMARK VINA RESULT:      -6.3      2.032      2.902
REMARK  Name = 
REMARK  5 active torsions:
REMARK  status: ('A' for Active; 'I' for Inactive)
REMARK    1  A    between atoms: C_1  and  O_2
REMARK    2  A    between atoms: O_2  and  C_3
REMARK    3  A    between atoms: C_8  and  O_9
REMARK    4  A    between atoms: C_12  and  C_13
REMARK    5  A    between atoms: C_14  and  C_15
REMARK                            x       y       z     vdW  Elec       q    Type
REMARK                         _______ _______ _______ _____ _____    ______ ____
ROOT
ATOM      1  C   UNL     1       5.676   4.549  15.673  0.00  0.00    +0.000 A 
ATOM      2  C   UNL     1       4.327   4.255  15.891  0.00  0.00    +0.000 A 
ATOM      3  C   UNL     1       3.874   3.839  17.153  0.00  0.00    +0.000 A 
ATOM      4  C   UNL     1       4.792   3.731  18.206  0.00  0.00    +0.000 A 
ATOM      5  C   UNL     1       6.152   3.992  17.992  0.00  0.00    +0.000 A 
ATOM      6  C   UNL     1       6.584   4.395  16.728  0.00  0.00    +0.000 A 
ATOM      7  C   UNL     1       4.325   3.358  19.568  0.00  0.00    +0.000 C 
ATOM      8  O   UNL     1       5.150   3.107  20.441  0.00  0.00    +0.000 OA
ATOM      9  C   UNL     1       2.818   3.386  19.809  0.00  0.00    +0.000 C 
ATOM     10  C   UNL     1       2.479   2.712  21.139  0.00  0.00    +0.000 C 
ATOM     11  C   UNL     1       2.106   2.742  18.603  0.00  0.00    +0.000 C 
ATOM     12  C   UNL     1       0.590   2.628  18.778  0.00  0.00    +0.000 C 
ATOM     13  C   UNL     1       2.405   3.563  17.341  0.00  0.00    +0.000 C 
ENDROOT
BRANCH   1  15
ATOM     14  C   UNL     1       6.304   3.930  13.475  0.00  0.00    +0.000 C 
ATOM     15  O   UNL     1       6.180   4.948  14.463  0.00  0.00    +0.000 OA
ENDBRANCH   1  15
BRANCH   6  16
ATOM     16  O   UNL     1       7.909   4.670  16.520  0.00  0.00    +0.000 OA
ATOM     17  H   UNL     1       8.188   4.287  15.675  0.00  0.00    +0.000 HD
ENDBRANCH   6  16
TORSDOF 2
ENDMDL
MODEL 8
REMARK VINA RESULT:      -6.2      2.247      3.043
REMARK  Name = 
REMARK  5 active torsions:
REMARK  status: ('A' for Active; 'I' for Inactive)
REMARK    1  A    between atoms: C_1  and  O_2
REMARK    2  A    between atoms: O_2  and  C_3
REMARK    3  A    between atoms: C_8  and  O_9
REMARK    4  A    between atoms: C_12  and  C_13
REMARK    5  A    between atoms: C_14  and  C_15
REMARK                            x       y       z     vdW  Elec       q    Type
REMARK                         _______ _______ _______ _____ _____    ______ ____
ROOT
ATOM      1  C   UNL     1       6.461   5.748  16.502  0.00  0.00    +0.000 A 
ATOM      2  C   UNL     1       5.462   6.724  16.445  0.00  0.00    +0.000 A 
ATOM      3  C   UNL     1       4.445   6.772  17.413  0.00  0.00    +0.000 A 
ATOM      4  C   UNL     1       4.448   5.833  18.453  0.00  0.00    +0.000 A 
ATOM      5  C   UNL     1       5.426   4.831  18.502  0.00  0.00    +0.000 A 
ATOM      6  C   UNL     1       6.422   4.794  17.526  0.00  0.00    +0.000 A 
ATOM      7  C   UNL     1       3.422   5.907  19.527  0.00  0.00    +0.000 C 
ATOM      8  O   UNL     1       3.331   4.990  20.338  0.00  0.00    +0.000 OA
ATOM      9  C   UNL     1       2.582   7.180  19.589  0.00  0.00    +0.000 C 
ATOM     10  C   UNL     1       1.400   6.991  20.540  0.00  0.00    +0.000 C 
ATOM     11  C   UNL     1       2.157   7.570  18.161  0.00  0.00    +0.000 C 
ATOM     12  C   UNL     1       1.227   8.785  18.110  0.00  0.00    +0.000 C 
ATOM     13  C   UNL     1       3.410   7.862  17.322  0.00  0.00    +0.000 C 
ENDROOT
BRANCH   1  15
ATOM     14  C   UNL     1       7.143   4.966  14.373  0.00  0.00    +0.000 C 
ATOM     15  O   UNL     1       7.471   5.642  15.583  0.00  0.00    +0.000 OA
ENDBRANCH   1  15
BRANCH   6  16
ATOM     16  O   UNL     1       7.391   3.828  17.582  0.00  0.00    +0.000 OA
ATOM     17  H   UNL     1       7.767   3.801  18.475  0.00  0.00    +0.000 HD
ENDBRANCH   6  16
TORSDOF 2
ENDMDL
MODEL 9
REMARK VINA RESULT:      -6.2      1.626      1.632
REMARK  Name = 
REMARK  5 active torsions:
REMARK  status: ('A' for Active; 'I' for Inactive)
REMARK    1  A    between atoms: C_1  and  O_2
REMARK    2  A    between atoms: O_2  and  C_3
REMARK    3  A    between atoms: C_8  and  O_9
REMARK    4  A    between atoms: C_12  and  C_13
REMARK    5  A    between atoms: C_14  and  C_15
REMARK                            x       y       z     vdW  Elec       q    Type
REMARK                         _______ _______ _______ _____ _____    ______ ____
ROOT
ATOM      1  C   UNL     1       6.304   6.220  17.386  0.00  0.00    +0.000 A 
ATOM      2  C   UNL     1       5.099   6.572  18.002  0.00  0.00    +0.000 A 
ATOM      3  C   UNL     1       4.328   5.614  18.679  0.00  0.00    +0.000 A 
ATOM      4  C   UNL     1       4.785   4.291  18.742  0.00  0.00    +0.000 A 
ATOM      5  C   UNL     1       5.974   3.919  18.101  0.00  0.00    +0.000 A 
ATOM      6  C   UNL     1       6.722   4.884  17.426  0.00  0.00    +0.000 A 
ATOM      7  C   UNL     1       4.020   3.273  19.511  0.00  0.00    +0.000 C 
ATOM      8  O   UNL     1       4.336   2.090  19.425  0.00  0.00    +0.000 OA
ATOM      9  C   UNL     1       2.916   3.792  20.428  0.00  0.00    +0.000 C 
ATOM     10  C   UNL     1       2.044   2.635  20.918  0.00  0.00    +0.000 C 
ATOM     11  C   UNL     1       2.119   4.882  19.686  0.00  0.00    +0.000 C 
ATOM     12  C   UNL     1       0.921   5.409  20.480  0.00  0.00    +0.000 C 
ATOM     13  C   UNL     1       3.053   6.053  19.351  0.00  0.00    +0.000 C 
ENDROOT
BRANCH   1  15
ATOM     14  C   UNL     1       7.786   8.063  17.497  0.00  0.00    +0.000 C 
ATOM     15  O   UNL     1       7.094   7.106  16.702  0.00  0.00    +0.000 OA
ENDBRANCH   1  15
BRANCH   6  16
ATOM     16  O   UNL     1       7.894   4.529  16.815  0.00  0.00    +0.000 OA
ATOM     17  H   UNL     1       8.458   4.059  17.447  0.00  0.00    +0.000 HD
ENDBRANCH   6  16
TORSDOF 2
ENDMDL
