MODEL 1
REMARK VINA RESULT:      -7.2      0.000      0.000
REMARK  Name = 
REMARK  6 active torsions:
REMARK  status: ('A' for Active; 'I' for Inactive)
REMARK    1  A    between atoms: C_1  and  N_2
REMARK    2  A    between atoms: N_2  and  C_3
REMARK    3  A    between atoms: C_4  and  C_6
REMARK    4  A    between atoms: C_8  and  O_9
REMARK    5  A    between atoms: O_9  and  C_10
REMARK    6  A    between atoms: C_10  and  C_11
REMARK                            x       y       z     vdW  Elec       q    Type
REMARK                         _______ _______ _______ _____ _____    ______ ____
ROOT
ATOM      1  C   UNL     1       6.919   4.907  15.864  0.00  0.00    +0.000 A 
ATOM      2  C   UNL     1       5.797   5.341  16.540  0.00  0.00    +0.000 A 
ATOM      3  C   UNL     1       6.083   5.066  17.883  0.00  0.00    +0.000 A 
ATOM      4  N   UNL     1       7.278   4.492  18.043  0.00  0.00    +0.000 NA
ATOM      5  O   UNL     1       7.811   4.419  16.773  0.00  0.00    +0.000 OA
ENDROOT
BRANCH   1   9
ATOM      6  C   UNL     1       7.068   4.149  12.180  0.00  0.00    +0.000 C 
ATOM      7  N   UNL     1       6.568   4.209  13.540  0.00  0.00    +0.000 N 
ATOM      8  C   UNL     1       5.288   3.575  13.826  0.00  0.00    +0.000 C 
ATOM      9  C   UNL     1       7.291   4.974  14.469  0.00  0.00    +0.000 C 
ATOM     10  O   UNL     1       8.226   5.687  14.095  0.00  0.00    +0.000 OA
ENDBRANCH   1   9
BRANCH   3  11
ATOM     11  O   UNL     1       5.281   5.301  18.945  0.00  0.00    +0.000 OA
BRANCH  11  12
ATOM     12  C   UNL     1       4.033   5.889  18.576  0.00  0.00    +0.000 C 
BRANCH  12  13
ATOM     13  C   UNL     1       2.903   4.980  18.988  0.00  0.00    +0.000 A 
ATOM     14  C   UNL     1       2.308   4.123  18.051  0.00  0.00    +0.000 A 
ATOM     15  C   UNL     1       1.286   3.256  18.434  0.00  0.00    +0.000 A 
ATOM     16  C   UNL     1       0.842   3.243  19.754  0.00  0.00    +0.000 A 
ATOM     17  C   UNL     1       1.414   4.103  20.690  0.00  0.00    +0.000 A 
ATOM     18  C   UNL     1       2.437   4.972  20.310  0.00  0.00    +0.000 A 
ENDBRANCH  12  13
ENDBRANCH  11  12
ENDBRANCH   3  11
TORSDOF 4
ENDMDL
MODEL 2
REMARK VINA RESULT:      -7.0      0.986      1.496
REMARK  Name = 
REMARK  6 active torsions:
REMARK  status: ('A' for Active; 'I' for Inactive)
REMARK    1  A    between atoms: C_1  and  N_2
REMARK    2  A    between atoms: N_2  and  C_3
REMARK    3  A    between atoms: C_4  and  C_6
REMARK    4  A    between atoms: C_8  and  O_9
REMARK    5  A    between atoms: O_9  and  C_10
REMARK    6  A    between atoms: C_10  and  C_11
REMARK                            x       y       z     vdW  Elec       q    Type
REMARK                         _______ _______ _______ _____ _____    ______ ____
ROOT
ATOM      1  C   UNL     1       6.137   5.000  15.507  0.00  0.00    +0.000 A 
ATOM      2  C   UNL     1       5.291   5.963  16.018  0.00  0.00    +0.000 A 
ATOM      3  C   UNL     1       4.958   5.480  17.289  0.00  0.00    +0.000 A 
ATOM      4  N   UNL     1       5.530   4.304  17.554  0.00  0.00    +0.000 NA
ATOM      5  O   UNL     1       6.292   4.019  16.441  0.00  0.00    +0.000 OA
ENDROOT
BRANCH   1   9
ATOM      6  C   UNL     1       7.249   3.935  12.072  0.00  0.00    +0.000 C 
ATOM      7  N   UNL     1       6.395   4.135  13.227  0.00  0.00    +0.000 N 
ATOM      8  C   UNL     1       5.041   3.601  13.177  0.00  0.00    +0.000 C 
ATOM      9  C   UNL     1       6.888   4.931  14.273  0.00  0.00    +0.000 C 
ATOM     10  O   UNL     1       7.942   5.556  14.136  0.00  0.00    +0.000 OA
ENDBRANCH   1   9
BRANCH   3  11
ATOM     11  O   UNL     1       4.138   6.069  18.187  0.00  0.00    +0.000 OA
BRANCH  11  12
ATOM     12  C   UNL     1       2.756   5.849  17.902  0.00  0.00    +0.000 C 
BRANCH  12  13
ATOM     13  C   UNL     1       2.203   4.808  18.842  0.00  0.00    +0.000 A 
ATOM     14  C   UNL     1       2.354   4.957  20.228  0.00  0.00    +0.000 A 
ATOM     15  C   UNL     1       1.815   4.016  21.104  0.00  0.00    +0.000 A 
ATOM     16  C   UNL     1       1.129   2.912  20.604  0.00  0.00    +0.000 A 
ATOM     17  C   UNL     1       0.989   2.744  19.227  0.00  0.00    +0.000 A 
ATOM     18  C   UNL     1       1.527   3.685  18.348  0.00  0.00    +0.000 A 
ENDBRANCH  12  13
ENDBRANCH  11  12
ENDBRANCH   3  11
TORSDOF 4
ENDMDL
MODEL 3
REMARK VINA RESULT:      -7.0      5.277      7.626
REMARK  Name = 
REMARK  6 active torsions:
REMARK  status: ('A' for Active; 'I' for Inactive)
REMARK    1  A    between atoms: C_1  and  N_2
REMARK    2  A    between atoms: N_2  and  C_3
REMARK    3  A    between atoms: C_4  and  C_6
REMARK    4  A    between atoms: C_8  and  O_9
REMARK    5  A    between atoms: O_9  and  C_10
REMARK    6  A    between atoms: C_10  and  C_11
REMARK                            x       y       z     vdW  Elec       q    Type
REMARK                         _______ _______ _______ _____ _____    ______ ____
ROOT
ATOM      1  C   UNL     1       6.645   5.940  17.440  0.00  0.00    +0.000 A 
ATOM      2  C   UNL     1       7.570   6.348  18.379  0.00  0.00    +0.000 A 
ATOM      3  C   UNL     1       7.858   7.669  18.017  0.00  0.00    +0.000 A 
ATOM      4  N   UNL     1       7.186   8.060  16.932  0.00  0.00    +0.000 NA
ATOM      5  O   UNL     1       6.404   6.978  16.589  0.00  0.00    +0.000 OA
ENDROOT
BRANCH   1   9
ATOM      6  C   UNL     1       4.146   3.200  18.088  0.00  0.00    +0.000 C 
ATOM      7  N   UNL     1       4.775   4.507  18.120  0.00  0.00    +0.000 N 
ATOM      8  C   UNL     1       4.139   5.552  18.910  0.00  0.00    +0.000 C 
ATOM      9  C   UNL     1       5.893   4.714  17.295  0.00  0.00    +0.000 C 
ATOM     10  O   UNL     1       6.221   3.861  16.467  0.00  0.00    +0.000 OA
ENDBRANCH   1   9
BRANCH   3  11
ATOM     11  O   UNL     1       8.725   8.504  18.632  0.00  0.00    +0.000 OA
BRANCH  11  12
ATOM     12  C   UNL     1       8.449   9.881  18.367  0.00  0.00    +0.000 C 
BRANCH  12  13
ATOM     13  C   UNL     1       9.622  10.725  18.798  0.00  0.00    +0.000 A 
ATOM     14  C   UNL     1      10.541  11.194  17.849  0.00  0.00    +0.000 A 
ATOM     15  C   UNL     1      11.608  12.003  18.237  0.00  0.00    +0.000 A 
ATOM     16  C   UNL     1      11.772  12.344  19.577  0.00  0.00    +0.000 A 
ATOM     17  C   UNL     1      10.875  11.868  20.532  0.00  0.00    +0.000 A 
ATOM     18  C   UNL     1       9.806  11.058  20.146  0.00  0.00    +0.000 A 
ENDBRANCH  12  13
ENDBRANCH  11  12
ENDBRANCH   3  11
TORSDOF 4
ENDMDL
MODEL 4
REMARK VINA RESULT:      -6.8      1.124      1.131
REMARK  Name = 
REMARK  6 active torsions:
REMARK  status: ('A' for Active; 'I' for Inactive)
REMARK    1  A    between atoms: C_1  and  N_2
REMARK    2  A    between atoms: N_2  and  C_3
REMARK    3  A    between atoms: C_4  and  C_6
REMARK    4  A    between atoms: C_8  and  O_9
REMARK    5  A    between atoms: O_9  and  C_10
REMARK    6  A    between atoms: C_10  and  C_11
REMARK                            x       y       z     vdW  Elec       q    Type
REMARK                         _______ _______ _______ _____ _____    ______ ____
ROOT
ATOM      1  C   UNL     1       6.472   5.231  15.447  0.00  0.00    +0.000 A 
ATOM      2  C   UNL     1       6.392   4.444  16.578  0.00  0.00    +0.000 A 
ATOM      3  C   UNL     1       5.583   5.184  17.448  0.00  0.00    +0.000 A 
ATOM      4  N   UNL     1       5.196   6.348  16.920  0.00  0.00    +0.000 NA
ATOM      5  O   UNL     1       5.736   6.361  15.651  0.00  0.00    +0.000 OA
ENDROOT
BRANCH   1   9
ATOM      6  C   UNL     1       7.182   3.801  12.037  0.00  0.00    +0.000 C 
ATOM      7  N   UNL     1       6.459   4.152  13.246  0.00  0.00    +0.000 N 
ATOM      8  C   UNL     1       5.084   3.691  13.376  0.00  0.00    +0.000 C 
ATOM      9  C   UNL     1       7.091   5.010  14.159  0.00  0.00    +0.000 C 
ATOM     10  O   UNL     1       8.154   5.561  13.863  0.00  0.00    +0.000 OA
ENDBRANCH   1   9
BRANCH   3  11
ATOM     11  O   UNL     1       5.215   4.837  18.701  0.00  0.00    +0.000 OA
BRANCH  11  12
ATOM     12  C   UNL     1       4.108   5.599  19.184  0.00  0.00    +0.000 C 
BRANCH  12  13
ATOM     13  C   UNL     1       2.917   4.696  19.381  0.00  0.00    +0.000 A 
ATOM     14  C   UNL     1       2.300   4.091  18.277  0.00  0.00    +0.000 A 
ATOM     15  C   UNL     1       1.220   3.227  18.456  0.00  0.00    +0.000 A 
ATOM     16  C   UNL     1       0.740   2.968  19.738  0.00  0.00    +0.000 A 
ATOM     17  C   UNL     1       1.334   3.579  20.840  0.00  0.00    +0.000 A 
ATOM     18  C   UNL     1       2.416   4.443  20.665  0.00  0.00    +0.000 A 
ENDBRANCH  12  13
ENDBRANCH  11  12
ENDBRANCH   3  11
TORSDOF 4
ENDMDL
MODEL 5
REMARK VINA RESULT:      -6.8      1.203      1.669
REMARK  Name = 
REMARK  6 active torsions:
REMARK  status: ('A' for Active; 'I' for Inactive)
REMARK    1  A    between atoms: C_1  and  N_2
REMARK    2  A    between atoms: N_2  and  C_3
REMARK    3  A    between atoms: C_4  and  C_6
REMARK    4  A    between atoms: C_8  and  O_9
REMARK    5  A    between atoms: O_9  and  C_10
REMARK    6  A    between atoms: C_10  and  C_11
REMARK                            x       y       z     vdW  Elec       q    Type
REMARK                         _______ _______ _______ _____ _____    ______ ____
ROOT
ATOM      1  C   UNL     1       6.354   5.316  15.330  0.00  0.00    +0.000 A 
ATOM      2  C   UNL     1       6.288   4.651  16.537  0.00  0.00    +0.000 A 
ATOM      3  C   UNL     1       5.403   5.424  17.300  0.00  0.00    +0.000 A 
ATOM      4  N   UNL     1       4.960   6.495  16.638  0.00  0.00    +0.000 NA
ATOM      5  O   UNL     1       5.540   6.408  15.390  0.00  0.00    +0.000 OA
ENDROOT
BRANCH   1   9
ATOM      6  C   UNL     1       7.201   3.646  12.063  0.00  0.00    +0.000 C 
ATOM      7  N   UNL     1       6.428   4.087  13.209  0.00  0.00    +0.000 N 
ATOM      8  C   UNL     1       5.042   3.651  13.306  0.00  0.00    +0.000 C 
ATOM      9  C   UNL     1       7.029   5.000  14.091  0.00  0.00    +0.000 C 
ATOM     10  O   UNL     1       8.112   5.517  13.807  0.00  0.00    +0.000 OA
ENDBRANCH   1   9
BRANCH   3  11
ATOM     11  O   UNL     1       5.017   5.189  18.573  0.00  0.00    +0.000 OA
BRANCH  11  12
ATOM     12  C   UNL     1       3.789   5.838  18.907  0.00  0.00    +0.000 C 
BRANCH  12  13
ATOM     13  C   UNL     1       2.730   4.804  19.194  0.00  0.00    +0.000 A 
ATOM     14  C   UNL     1       2.233   4.645  20.496  0.00  0.00    +0.000 A 
ATOM     15  C   UNL     1       1.230   3.714  20.761  0.00  0.00    +0.000 A 
ATOM     16  C   UNL     1       0.720   2.928  19.731  0.00  0.00    +0.000 A 
ATOM     17  C   UNL     1       1.219   3.065  18.437  0.00  0.00    +0.000 A 
ATOM     18  C   UNL     1       2.223   3.996  18.168  0.00  0.00    +0.000 A 
ENDBRANCH  12  13
ENDBRANCH  11  12
ENDBRANCH   3  11
TORSDOF 4
ENDMDL
MODEL 6
REMARK VINA RESULT:      -6.8      2.042      6.672
REMARK  Name = 
REMARK  6 active torsions:
REMARK  status: ('A' for Active; 'I' for Inactive)
REMARK    1  A    between atoms: C_1  and  N_2
REMARK    2  A    between atoms: N_2  and  C_3
REMARK    3  A    between atoms: C_4  and  C_6
REMARK    4  A    between atoms: C_8  and  O_9
REMARK    5  A    between atoms: O_9  and  C_10
REMARK    6  A    between atoms: C_10  and  C_11
REMARK                            x       y       z     vdW  Elec       q    Type
REMARK                         _______ _______ _______ _____ _____    ______ ____
ROOT
ATOM      1  C   UNL     1       4.274   3.551  18.839  0.00  0.00    +0.000 A 
ATOM      2  C   UNL     1       4.574   4.004  17.571  0.00  0.00    +0.000 A 
ATOM      3  C   UNL     1       5.898   4.448  17.675  0.00  0.00    +0.000 A 
ATOM      4  N   UNL     1       6.389   4.304  18.908  0.00  0.00    +0.000 NA
ATOM      5  O   UNL     1       5.372   3.715  19.630  0.00  0.00    +0.000 OA
ENDROOT
BRANCH   1   9
ATOM      6  C   UNL     1       1.220   2.892  20.940  0.00  0.00    +0.000 C 
ATOM      7  N   UNL     1       2.285   3.616  20.272  0.00  0.00    +0.000 N 
ATOM      8  C   UNL     1       2.364   5.056  20.475  0.00  0.00    +0.000 C 
ATOM      9  C   UNL     1       3.100   2.902  19.379  0.00  0.00    +0.000 C 
ATOM     10  O   UNL     1       2.815   1.743  19.067  0.00  0.00    +0.000 OA
ENDBRANCH   1   9
BRANCH   3  11
ATOM     11  O   UNL     1       6.647   4.994  16.692  0.00  0.00    +0.000 OA
BRANCH  11  12
ATOM     12  C   UNL     1       5.857   5.570  15.650  0.00  0.00    +0.000 C 
BRANCH  12  13
ATOM     13  C   UNL     1       6.221   4.939  14.330  0.00  0.00    +0.000 A 
ATOM     14  C   UNL     1       7.385   5.335  13.655  0.00  0.00    +0.000 A 
ATOM     15  C   UNL     1       7.745   4.731  12.451  0.00  0.00    +0.000 A 
ATOM     16  C   UNL     1       6.941   3.733  11.905  0.00  0.00    +0.000 A 
ATOM     17  C   UNL     1       5.773   3.345  12.558  0.00  0.00    +0.000 A 
ATOM     18  C   UNL     1       5.410   3.947  13.763  0.00  0.00    +0.000 A 
ENDBRANCH  12  13
ENDBRANCH  11  12
ENDBRANCH   3  11
TORSDOF 4
ENDMDL
MODEL 7
REMARK VINA RESULT:      -6.8      5.547      7.901
REMARK  Name = 
REMARK  6 active torsions:
REMARK  status: ('A' for Active; 'I' for Inactive)
REMARK    1  A    between atoms: C_1  and  N_2
REMARK    2  A    between atoms: N_2  and  C_3
REMARK    3  A    between atoms: C_4  and  C_6
REMARK    4  A    between atoms: C_8  and  O_9
REMARK    5  A    between atoms: O_9  and  C_10
REMARK    6  A    between atoms: C_10  and  C_11
REMARK                            x       y       z     vdW  Elec       q    Type
REMARK                         _______ _______ _______ _____ _____    ______ ____
ROOT
ATOM      1  C   UNL     1       6.972   6.212  17.494  0.00  0.00    +0.000 A 
ATOM      2  C   UNL     1       7.861   6.659  18.450  0.00  0.00    +0.000 A 
ATOM      3  C   UNL     1       8.045   8.011  18.135  0.00  0.00    +0.000 A 
ATOM      4  N   UNL     1       7.346   8.384  17.062  0.00  0.00    +0.000 NA
ATOM      5  O   UNL     1       6.652   7.257  16.677  0.00  0.00    +0.000 OA
ENDROOT
BRANCH   1   9
ATOM      6  C   UNL     1       4.520   3.379  17.860  0.00  0.00    +0.000 C 
ATOM      7  N   UNL     1       5.072   4.720  17.910  0.00  0.00    +0.000 N 
ATOM      8  C   UNL     1       4.246   5.778  18.477  0.00  0.00    +0.000 C 
ATOM      9  C   UNL     1       6.319   4.936  17.304  0.00  0.00    +0.000 C 
ATOM     10  O   UNL     1       6.843   4.050  16.625  0.00  0.00    +0.000 OA
ENDBRANCH   1   9
BRANCH   3  11
ATOM     11  O   UNL     1       8.842   8.889  18.782  0.00  0.00    +0.000 OA
BRANCH  11  12
ATOM     12  C   UNL     1       8.747  10.214  18.256  0.00  0.00    +0.000 C 
BRANCH  12  13
ATOM     13  C   UNL     1       9.903  11.043  18.756  0.00  0.00    +0.000 A 
ATOM     14  C   UNL     1      10.048  11.296  20.128  0.00  0.00    +0.000 A 
ATOM     15  C   UNL     1      11.134  12.032  20.600  0.00  0.00    +0.000 A 
ATOM     16  C   UNL     1      12.078  12.532  19.706  0.00  0.00    +0.000 A 
ATOM     17  C   UNL     1      11.933  12.302  18.339  0.00  0.00    +0.000 A 
ATOM     18  C   UNL     1      10.848  11.564  17.864  0.00  0.00    +0.000 A 
ENDBRANCH  12  13
ENDBRANCH  11  12
ENDBRANCH   3  11
TORSDOF 4
ENDMDL
MODEL 8
REMARK VINA RESULT:      -6.8      1.064      1.283
REMARK  Name = 
REMARK  6 active torsions:
REMARK  status: ('A' for Active; 'I' for Inactive)
REMARK    1  A    between atoms: C_1  and  N_2
REMARK    2  A    between atoms: N_2  and  C_3
REMARK    3  A    between atoms: C_4  and  C_6
REMARK    4  A    between atoms: C_8  and  O_9
REMARK    5  A    between atoms: O_9  and  C_10
REMARK    6  A    between atoms: C_10  and  C_11
REMARK                            x       y       z     vdW  Elec       q    Type
REMARK                         _______ _______ _______ _____ _____    ______ ____
ROOT
ATOM      1  C   UNL     1       6.848   5.146  15.386  0.00  0.00    +0.000 A 
ATOM      2  C   UNL     1       5.794   5.830  15.959  0.00  0.00    +0.000 A 
ATOM      3  C   UNL     1       5.933   5.579  17.329  0.00  0.00    +0.000 A 
ATOM      4  N   UNL     1       6.974   4.790  17.600  0.00  0.00    +0.000 NA
ATOM      5  O   UNL     1       7.563   4.542  16.378  0.00  0.00    +0.000 OA
ENDROOT
BRANCH   1   9
ATOM      6  C   UNL     1       7.242   3.991  11.825  0.00  0.00    +0.000 C 
ATOM      7  N   UNL     1       6.650   4.199  13.133  0.00  0.00    +0.000 N 
ATOM      8  C   UNL     1       5.349   3.601  13.398  0.00  0.00    +0.000 C 
ATOM      9  C   UNL     1       7.315   5.061  14.021  0.00  0.00    +0.000 C 
ATOM     10  O   UNL     1       8.278   5.728  13.636  0.00  0.00    +0.000 OA
ENDBRANCH   1   9
BRANCH   3  11
ATOM     11  O   UNL     1       5.128   6.027  18.318  0.00  0.00    +0.000 OA
BRANCH  11  12
ATOM     12  C   UNL     1       4.934   5.062  19.353  0.00  0.00    +0.000 C 
BRANCH  12  13
ATOM     13  C   UNL     1       3.758   4.182  19.012  0.00  0.00    +0.000 A 
ATOM     14  C   UNL     1       2.569   4.748  18.530  0.00  0.00    +0.000 A 
ATOM     15  C   UNL     1       1.491   3.937  18.181  0.00  0.00    +0.000 A 
ATOM     16  C   UNL     1       1.586   2.554  18.319  0.00  0.00    +0.000 A 
ATOM     17  C   UNL     1       2.756   1.982  18.814  0.00  0.00    +0.000 A 
ATOM     18  C   UNL     1       3.838   2.792  19.164  0.00  0.00    +0.000 A 
ENDBRANCH  12  13
ENDBRANCH  11  12
ENDBRANCH   3  11
TORSDOF 4
ENDMDL
MODEL 9
REMARK VINA RESULT:      -6.8      1.046      1.381
REMARK  Name = 
REMARK  6 active torsions:
REMARK  status: ('A' for Active; 'I' for Inactive)
REMARK    1  A    between atoms: C_1  and  N_2
REMARK    2  A    between atoms: N_2  and  C_3
REMARK    3  A    between atoms: C_4  and  C_6
REMARK    4  A    between atoms: C_8  and  O_9
REMARK    5  A    between atoms: O_9  and  C_10
REMARK    6  A    between atoms: C_10  and  C_11
REMARK                            x       y       z     vdW  Elec       q    Type
REMARK                         _______ _______ _______ _____ _____    ______ ____
ROOT
ATOM      1  C   UNL     1       6.951   4.805  15.758  0.00  0.00    +0.000 A 
ATOM      2  C   UNL     1       5.753   4.999  16.416  0.00  0.00    +0.000 A 
ATOM      3  C   UNL     1       6.070   4.792  17.764  0.00  0.00    +0.000 A 
ATOM      4  N   UNL     1       7.355   4.477  17.944  0.00  0.00    +0.000 NA
ATOM      5  O   UNL     1       7.911   4.513  16.682  0.00  0.00    +0.000 OA
ENDROOT
BRANCH   1   9
ATOM      6  C   UNL     1       7.112   4.226  12.042  0.00  0.00    +0.000 C 
ATOM      7  N   UNL     1       6.611   4.214  13.403  0.00  0.00    +0.000 N 
ATOM      8  C   UNL     1       5.340   3.548  13.657  0.00  0.00    +0.000 C 
ATOM      9  C   UNL     1       7.322   4.944  14.368  0.00  0.00    +0.000 C 
ATOM     10  O   UNL     1       8.246   5.688  14.029  0.00  0.00    +0.000 OA
ENDBRANCH   1   9
BRANCH   3  11
ATOM     11  O   UNL     1       5.221   4.860  18.813  0.00  0.00    +0.000 OA
BRANCH  11  12
ATOM     12  C   UNL     1       4.964   3.583  19.400  0.00  0.00    +0.000 C 
BRANCH  12  13
ATOM     13  C   UNL     1       3.512   3.490  19.796  0.00  0.00    +0.000 A 
ATOM     14  C   UNL     1       3.125   2.682  20.875  0.00  0.00    +0.000 A 
ATOM     15  C   UNL     1       1.789   2.619  21.268  0.00  0.00    +0.000 A 
ATOM     16  C   UNL     1       0.826   3.353  20.581  0.00  0.00    +0.000 A 
ATOM     17  C   UNL     1       1.196   4.145  19.495  0.00  0.00    +0.000 A 
ATOM     18  C   UNL     1       2.533   4.211  19.100  0.00  0.00    +0.000 A 
ENDBRANCH  12  13
ENDBRANCH  11  12
ENDBRANCH   3  11
TORSDOF 4
ENDMDL
