MODEL 1
REMARK VINA RESULT:      -5.6      0.000      0.000
REMARK  Name = 
REMARK  10 active torsions:
REMARK  status: ('A' for Active; 'I' for Inactive)
REMARK    1  A    between atoms: C_1  and  C_2
REMARK    2  A    between atoms: C_2  and  C_3
REMARK    3  A    between atoms: C_2  and  C_4
REMARK    4  A    between atoms: C_7  and  C_8
REMARK    5  A    between atoms: C_9  and  C_10
REMARK    6  A    between atoms: C_10  and  C_11
REMARK    7  A    between atoms: C_10  and  C_13
REMARK    8  A    between atoms: C_10  and  C_15
REMARK    9  A    between atoms: C_15  and  C_16
REMARK   10  A    between atoms: C_15  and  C_18
REMARK                            x       y       z     vdW  Elec       q    Type
REMARK                         _______ _______ _______ _____ _____    ______ ____
ROOT
ATOM      1  C   UNL     1       2.782   3.908  18.475  0.00  0.00    +0.000 C 
ATOM      2  C   UNL     1       1.971   5.039  19.123  0.00  0.00    +0.000 C 
ATOM      3  C   UNL     1       2.865   6.145  19.692  0.00  0.00    +0.000 C 
ATOM      4  C   UNL     1       3.803   6.761  18.622  0.00  0.00    +0.000 C 
ATOM      5  C   UNL     1       2.959   7.598  17.652  0.00  0.00    +0.000 C 
ATOM      6  C   UNL     1       4.666   5.639  17.960  0.00  0.00    +0.000 C 
ATOM      7  C   UNL     1       3.703   4.565  17.446  0.00  0.00    +0.000 C 
ATOM      8  O   UNL     1       3.669   4.256  16.259  0.00  0.00    +0.000 OA
ENDROOT
BRANCH   1  10
ATOM      9  C   UNL     1       2.778   2.770  20.772  0.00  0.00    +0.000 C 
ATOM     10  C   UNL     1       3.566   3.024  19.482  0.00  0.00    +0.000 C 
ATOM     11  C   UNL     1       3.944   1.675  18.861  0.00  0.00    +0.000 C 
ENDBRANCH   1  10
BRANCH   6  12
ATOM     12  C   UNL     1       5.778   6.041  16.905  0.00  0.00    +0.000 C 
BRANCH  12  13
ATOM     13  C   UNL     1       6.730   7.017  17.470  0.00  0.00    +0.000 C 
ATOM     14  N   UNL     1       7.501   7.810  17.818  0.00  0.00    +0.000 NA
ENDBRANCH  12  13
BRANCH  12  15
ATOM     15  C   UNL     1       5.126   6.634  15.707  0.00  0.00    +0.000 C 
ATOM     16  N   UNL     1       4.662   7.145  14.776  0.00  0.00    +0.000 NA
ENDBRANCH  12  15
BRANCH  12  17
ATOM     17  C   UNL     1       6.591   4.790  16.433  0.00  0.00    +0.000 C 
BRANCH  17  18
ATOM     18  C   UNL     1       7.666   4.419  17.378  0.00  0.00    +0.000 C 
ATOM     19  N   UNL     1       8.519   4.119  18.104  0.00  0.00    +0.000 NA
ENDBRANCH  17  18
BRANCH  17  20
ATOM     20  C   UNL     1       7.145   4.976  15.077  0.00  0.00    +0.000 C 
ATOM     21  N   UNL     1       7.630   5.170  14.045  0.00  0.00    +0.000 NA
ENDBRANCH  17  20
ENDBRANCH  12  17
ENDBRANCH   6  12
TORSDOF 7
ENDMDL
MODEL 2
REMARK VINA RESULT:      -5.6      3.225      5.553
REMARK  Name = 
REMARK  10 active torsions:
REMARK  status: ('A' for Active; 'I' for Inactive)
REMARK    1  A    between atoms: C_1  and  C_2
REMARK    2  A    between atoms: C_2  and  C_3
REMARK    3  A    between atoms: C_2  and  C_4
REMARK    4  A    between atoms: C_7  and  C_8
REMARK    5  A    between atoms: C_9  and  C_10
REMARK    6  A    between atoms: C_10  and  C_11
REMARK    7  A    between atoms: C_10  and  C_13
REMARK    8  A    between atoms: C_10  and  C_15
REMARK    9  A    between atoms: C_15  and  C_16
REMARK   10  A    between atoms: C_15  and  C_18
REMARK                            x       y       z     vdW  Elec       q    Type
REMARK                         _______ _______ _______ _____ _____    ______ ____
ROOT
ATOM      1  C   UNL     1       5.093   5.819  17.550  0.00  0.00    +0.000 C 
ATOM      2  C   UNL     1       4.181   7.020  17.836  0.00  0.00    +0.000 C 
ATOM      3  C   UNL     1       2.696   6.671  17.696  0.00  0.00    +0.000 C 
ATOM      4  C   UNL     1       2.271   5.498  18.617  0.00  0.00    +0.000 C 
ATOM      5  C   UNL     1       2.275   5.990  20.071  0.00  0.00    +0.000 C 
ATOM      6  C   UNL     1       3.163   4.247  18.333  0.00  0.00    +0.000 C 
ATOM      7  C   UNL     1       4.623   4.686  18.465  0.00  0.00    +0.000 C 
ATOM      8  O   UNL     1       5.377   4.157  19.276  0.00  0.00    +0.000 OA
ENDROOT
BRANCH   1  10
ATOM      9  C   UNL     1       5.340   6.577  15.114  0.00  0.00    +0.000 C 
ATOM     10  C   UNL     1       5.136   5.388  16.059  0.00  0.00    +0.000 C 
ATOM     11  C   UNL     1       6.247   4.361  15.809  0.00  0.00    +0.000 C 
ENDBRANCH   1  10
BRANCH   6  12
ATOM     12  C   UNL     1       2.847   2.887  19.083  0.00  0.00    +0.000 C 
BRANCH  12  13
ATOM     13  C   UNL     1       3.557   1.750  18.463  0.00  0.00    +0.000 C 
ATOM     14  N   UNL     1       4.195   0.918  17.971  0.00  0.00    +0.000 NA
ENDBRANCH  12  13
BRANCH  12  15
ATOM     15  C   UNL     1       1.383   2.630  19.036  0.00  0.00    +0.000 C 
ATOM     16  N   UNL     1       0.251   2.382  19.042  0.00  0.00    +0.000 NA
ENDBRANCH  12  15
BRANCH  12  17
ATOM     17  C   UNL     1       3.269   2.957  20.588  0.00  0.00    +0.000 C 
BRANCH  17  18
ATOM     18  C   UNL     1       4.377   2.033  20.913  0.00  0.00    +0.000 C 
ATOM     19  N   UNL     1       5.233   1.299  21.181  0.00  0.00    +0.000 NA
ENDBRANCH  17  18
BRANCH  17  20
ATOM     20  C   UNL     1       2.125   2.720  21.490  0.00  0.00    +0.000 C 
ATOM     21  N   UNL     1       1.278   2.506  22.250  0.00  0.00    +0.000 NA
ENDBRANCH  17  20
ENDBRANCH  12  17
ENDBRANCH   6  12
TORSDOF 7
ENDMDL
MODEL 3
REMARK VINA RESULT:      -5.4      3.113      5.390
REMARK  Name = 
REMARK  10 active torsions:
REMARK  status: ('A' for Active; 'I' for Inactive)
REMARK    1  A    between atoms: C_1  and  C_2
REMARK    2  A    between atoms: C_2  and  C_3
REMARK    3  A    between atoms: C_2  and  C_4
REMARK    4  A    between atoms: C_7  and  C_8
REMARK    5  A    between atoms: C_9  and  C_10
REMARK    6  A    between atoms: C_10  and  C_11
REMARK    7  A    between atoms: C_10  and  C_13
REMARK    8  A    between atoms: C_10  and  C_15
REMARK    9  A    between atoms: C_15  and  C_16
REMARK   10  A    between atoms: C_15  and  C_18
REMARK                            x       y       z     vdW  Elec       q    Type
REMARK                         _______ _______ _______ _____ _____    ______ ____
ROOT
ATOM      1  C   UNL     1       6.283   5.973  17.980  0.00  0.00    +0.000 C 
ATOM      2  C   UNL     1       5.818   7.140  17.097  0.00  0.00    +0.000 C 
ATOM      3  C   UNL     1       4.551   6.801  16.305  0.00  0.00    +0.000 C 
ATOM      4  C   UNL     1       3.374   6.374  17.218  0.00  0.00    +0.000 C 
ATOM      5  C   UNL     1       2.870   7.608  17.978  0.00  0.00    +0.000 C 
ATOM      6  C   UNL     1       3.805   5.169  18.114  0.00  0.00    +0.000 C 
ATOM      7  C   UNL     1       5.086   5.576  18.846  0.00  0.00    +0.000 C 
ATOM      8  O   UNL     1       5.142   5.591  20.072  0.00  0.00    +0.000 OA
ENDROOT
BRANCH   1  10
ATOM      9  C   UNL     1       7.095   5.091  15.714  0.00  0.00    +0.000 C 
ATOM     10  C   UNL     1       6.863   4.766  17.195  0.00  0.00    +0.000 C 
ATOM     11  C   UNL     1       8.184   4.286  17.807  0.00  0.00    +0.000 C 
ENDBRANCH   1  10
BRANCH   6  12
ATOM     12  C   UNL     1       2.731   4.488  19.061  0.00  0.00    +0.000 C 
BRANCH  12  13
ATOM     13  C   UNL     1       1.589   3.960  18.290  0.00  0.00    +0.000 C 
ATOM     14  N   UNL     1       0.635   3.617  17.728  0.00  0.00    +0.000 NA
ENDBRANCH  12  13
BRANCH  12  15
ATOM     15  C   UNL     1       2.235   5.492  20.040  0.00  0.00    +0.000 C 
ATOM     16  N   UNL     1       1.787   6.257  20.787  0.00  0.00    +0.000 NA
ENDBRANCH  12  15
BRANCH  12  17
ATOM     17  C   UNL     1       3.357   3.304  19.871  0.00  0.00    +0.000 C 
BRANCH  17  18
ATOM     18  C   UNL     1       3.618   2.115  19.031  0.00  0.00    +0.000 C 
ATOM     19  N   UNL     1       3.818   1.171  18.388  0.00  0.00    +0.000 NA
ENDBRANCH  17  18
BRANCH  17  20
ATOM     20  C   UNL     1       2.527   2.936  21.034  0.00  0.00    +0.000 C 
ATOM     21  N   UNL     1       1.929   2.592  21.963  0.00  0.00    +0.000 NA
ENDBRANCH  17  20
ENDBRANCH  12  17
ENDBRANCH   6  12
TORSDOF 7
ENDMDL
MODEL 4
REMARK VINA RESULT:      -5.2      1.168      2.632
REMARK  Name = 
REMARK  10 active torsions:
REMARK  status: ('A' for Active; 'I' for Inactive)
REMARK    1  A    between atoms: C_1  and  C_2
REMARK    2  A    between atoms: C_2  and  C_3
REMARK    3  A    between atoms: C_2  and  C_4
REMARK    4  A    between atoms: C_7  and  C_8
REMARK    5  A    between atoms: C_9  and  C_10
REMARK    6  A    between atoms: C_10  and  C_11
REMARK    7  A    between atoms: C_10  and  C_13
REMARK    8  A    between atoms: C_10  and  C_15
REMARK    9  A    between atoms: C_15  and  C_16
REMARK   10  A    between atoms: C_15  and  C_18
REMARK                            x       y       z     vdW  Elec       q    Type
REMARK                         _______ _______ _______ _____ _____    ______ ____
ROOT
ATOM      1  C   UNL     1       2.487   3.449  18.068  0.00  0.00    +0.000 C 
ATOM      2  C   UNL     1       1.564   4.472  18.746  0.00  0.00    +0.000 C 
ATOM      3  C   UNL     1       2.332   5.449  19.640  0.00  0.00    +0.000 C 
ATOM      4  C   UNL     1       3.438   6.216  18.871  0.00  0.00    +0.000 C 
ATOM      5  C   UNL     1       2.769   7.221  17.923  0.00  0.00    +0.000 C 
ATOM      6  C   UNL     1       4.415   5.204  18.190  0.00  0.00    +0.000 C 
ATOM      7  C   UNL     1       3.569   4.252  17.342  0.00  0.00    +0.000 C 
ATOM      8  O   UNL     1       3.747   4.147  16.132  0.00  0.00    +0.000 OA
ENDROOT
BRANCH   1  10
ATOM      9  C   UNL     1       2.044   1.810  19.989  0.00  0.00    +0.000 C 
ATOM     10  C   UNL     1       3.092   2.394  19.034  0.00  0.00    +0.000 C 
ATOM     11  C   UNL     1       3.750   1.245  18.260  0.00  0.00    +0.000 C 
ENDBRANCH   1  10
BRANCH   6  12
ATOM     12  C   UNL     1       5.691   5.756  17.429  0.00  0.00    +0.000 C 
BRANCH  12  13
ATOM     13  C   UNL     1       5.314   6.518  16.223  0.00  0.00    +0.000 C 
ATOM     14  N   UNL     1       5.002   7.196  15.336  0.00  0.00    +0.000 NA
ENDBRANCH  12  13
BRANCH  12  15
ATOM     15  C   UNL     1       6.556   4.613  17.032  0.00  0.00    +0.000 C 
ATOM     16  N   UNL     1       7.277   3.766  16.706  0.00  0.00    +0.000 NA
ENDBRANCH  12  15
BRANCH  12  17
ATOM     17  C   UNL     1       6.539   6.696  18.350  0.00  0.00    +0.000 C 
BRANCH  17  18
ATOM     18  C   UNL     1       7.455   7.568  17.583  0.00  0.00    +0.000 C 
ATOM     19  N   UNL     1       8.187   8.237  16.982  0.00  0.00    +0.000 NA
ENDBRANCH  17  18
BRANCH  17  20
ATOM     20  C   UNL     1       7.290   5.935  19.367  0.00  0.00    +0.000 C 
ATOM     21  N   UNL     1       7.855   5.274  20.131  0.00  0.00    +0.000 NA
ENDBRANCH  17  20
ENDBRANCH  12  17
ENDBRANCH   6  12
TORSDOF 7
ENDMDL
MODEL 5
REMARK VINA RESULT:      -5.2      2.754      5.231
REMARK  Name = 
REMARK  10 active torsions:
REMARK  status: ('A' for Active; 'I' for Inactive)
REMARK    1  A    between atoms: C_1  and  C_2
REMARK    2  A    between atoms: C_2  and  C_3
REMARK    3  A    between atoms: C_2  and  C_4
REMARK    4  A    between atoms: C_7  and  C_8
REMARK    5  A    between atoms: C_9  and  C_10
REMARK    6  A    between atoms: C_10  and  C_11
REMARK    7  A    between atoms: C_10  and  C_13
REMARK    8  A    between atoms: C_10  and  C_15
REMARK    9  A    between atoms: C_15  and  C_16
REMARK   10  A    between atoms: C_15  and  C_18
REMARK                            x       y       z     vdW  Elec       q    Type
REMARK                         _______ _______ _______ _____ _____    ______ ____
ROOT
ATOM      1  C   UNL     1       5.896   3.790  15.934  0.00  0.00    +0.000 C 
ATOM      2  C   UNL     1       7.170   4.476  16.447  0.00  0.00    +0.000 C 
ATOM      3  C   UNL     1       6.895   5.876  17.004  0.00  0.00    +0.000 C 
ATOM      4  C   UNL     1       5.846   5.868  18.145  0.00  0.00    +0.000 C 
ATOM      5  C   UNL     1       6.478   5.226  19.387  0.00  0.00    +0.000 C 
ATOM      6  C   UNL     1       4.523   5.200  17.648  0.00  0.00    +0.000 C 
ATOM      7  C   UNL     1       4.888   3.825  17.085  0.00  0.00    +0.000 C 
ATOM      8  O   UNL     1       4.399   2.797  17.546  0.00  0.00    +0.000 OA
ENDROOT
BRANCH   1  10
ATOM      9  C   UNL     1       5.498   5.927  14.575  0.00  0.00    +0.000 C 
ATOM     10  C   UNL     1       5.317   4.406  14.632  0.00  0.00    +0.000 C 
ATOM     11  C   UNL     1       5.964   3.785  13.388  0.00  0.00    +0.000 C 
ENDBRANCH   1  10
BRANCH   6  12
ATOM     12  C   UNL     1       3.265   5.170  18.611  0.00  0.00    +0.000 C 
BRANCH  12  13
ATOM     13  C   UNL     1       3.451   4.206  19.714  0.00  0.00    +0.000 C 
ATOM     14  N   UNL     1       3.522   3.395  20.539  0.00  0.00    +0.000 NA
ENDBRANCH  12  13
BRANCH  12  15
ATOM     15  C   UNL     1       2.059   4.787  17.829  0.00  0.00    +0.000 C 
ATOM     16  N   UNL     1       1.116   4.433  17.254  0.00  0.00    +0.000 NA
ENDBRANCH  12  15
BRANCH  12  17
ATOM     17  C   UNL     1       2.996   6.578  19.239  0.00  0.00    +0.000 C 
BRANCH  17  18
ATOM     18  C   UNL     1       1.927   6.550  20.261  0.00  0.00    +0.000 C 
ATOM     19  N   UNL     1       1.075   6.525  21.047  0.00  0.00    +0.000 NA
ENDBRANCH  17  18
BRANCH  17  20
ATOM     20  C   UNL     1       2.692   7.589  18.209  0.00  0.00    +0.000 C 
ATOM     21  N   UNL     1       2.383   8.349  17.392  0.00  0.00    +0.000 NA
ENDBRANCH  17  20
ENDBRANCH  12  17
ENDBRANCH   6  12
TORSDOF 7
ENDMDL
MODEL 6
REMARK VINA RESULT:      -5.2      1.164      2.129
REMARK  Name = 
REMARK  10 active torsions:
REMARK  status: ('A' for Active; 'I' for Inactive)
REMARK    1  A    between atoms: C_1  and  C_2
REMARK    2  A    between atoms: C_2  and  C_3
REMARK    3  A    between atoms: C_2  and  C_4
REMARK    4  A    between atoms: C_7  and  C_8
REMARK    5  A    between atoms: C_9  and  C_10
REMARK    6  A    between atoms: C_10  and  C_11
REMARK    7  A    between atoms: C_10  and  C_13
REMARK    8  A    between atoms: C_10  and  C_15
REMARK    9  A    between atoms: C_15  and  C_16
REMARK   10  A    between atoms: C_15  and  C_18
REMARK                            x       y       z     vdW  Elec       q    Type
REMARK                         _______ _______ _______ _____ _____    ______ ____
ROOT
ATOM      1  C   UNL     1       2.551   3.887  18.934  0.00  0.00    +0.000 C 
ATOM      2  C   UNL     1       1.934   5.169  19.512  0.00  0.00    +0.000 C 
ATOM      3  C   UNL     1       2.996   6.192  19.924  0.00  0.00    +0.000 C 
ATOM      4  C   UNL     1       3.933   6.582  18.753  0.00  0.00    +0.000 C 
ATOM      5  C   UNL     1       3.142   7.435  17.753  0.00  0.00    +0.000 C 
ATOM      6  C   UNL     1       4.602   5.301  18.157  0.00  0.00    +0.000 C 
ATOM      7  C   UNL     1       3.480   4.324  17.799  0.00  0.00    +0.000 C 
ATOM      8  O   UNL     1       3.330   3.919  16.650  0.00  0.00    +0.000 OA
ENDROOT
BRANCH   1  10
ATOM      9  C   UNL     1       2.359   2.575  21.127  0.00  0.00    +0.000 C 
ATOM     10  C   UNL     1       3.280   3.000  19.978  0.00  0.00    +0.000 C 
ATOM     11  C   UNL     1       3.867   1.742  19.326  0.00  0.00    +0.000 C 
ENDBRANCH   1  10
BRANCH   6  12
ATOM     12  C   UNL     1       5.686   5.458  17.011  0.00  0.00    +0.000 C 
BRANCH  12  13
ATOM     13  C   UNL     1       5.261   6.442  15.996  0.00  0.00    +0.000 C 
ATOM     14  N   UNL     1       4.955   7.148  15.129  0.00  0.00    +0.000 NA
ENDBRANCH  12  13
BRANCH  12  15
ATOM     15  C   UNL     1       5.898   4.141  16.353  0.00  0.00    +0.000 C 
ATOM     16  N   UNL     1       5.998   3.105  15.844  0.00  0.00    +0.000 NA
ENDBRANCH  12  15
BRANCH  12  17
ATOM     17  C   UNL     1       7.062   5.926  17.592  0.00  0.00    +0.000 C 
BRANCH  17  18
ATOM     18  C   UNL     1       7.241   5.542  19.009  0.00  0.00    +0.000 C 
ATOM     19  N   UNL     1       7.379   5.260  20.125  0.00  0.00    +0.000 NA
ENDBRANCH  17  18
BRANCH  17  20
ATOM     20  C   UNL     1       7.262   7.378  17.427  0.00  0.00    +0.000 C 
ATOM     21  N   UNL     1       7.446   8.520  17.371  0.00  0.00    +0.000 NA
ENDBRANCH  17  20
ENDBRANCH  12  17
ENDBRANCH   6  12
TORSDOF 7
ENDMDL
MODEL 7
REMARK VINA RESULT:      -5.1      1.941      3.808
REMARK  Name = 
REMARK  10 active torsions:
REMARK  status: ('A' for Active; 'I' for Inactive)
REMARK    1  A    between atoms: C_1  and  C_2
REMARK    2  A    between atoms: C_2  and  C_3
REMARK    3  A    between atoms: C_2  and  C_4
REMARK    4  A    between atoms: C_7  and  C_8
REMARK    5  A    between atoms: C_9  and  C_10
REMARK    6  A    between atoms: C_10  and  C_11
REMARK    7  A    between atoms: C_10  and  C_13
REMARK    8  A    between atoms: C_10  and  C_15
REMARK    9  A    between atoms: C_15  and  C_16
REMARK   10  A    between atoms: C_15  and  C_18
REMARK                            x       y       z     vdW  Elec       q    Type
REMARK                         _______ _______ _______ _____ _____    ______ ____
ROOT
ATOM      1  C   UNL     1       2.694   2.503  20.038  0.00  0.00    +0.000 C 
ATOM      2  C   UNL     1       1.579   2.202  19.025  0.00  0.00    +0.000 C 
ATOM      3  C   UNL     1       1.241   3.415  18.153  0.00  0.00    +0.000 C 
ATOM      4  C   UNL     1       2.473   3.957  17.384  0.00  0.00    +0.000 C 
ATOM      5  C   UNL     1       2.844   2.955  16.283  0.00  0.00    +0.000 C 
ATOM      6  C   UNL     1       3.620   4.300  18.388  0.00  0.00    +0.000 C 
ATOM      7  C   UNL     1       3.876   3.052  19.235  0.00  0.00    +0.000 C 
ATOM      8  O   UNL     1       4.978   2.513  19.260  0.00  0.00    +0.000 OA
ENDROOT
BRANCH   1  10
ATOM      9  C   UNL     1       1.514   4.687  20.677  0.00  0.00    +0.000 C 
ATOM     10  C   UNL     1       2.274   3.458  21.188  0.00  0.00    +0.000 C 
ATOM     11  C   UNL     1       1.404   2.734  22.222  0.00  0.00    +0.000 C 
ENDBRANCH   1  10
BRANCH   6  12
ATOM     12  C   UNL     1       4.949   4.971  17.843  0.00  0.00    +0.000 C 
BRANCH  12  13
ATOM     13  C   UNL     1       5.596   4.131  16.816  0.00  0.00    +0.000 C 
ATOM     14  N   UNL     1       6.164   3.551  15.989  0.00  0.00    +0.000 NA
ENDBRANCH  12  13
BRANCH  12  15
ATOM     15  C   UNL     1       5.895   5.173  18.973  0.00  0.00    +0.000 C 
ATOM     16  N   UNL     1       6.681   5.322  19.812  0.00  0.00    +0.000 NA
ENDBRANCH  12  15
BRANCH  12  17
ATOM     17  C   UNL     1       4.659   6.372  17.210  0.00  0.00    +0.000 C 
BRANCH  17  18
ATOM     18  C   UNL     1       5.868   7.220  17.127  0.00  0.00    +0.000 C 
ATOM     19  N   UNL     1       6.806   7.898  17.051  0.00  0.00    +0.000 NA
ENDBRANCH  17  18
BRANCH  17  20
ATOM     20  C   UNL     1       3.583   7.085  17.924  0.00  0.00    +0.000 C 
ATOM     21  N   UNL     1       2.794   7.679  18.528  0.00  0.00    +0.000 NA
ENDBRANCH  17  20
ENDBRANCH  12  17
ENDBRANCH   6  12
TORSDOF 7
ENDMDL
MODEL 8
REMARK VINA RESULT:      -5.0      2.720      5.251
REMARK  Name = 
REMARK  10 active torsions:
REMARK  status: ('A' for Active; 'I' for Inactive)
REMARK    1  A    between atoms: C_1  and  C_2
REMARK    2  A    between atoms: C_2  and  C_3
REMARK    3  A    between atoms: C_2  and  C_4
REMARK    4  A    between atoms: C_7  and  C_8
REMARK    5  A    between atoms: C_9  and  C_10
REMARK    6  A    between atoms: C_10  and  C_11
REMARK    7  A    between atoms: C_10  and  C_13
REMARK    8  A    between atoms: C_10  and  C_15
REMARK    9  A    between atoms: C_15  and  C_16
REMARK   10  A    between atoms: C_15  and  C_18
REMARK                            x       y       z     vdW  Elec       q    Type
REMARK                         _______ _______ _______ _____ _____    ______ ____
ROOT
ATOM      1  C   UNL     1       6.227   3.991  15.909  0.00  0.00    +0.000 C 
ATOM      2  C   UNL     1       7.437   4.557  16.667  0.00  0.00    +0.000 C 
ATOM      3  C   UNL     1       7.182   5.970  17.199  0.00  0.00    +0.000 C 
ATOM      4  C   UNL     1       5.942   6.043  18.126  0.00  0.00    +0.000 C 
ATOM      5  C   UNL     1       6.274   5.336  19.447  0.00  0.00    +0.000 C 
ATOM      6  C   UNL     1       4.683   5.499  17.376  0.00  0.00    +0.000 C 
ATOM      7  C   UNL     1       5.029   4.103  16.855  0.00  0.00    +0.000 C 
ATOM      8  O   UNL     1       4.377   3.118  17.189  0.00  0.00    +0.000 OA
ENDROOT
BRANCH   1  10
ATOM      9  C   UNL     1       7.249   5.087  13.829  0.00  0.00    +0.000 C 
ATOM     10  C   UNL     1       5.956   4.668  14.539  0.00  0.00    +0.000 C 
ATOM     11  C   UNL     1       5.160   3.745  13.610  0.00  0.00    +0.000 C 
ENDBRANCH   1  10
BRANCH   6  12
ATOM     12  C   UNL     1       3.269   5.571  18.088  0.00  0.00    +0.000 C 
BRANCH  12  13
ATOM     13  C   UNL     1       2.331   4.578  17.528  0.00  0.00    +0.000 C 
ATOM     14  N   UNL     1       1.519   3.855  17.126  0.00  0.00    +0.000 NA
ENDBRANCH  12  13
BRANCH  12  15
ATOM     15  C   UNL     1       2.699   6.933  17.911  0.00  0.00    +0.000 C 
ATOM     16  N   UNL     1       2.313   8.015  17.753  0.00  0.00    +0.000 NA
ENDBRANCH  12  15
BRANCH  12  17
ATOM     17  C   UNL     1       3.393   5.305  19.626  0.00  0.00    +0.000 C 
BRANCH  17  18
ATOM     18  C   UNL     1       3.358   3.864  19.959  0.00  0.00    +0.000 C 
ATOM     19  N   UNL     1       3.314   2.733  20.207  0.00  0.00    +0.000 NA
ENDBRANCH  17  18
BRANCH  17  20
ATOM     20  C   UNL     1       2.364   6.032  20.393  0.00  0.00    +0.000 C 
ATOM     21  N   UNL     1       1.511   6.600  20.932  0.00  0.00    +0.000 NA
ENDBRANCH  17  20
ENDBRANCH  12  17
ENDBRANCH   6  12
TORSDOF 7
ENDMDL
MODEL 9
REMARK VINA RESULT:      -5.0      1.668      3.763
REMARK  Name = 
REMARK  10 active torsions:
REMARK  status: ('A' for Active; 'I' for Inactive)
REMARK    1  A    between atoms: C_1  and  C_2
REMARK    2  A    between atoms: C_2  and  C_3
REMARK    3  A    between atoms: C_2  and  C_4
REMARK    4  A    between atoms: C_7  and  C_8
REMARK    5  A    between atoms: C_9  and  C_10
REMARK    6  A    between atoms: C_10  and  C_11
REMARK    7  A    between atoms: C_10  and  C_13
REMARK    8  A    between atoms: C_10  and  C_15
REMARK    9  A    between atoms: C_15  and  C_16
REMARK   10  A    between atoms: C_15  and  C_18
REMARK                            x       y       z     vdW  Elec       q    Type
REMARK                         _______ _______ _______ _____ _____    ______ ____
ROOT
ATOM      1  C   UNL     1       3.365   3.112  19.613  0.00  0.00    +0.000 C 
ATOM      2  C   UNL     1       2.998   1.942  18.690  0.00  0.00    +0.000 C 
ATOM      3  C   UNL     1       2.783   2.388  17.241  0.00  0.00    +0.000 C 
ATOM      4  C   UNL     1       4.020   3.112  16.651  0.00  0.00    +0.000 C 
ATOM      5  C   UNL     1       5.133   2.080  16.431  0.00  0.00    +0.000 C 
ATOM      6  C   UNL     1       4.406   4.329  17.553  0.00  0.00    +0.000 C 
ATOM      7  C   UNL     1       4.574   3.804  18.981  0.00  0.00    +0.000 C 
ATOM      8  O   UNL     1       5.635   3.928  19.584  0.00  0.00    +0.000 OA
ENDROOT
BRANCH   1  10
ATOM      9  C   UNL     1       1.112   3.491  20.776  0.00  0.00    +0.000 C 
ATOM     10  C   UNL     1       2.201   4.102  19.887  0.00  0.00    +0.000 C 
ATOM     11  C   UNL     1       2.709   5.390  20.544  0.00  0.00    +0.000 C 
ENDBRANCH   1  10
BRANCH   6  12
ATOM     12  C   UNL     1       5.582   5.287  17.094  0.00  0.00    +0.000 C 
BRANCH  12  13
ATOM     13  C   UNL     1       5.490   5.605  15.656  0.00  0.00    +0.000 C 
ATOM     14  N   UNL     1       5.509   5.812  14.515  0.00  0.00    +0.000 NA
ENDBRANCH  12  13
BRANCH  12  15
ATOM     15  C   UNL     1       6.886   4.627  17.364  0.00  0.00    +0.000 C 
ATOM     16  N   UNL     1       7.928   4.170  17.590  0.00  0.00    +0.000 NA
ENDBRANCH  12  15
BRANCH  12  17
ATOM     17  C   UNL     1       5.559   6.635  17.890  0.00  0.00    +0.000 C 
BRANCH  17  18
ATOM     18  C   UNL     1       4.287   7.372  17.724  0.00  0.00    +0.000 C 
ATOM     19  N   UNL     1       3.285   7.937  17.578  0.00  0.00    +0.000 NA
ENDBRANCH  17  18
BRANCH  17  20
ATOM     20  C   UNL     1       6.700   7.500  17.536  0.00  0.00    +0.000 C 
ATOM     21  N   UNL     1       7.545   8.232  17.234  0.00  0.00    +0.000 NA
ENDBRANCH  17  20
ENDBRANCH  12  17
ENDBRANCH   6  12
TORSDOF 7
ENDMDL
