MODEL 1
REMARK VINA RESULT:      -6.8      0.000      0.000
REMARK  Name = 
REMARK  5 active torsions:
REMARK  status: ('A' for Active; 'I' for Inactive)
REMARK    1  A    between atoms: C_1  and  C_2
REMARK    2  A    between atoms: C_2  and  C_3
REMARK    3  A    between atoms: C_6  and  C_7
REMARK    4  A    between atoms: N_9  and  C_10
REMARK    5  A    between atoms: C_12  and  C_13
REMARK                            x       y       z     vdW  Elec       q    Type
REMARK                         _______ _______ _______ _____ _____    ______ ____
ROOT
ATOM      1  C   UNL     1       5.409   4.547  17.440  0.00  0.00    +0.000 C 
ATOM      2  O   UNL     1       6.116   4.362  18.428  0.00  0.00    +0.000 OA
ATOM      3  N   UNL     1       4.047   4.789  17.494  0.00  0.00    +0.000 N 
ATOM      4  H   UNL     1       3.556   4.794  16.605  0.00  0.00    +0.000 HD
ENDROOT
BRANCH   3   5
ATOM      5  C   UNL     1       3.238   4.893  18.642  0.00  0.00    +0.000 A 
ATOM      6  C   UNL     1       2.761   3.794  19.359  0.00  0.00    +0.000 A 
ATOM      7  C   UNL     1       1.925   3.972  20.471  0.00  0.00    +0.000 A 
ATOM      8  C   UNL     1       1.408   2.780  21.225  0.00  0.00    +0.000 C 
ATOM      9  C   UNL     1       1.560   5.267  20.861  0.00  0.00    +0.000 A 
ATOM     10  C   UNL     1       2.053   6.372  20.170  0.00  0.00    +0.000 A 
ATOM     11  C   UNL     1       2.895   6.177  19.079  0.00  0.00    +0.000 A 
ATOM     12  F   UNL     1       3.362   7.250  18.419  0.00  0.00    +0.000 F 
ENDBRANCH   3   5
BRANCH   1  16
ATOM     13  C   UNL     1       6.443   4.031  13.706  0.00  0.00    +0.000 A 
ATOM     14  C   UNL     1       7.354   4.907  14.262  0.00  0.00    +0.000 A 
ATOM     15  C   UNL     1       7.077   5.170  15.633  0.00  0.00    +0.000 A 
ATOM     16  C   UNL     1       5.970   4.482  16.091  0.00  0.00    +0.000 A 
ATOM     17  S   UNL     1       5.286   3.515  14.853  0.00  0.00    +0.000 S 
BRANCH  13  19
ATOM     18  C   UNL     1       4.949   3.209  11.887  0.00  0.00    +0.000 C 
ATOM     19  C   UNL     1       6.378   3.536  12.294  0.00  0.00    +0.000 C 
ENDBRANCH  13  19
ENDBRANCH   1  16
TORSDOF 3
ENDMDL
MODEL 2
REMARK VINA RESULT:      -6.7      3.948      7.906
REMARK  Name = 
REMARK  5 active torsions:
REMARK  status: ('A' for Active; 'I' for Inactive)
REMARK    1  A    between atoms: C_1  and  C_2
REMARK    2  A    between atoms: C_2  and  C_3
REMARK    3  A    between atoms: C_6  and  C_7
REMARK    4  A    between atoms: N_9  and  C_10
REMARK    5  A    between atoms: C_12  and  C_13
REMARK                            x       y       z     vdW  Elec       q    Type
REMARK                         _______ _______ _______ _____ _____    ______ ____
ROOT
ATOM      1  C   UNL     1       2.117   8.221  18.485  0.00  0.00    +0.000 C 
ATOM      2  O   UNL     1       2.330   8.722  17.384  0.00  0.00    +0.000 OA
ATOM      3  N   UNL     1       2.571   6.972  18.871  0.00  0.00    +0.000 N 
ATOM      4  H   UNL     1       2.218   6.617  19.755  0.00  0.00    +0.000 HD
ENDROOT
BRANCH   3   5
ATOM      5  C   UNL     1       3.356   6.074  18.121  0.00  0.00    +0.000 A 
ATOM      6  C   UNL     1       4.656   6.348  17.691  0.00  0.00    +0.000 A 
ATOM      7  C   UNL     1       5.364   5.422  16.912  0.00  0.00    +0.000 A 
ATOM      8  C   UNL     1       6.757   5.736  16.446  0.00  0.00    +0.000 C 
ATOM      9  C   UNL     1       4.756   4.211  16.555  0.00  0.00    +0.000 A 
ATOM     10  C   UNL     1       3.470   3.914  17.002  0.00  0.00    +0.000 A 
ATOM     11  C   UNL     1       2.788   4.839  17.789  0.00  0.00    +0.000 A 
ATOM     12  F   UNL     1       1.548   4.544  18.210  0.00  0.00    +0.000 F 
ENDBRANCH   3   5
BRANCH   1  16
ATOM     13  C   UNL     1       0.166   9.685  21.539  0.00  0.00    +0.000 A 
ATOM     14  C   UNL     1      -0.090  10.509  20.461  0.00  0.00    +0.000 A 
ATOM     15  C   UNL     1       0.572  10.069  19.281  0.00  0.00    +0.000 A 
ATOM     16  C   UNL     1       1.308   8.917  19.484  0.00  0.00    +0.000 A 
ATOM     17  S   UNL     1       1.175   8.377  21.105  0.00  0.00    +0.000 S 
BRANCH  13  19
ATOM     18  C   UNL     1      -1.267  11.011  23.091  0.00  0.00    +0.000 C 
ATOM     19  C   UNL     1      -0.319   9.828  22.948  0.00  0.00    +0.000 C 
ENDBRANCH  13  19
ENDBRANCH   1  16
TORSDOF 3
ENDMDL
MODEL 3
REMARK VINA RESULT:      -6.6      3.082      7.196
REMARK  Name = 
REMARK  5 active torsions:
REMARK  status: ('A' for Active; 'I' for Inactive)
REMARK    1  A    between atoms: C_1  and  C_2
REMARK    2  A    between atoms: C_2  and  C_3
REMARK    3  A    between atoms: C_6  and  C_7
REMARK    4  A    between atoms: N_9  and  C_10
REMARK    5  A    between atoms: C_12  and  C_13
REMARK                            x       y       z     vdW  Elec       q    Type
REMARK                         _______ _______ _______ _____ _____    ______ ____
ROOT
ATOM      1  C   UNL     1       3.110   6.527  18.078  0.00  0.00    +0.000 C 
ATOM      2  O   UNL     1       2.726   5.373  18.252  0.00  0.00    +0.000 OA
ATOM      3  N   UNL     1       4.303   6.863  17.461  0.00  0.00    +0.000 N 
ATOM      4  H   UNL     1       4.568   7.843  17.496  0.00  0.00    +0.000 HD
ENDROOT
BRANCH   3   5
ATOM      5  C   UNL     1       5.261   5.990  16.911  0.00  0.00    +0.000 A 
ATOM      6  C   UNL     1       5.208   5.500  15.604  0.00  0.00    +0.000 A 
ATOM      7  C   UNL     1       6.177   4.601  15.135  0.00  0.00    +0.000 A 
ATOM      8  C   UNL     1       6.099   4.072  13.732  0.00  0.00    +0.000 C 
ATOM      9  C   UNL     1       7.204   4.183  15.992  0.00  0.00    +0.000 A 
ATOM     10  C   UNL     1       7.283   4.687  17.289  0.00  0.00    +0.000 A 
ATOM     11  C   UNL     1       6.323   5.593  17.731  0.00  0.00    +0.000 A 
ATOM     12  F   UNL     1       6.407   6.069  18.984  0.00  0.00    +0.000 F 
ENDBRANCH   3   5
BRANCH   1  16
ATOM     13  C   UNL     1       1.053   9.304  19.902  0.00  0.00    +0.000 A 
ATOM     14  C   UNL     1       1.207   9.709  18.592  0.00  0.00    +0.000 A 
ATOM     15  C   UNL     1       1.946   8.766  17.823  0.00  0.00    +0.000 A 
ATOM     16  C   UNL     1       2.327   7.662  18.562  0.00  0.00    +0.000 A 
ATOM     17  S   UNL     1       1.773   7.780  20.179  0.00  0.00    +0.000 S 
BRANCH  13  19
ATOM     18  C   UNL     1       0.517   9.282  22.338  0.00  0.00    +0.000 C 
ATOM     19  C   UNL     1       0.369  10.029  21.020  0.00  0.00    +0.000 C 
ENDBRANCH  13  19
ENDBRANCH   1  16
TORSDOF 3
ENDMDL
MODEL 4
REMARK VINA RESULT:      -6.5      3.054      7.022
REMARK  Name = 
REMARK  5 active torsions:
REMARK  status: ('A' for Active; 'I' for Inactive)
REMARK    1  A    between atoms: C_1  and  C_2
REMARK    2  A    between atoms: C_2  and  C_3
REMARK    3  A    between atoms: C_6  and  C_7
REMARK    4  A    between atoms: N_9  and  C_10
REMARK    5  A    between atoms: C_12  and  C_13
REMARK                            x       y       z     vdW  Elec       q    Type
REMARK                         _______ _______ _______ _____ _____    ______ ____
ROOT
ATOM      1  C   UNL     1       3.123   6.410  18.283  0.00  0.00    +0.000 C 
ATOM      2  O   UNL     1       2.738   5.249  18.396  0.00  0.00    +0.000 OA
ATOM      3  N   UNL     1       4.309   6.779  17.671  0.00  0.00    +0.000 N 
ATOM      4  H   UNL     1       4.576   7.755  17.759  0.00  0.00    +0.000 HD
ENDROOT
BRANCH   3   5
ATOM      5  C   UNL     1       5.258   5.937  17.059  0.00  0.00    +0.000 A 
ATOM      6  C   UNL     1       5.157   5.477  15.745  0.00  0.00    +0.000 A 
ATOM      7  C   UNL     1       6.119   4.607  15.213  0.00  0.00    +0.000 A 
ATOM      8  C   UNL     1       5.990   4.109  13.802  0.00  0.00    +0.000 C 
ATOM      9  C   UNL     1       7.191   4.190  16.014  0.00  0.00    +0.000 A 
ATOM     10  C   UNL     1       7.318   4.665  17.318  0.00  0.00    +0.000 A 
ATOM     11  C   UNL     1       6.361   5.542  17.823  0.00  0.00    +0.000 A 
ATOM     12  F   UNL     1       6.492   5.991  19.082  0.00  0.00    +0.000 F 
ENDBRANCH   3   5
BRANCH   1  16
ATOM     13  C   UNL     1       1.040   9.580  19.226  0.00  0.00    +0.000 A 
ATOM     14  C   UNL     1       1.159   8.818  20.370  0.00  0.00    +0.000 A 
ATOM     15  C   UNL     1       1.908   7.628  20.147  0.00  0.00    +0.000 A 
ATOM     16  C   UNL     1       2.349   7.518  18.842  0.00  0.00    +0.000 A 
ATOM     17  S   UNL     1       1.859   8.867  17.906  0.00  0.00    +0.000 S 
BRANCH  13  19
ATOM     18  C   UNL     1      -1.136  10.641  18.629  0.00  0.00    +0.000 C 
ATOM     19  C   UNL     1       0.308  10.874  19.048  0.00  0.00    +0.000 C 
ENDBRANCH  13  19
ENDBRANCH   1  16
TORSDOF 3
ENDMDL
MODEL 5
REMARK VINA RESULT:      -6.5      1.420      2.025
REMARK  Name = 
REMARK  5 active torsions:
REMARK  status: ('A' for Active; 'I' for Inactive)
REMARK    1  A    between atoms: C_1  and  C_2
REMARK    2  A    between atoms: C_2  and  C_3
REMARK    3  A    between atoms: C_6  and  C_7
REMARK    4  A    between atoms: N_9  and  C_10
REMARK    5  A    between atoms: C_12  and  C_13
REMARK                            x       y       z     vdW  Elec       q    Type
REMARK                         _______ _______ _______ _____ _____    ______ ____
ROOT
ATOM      1  C   UNL     1       5.225   4.569  17.353  0.00  0.00    +0.000 C 
ATOM      2  O   UNL     1       5.865   4.888  18.352  0.00  0.00    +0.000 OA
ATOM      3  N   UNL     1       3.885   4.223  17.366  0.00  0.00    +0.000 N 
ATOM      4  H   UNL     1       3.507   3.852  16.499  0.00  0.00    +0.000 HD
ENDROOT
BRANCH   3   5
ATOM      5  C   UNL     1       3.017   4.193  18.475  0.00  0.00    +0.000 A 
ATOM      6  C   UNL     1       2.580   5.333  19.152  0.00  0.00    +0.000 A 
ATOM      7  C   UNL     1       1.747   5.225  20.275  0.00  0.00    +0.000 A 
ATOM      8  C   UNL     1       1.296   6.460  21.002  0.00  0.00    +0.000 C 
ATOM      9  C   UNL     1       1.355   3.957  20.725  0.00  0.00    +0.000 A 
ATOM     10  C   UNL     1       1.761   2.814  20.040  0.00  0.00    +0.000 A 
ATOM     11  C   UNL     1       2.574   2.941  18.917  0.00  0.00    +0.000 A 
ATOM     12  F   UNL     1       2.963   1.832  18.267  0.00  0.00    +0.000 F 
ENDBRANCH   3   5
BRANCH   1  16
ATOM     13  C   UNL     1       6.462   4.063  13.680  0.00  0.00    +0.000 A 
ATOM     14  C   UNL     1       7.401   4.846  14.320  0.00  0.00    +0.000 A 
ATOM     15  C   UNL     1       7.055   5.097  15.677  0.00  0.00    +0.000 A 
ATOM     16  C   UNL     1       5.868   4.492  16.042  0.00  0.00    +0.000 A 
ATOM     17  S   UNL     1       5.193   3.616  14.733  0.00  0.00    +0.000 S 
BRANCH  13  19
ATOM     18  C   UNL     1       5.084   3.082  11.848  0.00  0.00    +0.000 C 
ATOM     19  C   UNL     1       6.452   3.611  12.253  0.00  0.00    +0.000 C 
ENDBRANCH  13  19
ENDBRANCH   1  16
TORSDOF 3
ENDMDL
MODEL 6
REMARK VINA RESULT:      -6.4      3.850      7.781
REMARK  Name = 
REMARK  5 active torsions:
REMARK  status: ('A' for Active; 'I' for Inactive)
REMARK    1  A    between atoms: C_1  and  C_2
REMARK    2  A    between atoms: C_2  and  C_3
REMARK    3  A    between atoms: C_6  and  C_7
REMARK    4  A    between atoms: N_9  and  C_10
REMARK    5  A    between atoms: C_12  and  C_13
REMARK                            x       y       z     vdW  Elec       q    Type
REMARK                         _______ _______ _______ _____ _____    ______ ____
ROOT
ATOM      1  C   UNL     1       2.273   7.819  18.877  0.00  0.00    +0.000 C 
ATOM      2  O   UNL     1       2.454   8.289  17.756  0.00  0.00    +0.000 OA
ATOM      3  N   UNL     1       2.747   6.585  19.288  0.00  0.00    +0.000 N 
ATOM      4  H   UNL     1       2.420   6.254  20.190  0.00  0.00    +0.000 HD
ENDROOT
BRANCH   3   5
ATOM      5  C   UNL     1       3.519   5.671  18.544  0.00  0.00    +0.000 A 
ATOM      6  C   UNL     1       4.916   5.656  18.538  0.00  0.00    +0.000 A 
ATOM      7  C   UNL     1       5.620   4.743  17.742  0.00  0.00    +0.000 A 
ATOM      8  C   UNL     1       7.122   4.748  17.735  0.00  0.00    +0.000 C 
ATOM      9  C   UNL     1       4.914   3.839  16.937  0.00  0.00    +0.000 A 
ATOM     10  C   UNL     1       3.520   3.826  16.956  0.00  0.00    +0.000 A 
ATOM     11  C   UNL     1       2.838   4.729  17.766  0.00  0.00    +0.000 A 
ATOM     12  F   UNL     1       1.495   4.709  17.774  0.00  0.00    +0.000 F 
ENDBRANCH   3   5
BRANCH   1  16
ATOM     13  C   UNL     1       0.063  10.135  21.120  0.00  0.00    +0.000 A 
ATOM     14  C   UNL     1       0.388   9.027  21.877  0.00  0.00    +0.000 A 
ATOM     15  C   UNL     1       1.201   8.107  21.158  0.00  0.00    +0.000 A 
ATOM     16  C   UNL     1       1.484   8.538  19.876  0.00  0.00    +0.000 A 
ATOM     17  S   UNL     1       0.767  10.063  19.565  0.00  0.00    +0.000 S 
BRANCH  13  19
ATOM     18  C   UNL     1      -1.191  11.234  22.974  0.00  0.00    +0.000 C 
ATOM     19  C   UNL     1      -0.793  11.301  21.507  0.00  0.00    +0.000 C 
ENDBRANCH  13  19
ENDBRANCH   1  16
TORSDOF 3
ENDMDL
MODEL 7
REMARK VINA RESULT:      -6.4      3.272      4.178
REMARK  Name = 
REMARK  5 active torsions:
REMARK  status: ('A' for Active; 'I' for Inactive)
REMARK    1  A    between atoms: C_1  and  C_2
REMARK    2  A    between atoms: C_2  and  C_3
REMARK    3  A    between atoms: C_6  and  C_7
REMARK    4  A    between atoms: N_9  and  C_10
REMARK    5  A    between atoms: C_12  and  C_13
REMARK                            x       y       z     vdW  Elec       q    Type
REMARK                         _______ _______ _______ _____ _____    ______ ____
ROOT
ATOM      1  C   UNL     1       5.322   4.804  18.411  0.00  0.00    +0.000 C 
ATOM      2  O   UNL     1       5.429   3.763  17.768  0.00  0.00    +0.000 OA
ATOM      3  N   UNL     1       4.221   5.130  19.184  0.00  0.00    +0.000 N 
ATOM      4  H   UNL     1       4.197   6.074  19.558  0.00  0.00    +0.000 HD
ENDROOT
BRANCH   3   5
ATOM      5  C   UNL     1       3.065   4.356  19.401  0.00  0.00    +0.000 A 
ATOM      6  C   UNL     1       2.738   3.771  20.626  0.00  0.00    +0.000 A 
ATOM      7  C   UNL     1       1.590   2.978  20.759  0.00  0.00    +0.000 A 
ATOM      8  C   UNL     1       1.258   2.344  22.080  0.00  0.00    +0.000 C 
ATOM      9  C   UNL     1       0.764   2.765  19.647  0.00  0.00    +0.000 A 
ATOM     10  C   UNL     1       1.065   3.367  18.426  0.00  0.00    +0.000 A 
ATOM     11  C   UNL     1       2.200   4.165  18.318  0.00  0.00    +0.000 A 
ATOM     12  F   UNL     1       2.482   4.736  17.135  0.00  0.00    +0.000 F 
ENDBRANCH   3   5
BRANCH   1  16
ATOM     13  C   UNL     1       7.751   7.832  17.949  0.00  0.00    +0.000 A 
ATOM     14  C   UNL     1       8.347   6.966  18.843  0.00  0.00    +0.000 A 
ATOM     15  C   UNL     1       7.548   5.814  19.089  0.00  0.00    +0.000 A 
ATOM     16  C   UNL     1       6.368   5.825  18.370  0.00  0.00    +0.000 A 
ATOM     17  S   UNL     1       6.251   7.229  17.395  0.00  0.00    +0.000 S 
BRANCH  13  19
ATOM     18  C   UNL     1       8.907   9.946  18.588  0.00  0.00    +0.000 C 
ATOM     19  C   UNL     1       8.258   9.154  17.462  0.00  0.00    +0.000 C 
ENDBRANCH  13  19
ENDBRANCH   1  16
TORSDOF 3
ENDMDL
MODEL 8
REMARK VINA RESULT:      -6.4      1.977      6.910
REMARK  Name = 
REMARK  5 active torsions:
REMARK  status: ('A' for Active; 'I' for Inactive)
REMARK    1  A    between atoms: C_1  and  C_2
REMARK    2  A    between atoms: C_2  and  C_3
REMARK    3  A    between atoms: C_6  and  C_7
REMARK    4  A    between atoms: N_9  and  C_10
REMARK    5  A    between atoms: C_12  and  C_13
REMARK                            x       y       z     vdW  Elec       q    Type
REMARK                         _______ _______ _______ _____ _____    ______ ____
ROOT
ATOM      1  C   UNL     1       4.440   5.471  16.879  0.00  0.00    +0.000 C 
ATOM      2  O   UNL     1       4.487   6.611  16.423  0.00  0.00    +0.000 OA
ATOM      3  N   UNL     1       4.946   4.355  16.233  0.00  0.00    +0.000 N 
ATOM      4  H   UNL     1       4.729   3.456  16.652  0.00  0.00    +0.000 HD
ENDROOT
BRANCH   3   5
ATOM      5  C   UNL     1       5.609   4.309  14.991  0.00  0.00    +0.000 A 
ATOM      6  C   UNL     1       5.104   3.657  13.864  0.00  0.00    +0.000 A 
ATOM      7  C   UNL     1       5.839   3.617  12.670  0.00  0.00    +0.000 A 
ATOM      8  C   UNL     1       5.289   2.900  11.470  0.00  0.00    +0.000 C 
ATOM      9  C   UNL     1       7.097   4.231  12.611  0.00  0.00    +0.000 A 
ATOM     10  C   UNL     1       7.598   4.908  13.722  0.00  0.00    +0.000 A 
ATOM     11  C   UNL     1       6.847   4.953  14.893  0.00  0.00    +0.000 A 
ATOM     12  F   UNL     1       7.342   5.605  15.957  0.00  0.00    +0.000 F 
ENDBRANCH   3   5
BRANCH   1  16
ATOM     13  C   UNL     1       2.941   4.205  20.259  0.00  0.00    +0.000 A 
ATOM     14  C   UNL     1       2.591   5.534  20.132  0.00  0.00    +0.000 A 
ATOM     15  C   UNL     1       3.085   6.106  18.926  0.00  0.00    +0.000 A 
ATOM     16  C   UNL     1       3.789   5.198  18.159  0.00  0.00    +0.000 A 
ATOM     17  S   UNL     1       3.833   3.658  18.908  0.00  0.00    +0.000 S 
BRANCH  13  19
ATOM     18  C   UNL     1       1.220   2.729  21.298  0.00  0.00    +0.000 C 
ATOM     19  C   UNL     1       2.639   3.272  21.391  0.00  0.00    +0.000 C 
ENDBRANCH  13  19
ENDBRANCH   1  16
TORSDOF 3
ENDMDL
MODEL 9
REMARK VINA RESULT:      -6.2      3.870      7.657
REMARK  Name = 
REMARK  5 active torsions:
REMARK  status: ('A' for Active; 'I' for Inactive)
REMARK    1  A    between atoms: C_1  and  C_2
REMARK    2  A    between atoms: C_2  and  C_3
REMARK    3  A    between atoms: C_6  and  C_7
REMARK    4  A    between atoms: N_9  and  C_10
REMARK    5  A    between atoms: C_12  and  C_13
REMARK                            x       y       z     vdW  Elec       q    Type
REMARK                         _______ _______ _______ _____ _____    ______ ____
ROOT
ATOM      1  C   UNL     1       2.145   7.074  19.777  0.00  0.00    +0.000 C 
ATOM      2  O   UNL     1       2.133   6.186  20.626  0.00  0.00    +0.000 OA
ATOM      3  N   UNL     1       2.800   6.976  18.561  0.00  0.00    +0.000 N 
ATOM      4  H   UNL     1       2.846   7.825  18.005  0.00  0.00    +0.000 HD
ENDROOT
BRANCH   3   5
ATOM      5  C   UNL     1       3.530   5.879  18.065  0.00  0.00    +0.000 A 
ATOM      6  C   UNL     1       4.924   5.840  17.995  0.00  0.00    +0.000 A 
ATOM      7  C   UNL     1       5.584   4.729  17.450  0.00  0.00    +0.000 A 
ATOM      8  C   UNL     1       7.084   4.706  17.369  0.00  0.00    +0.000 C 
ATOM      9  C   UNL     1       4.834   3.649  16.964  0.00  0.00    +0.000 A 
ATOM     10  C   UNL     1       3.443   3.666  17.054  0.00  0.00    +0.000 A 
ATOM     11  C   UNL     1       2.807   4.770  17.614  0.00  0.00    +0.000 A 
ATOM     12  F   UNL     1       1.466   4.776  17.692  0.00  0.00    +0.000 F 
ENDBRANCH   3   5
BRANCH   1  16
ATOM     13  C   UNL     1       0.334  10.321  20.981  0.00  0.00    +0.000 A 
ATOM     14  C   UNL     1       0.631  10.494  19.644  0.00  0.00    +0.000 A 
ATOM     15  C   UNL     1       1.296   9.364  19.092  0.00  0.00    +0.000 A 
ATOM     16  C   UNL     1       1.481   8.354  20.017  0.00  0.00    +0.000 A 
ATOM     17  S   UNL     1       0.834   8.787  21.543  0.00  0.00    +0.000 S 
BRANCH  13  19
ATOM     18  C   UNL     1      -0.965  10.568  23.095  0.00  0.00    +0.000 C 
ATOM     19  C   UNL     1      -0.329  11.287  21.914  0.00  0.00    +0.000 C 
ENDBRANCH  13  19
ENDBRANCH   1  16
TORSDOF 3
ENDMDL
