MODEL 1
REMARK VINA RESULT:      -8.5      0.000      0.000
REMARK  Name = 
REMARK  5 active torsions:
REMARK  status: ('A' for Active; 'I' for Inactive)
REMARK    1  A    between atoms: C_4  and  C_5
REMARK    2  A    between atoms: C_5  and  C_6
REMARK    3  A    between atoms: N_17  and  C_18
REMARK    4  A    between atoms: C_18  and  C_19
REMARK    5  A    between atoms: C_23  and  C_24
REMARK                            x       y       z     vdW  Elec       q    Type
REMARK                         _______ _______ _______ _____ _____    ______ ____
ROOT
ATOM      1  O   UNL     1       4.234   2.653  17.529  0.00  0.00    +0.000 OA
ATOM      2  C   UNL     1       4.107   3.845  17.301  0.00  0.00    +0.000 C 
ATOM      3  O   UNL     1       2.961   4.530  17.558  0.00  0.00    +0.000 OA
ATOM      4  C   UNL     1       3.207   5.938  17.408  0.00  0.00    +0.000 C 
ATOM      5  C   UNL     1       4.616   5.959  16.877  0.00  0.00    +0.000 C 
ATOM      6  O   UNL     1       5.261   6.962  16.607  0.00  0.00    +0.000 OA
ATOM      7  N   UNL     1       5.043   4.675  16.808  0.00  0.00    +0.000 N 
ENDROOT
BRANCH   4   8
ATOM      8  C   UNL     1       3.120   6.633  18.764  0.00  0.00    +0.000 C 
BRANCH   8   9
ATOM      9  C   UNL     1       2.322   7.900  18.714  0.00  0.00    +0.000 A 
ATOM     10  C   UNL     1       2.227   8.758  17.632  0.00  0.00    +0.000 A 
ATOM     11  N   UNL     1       1.397   9.792  17.971  0.00  0.00    +0.000 N 
ATOM     12  C   UNL     1       0.938   9.629  19.257  0.00  0.00    +0.000 A 
ATOM     13  C   UNL     1       0.060  10.422  20.004  0.00  0.00    +0.000 A 
ATOM     14  C   UNL     1      -0.231  10.012  21.308  0.00  0.00    +0.000 A 
ATOM     15  C   UNL     1       0.348   8.865  21.844  0.00  0.00    +0.000 A 
ATOM     16  C   UNL     1       1.225   8.083  21.083  0.00  0.00    +0.000 A 
ATOM     17  C   UNL     1       1.519   8.463  19.758  0.00  0.00    +0.000 A 
ATOM     18  H   UNL     1       1.150  10.563  17.367  0.00  0.00    +0.000 HD
ENDBRANCH   8   9
ENDBRANCH   4   8
BRANCH   7  19
ATOM     19  C   UNL     1       6.361   4.256  16.384  0.00  0.00    +0.000 C 
BRANCH  19  20
ATOM     20  C   UNL     1       6.529   4.365  14.882  0.00  0.00    +0.000 A 
ATOM     21  C   UNL     1       7.642   5.010  14.328  0.00  0.00    +0.000 A 
ATOM     22  C   UNL     1       7.804   5.081  12.942  0.00  0.00    +0.000 A 
ATOM     23  C   UNL     1       6.866   4.489  12.096  0.00  0.00    +0.000 A 
ATOM     24  C   UNL     1       5.751   3.825  12.625  0.00  0.00    +0.000 A 
ATOM     25  C   UNL     1       5.587   3.779  14.021  0.00  0.00    +0.000 A 
BRANCH  24  26
ATOM     26  C   UNL     1       4.746   3.147  11.725  0.00  0.00    +0.000 C 
ATOM     27  F   UNL     1       4.468   3.851  10.592  0.00  0.00    +0.000 F 
ATOM     28  F   UNL     1       5.170   1.923  11.306  0.00  0.00    +0.000 F 
ATOM     29  F   UNL     1       3.550   2.940  12.339  0.00  0.00    +0.000 F 
ENDBRANCH  24  26
ENDBRANCH  19  20
ENDBRANCH   7  19
TORSDOF 5
ENDMDL
MODEL 2
REMARK VINA RESULT:      -8.3      6.149      9.430
REMARK  Name = 
REMARK  5 active torsions:
REMARK  status: ('A' for Active; 'I' for Inactive)
REMARK    1  A    between atoms: C_4  and  C_5
REMARK    2  A    between atoms: C_5  and  C_6
REMARK    3  A    between atoms: N_17  and  C_18
REMARK    4  A    between atoms: C_18  and  C_19
REMARK    5  A    between atoms: C_23  and  C_24
REMARK                            x       y       z     vdW  Elec       q    Type
REMARK                         _______ _______ _______ _____ _____    ______ ____
ROOT
ATOM      1  O   UNL     1      -0.285   9.291  21.093  0.00  0.00    +0.000 OA
ATOM      2  C   UNL     1       0.598   9.174  20.259  0.00  0.00    +0.000 C 
ATOM      3  O   UNL     1       1.471   8.132  20.248  0.00  0.00    +0.000 OA
ATOM      4  C   UNL     1       2.220   8.155  19.020  0.00  0.00    +0.000 C 
ATOM      5  C   UNL     1       1.765   9.448  18.396  0.00  0.00    +0.000 C 
ATOM      6  O   UNL     1       2.134   9.887  17.316  0.00  0.00    +0.000 OA
ATOM      7  N   UNL     1       0.842   9.996  19.223  0.00  0.00    +0.000 N 
ENDROOT
BRANCH   4   8
ATOM      8  C   UNL     1       1.840   6.961  18.151  0.00  0.00    +0.000 C 
BRANCH   8   9
ATOM      9  C   UNL     1       2.667   5.746  18.444  0.00  0.00    +0.000 A 
ATOM     10  C   UNL     1       3.819   5.368  17.777  0.00  0.00    +0.000 A 
ATOM     11  N   UNL     1       4.288   4.214  18.343  0.00  0.00    +0.000 N 
ATOM     12  C   UNL     1       3.469   3.826  19.376  0.00  0.00    +0.000 A 
ATOM     13  C   UNL     1       3.572   2.732  20.243  0.00  0.00    +0.000 A 
ATOM     14  C   UNL     1       2.578   2.578  21.212  0.00  0.00    +0.000 A 
ATOM     15  C   UNL     1       1.518   3.476  21.298  0.00  0.00    +0.000 A 
ATOM     16  C   UNL     1       1.429   4.565  20.424  0.00  0.00    +0.000 A 
ATOM     17  C   UNL     1       2.430   4.755  19.450  0.00  0.00    +0.000 A 
ATOM     18  H   UNL     1       5.118   3.717  18.051  0.00  0.00    +0.000 HD
ENDBRANCH   8   9
ENDBRANCH   4   8
BRANCH   7  19
ATOM     19  C   UNL     1       0.124  11.226  18.974  0.00  0.00    +0.000 C 
BRANCH  19  20
ATOM     20  C   UNL     1      -1.245  10.967  18.380  0.00  0.00    +0.000 A 
ATOM     21  C   UNL     1      -1.424  10.003  17.378  0.00  0.00    +0.000 A 
ATOM     22  C   UNL     1      -2.695   9.750  16.857  0.00  0.00    +0.000 A 
ATOM     23  C   UNL     1      -3.804  10.441  17.345  0.00  0.00    +0.000 A 
ATOM     24  C   UNL     1      -3.654  11.400  18.357  0.00  0.00    +0.000 A 
ATOM     25  C   UNL     1      -2.368  11.661  18.859  0.00  0.00    +0.000 A 
BRANCH  24  26
ATOM     26  C   UNL     1      -4.848  12.130  18.923  0.00  0.00    +0.000 C 
ATOM     27  F   UNL     1      -5.753  11.310  19.527  0.00  0.00    +0.000 F 
ATOM     28  F   UNL     1      -4.494  13.048  19.865  0.00  0.00    +0.000 F 
ATOM     29  F   UNL     1      -5.541  12.815  17.974  0.00  0.00    +0.000 F 
ENDBRANCH  24  26
ENDBRANCH  19  20
ENDBRANCH   7  19
TORSDOF 5
ENDMDL
MODEL 3
REMARK VINA RESULT:      -8.3      3.612      4.489
REMARK  Name = 
REMARK  5 active torsions:
REMARK  status: ('A' for Active; 'I' for Inactive)
REMARK    1  A    between atoms: C_4  and  C_5
REMARK    2  A    between atoms: C_5  and  C_6
REMARK    3  A    between atoms: N_17  and  C_18
REMARK    4  A    between atoms: C_18  and  C_19
REMARK    5  A    between atoms: C_23  and  C_24
REMARK                            x       y       z     vdW  Elec       q    Type
REMARK                         _______ _______ _______ _____ _____    ______ ____
ROOT
ATOM      1  O   UNL     1       2.932   2.851  21.247  0.00  0.00    +0.000 OA
ATOM      2  C   UNL     1       2.456   3.768  20.598  0.00  0.00    +0.000 C 
ATOM      3  O   UNL     1       1.718   4.765  21.157  0.00  0.00    +0.000 OA
ATOM      4  C   UNL     1       1.512   5.802  20.183  0.00  0.00    +0.000 C 
ATOM      5  C   UNL     1       2.101   5.192  18.939  0.00  0.00    +0.000 C 
ATOM      6  O   UNL     1       2.162   5.728  17.842  0.00  0.00    +0.000 OA
ATOM      7  N   UNL     1       2.592   3.975  19.276  0.00  0.00    +0.000 N 
ENDROOT
BRANCH   4   8
ATOM      8  C   UNL     1       2.271   7.062  20.590  0.00  0.00    +0.000 C 
BRANCH   8   9
ATOM      9  C   UNL     1       1.511   8.318  20.288  0.00  0.00    +0.000 A 
ATOM     10  C   UNL     1       1.434   8.943  19.056  0.00  0.00    +0.000 A 
ATOM     11  N   UNL     1       0.639  10.050  19.181  0.00  0.00    +0.000 N 
ATOM     12  C   UNL     1       0.185  10.163  20.473  0.00  0.00    +0.000 A 
ATOM     13  C   UNL     1      -0.663  11.117  21.047  0.00  0.00    +0.000 A 
ATOM     14  C   UNL     1      -0.957  10.987  22.407  0.00  0.00    +0.000 A 
ATOM     15  C   UNL     1      -0.409   9.953  23.162  0.00  0.00    +0.000 A 
ATOM     16  C   UNL     1       0.438   9.007  22.573  0.00  0.00    +0.000 A 
ATOM     17  C   UNL     1       0.733   9.104  21.197  0.00  0.00    +0.000 A 
ATOM     18  H   UNL     1       0.412  10.692  18.434  0.00  0.00    +0.000 HD
ENDBRANCH   8   9
ENDBRANCH   4   8
BRANCH   7  19
ATOM     19  C   UNL     1       3.279   3.074  18.378  0.00  0.00    +0.000 C 
BRANCH  19  20
ATOM     20  C   UNL     1       4.480   3.732  17.732  0.00  0.00    +0.000 A 
ATOM     21  C   UNL     1       4.570   3.858  16.339  0.00  0.00    +0.000 A 
ATOM     22  C   UNL     1       5.667   4.492  15.754  0.00  0.00    +0.000 A 
ATOM     23  C   UNL     1       6.678   5.027  16.553  0.00  0.00    +0.000 A 
ATOM     24  C   UNL     1       6.605   4.928  17.949  0.00  0.00    +0.000 A 
ATOM     25  C   UNL     1       5.506   4.268  18.527  0.00  0.00    +0.000 A 
BRANCH  24  26
ATOM     26  C   UNL     1       7.670   5.533  18.831  0.00  0.00    +0.000 C 
ATOM     27  F   UNL     1       8.802   4.779  18.916  0.00  0.00    +0.000 F 
ATOM     28  F   UNL     1       8.073   6.757  18.390  0.00  0.00    +0.000 F 
ATOM     29  F   UNL     1       7.248   5.717  20.112  0.00  0.00    +0.000 F 
ENDBRANCH  24  26
ENDBRANCH  19  20
ENDBRANCH   7  19
TORSDOF 5
ENDMDL
MODEL 4
REMARK VINA RESULT:      -8.2      2.218      3.348
REMARK  Name = 
REMARK  5 active torsions:
REMARK  status: ('A' for Active; 'I' for Inactive)
REMARK    1  A    between atoms: C_4  and  C_5
REMARK    2  A    between atoms: C_5  and  C_6
REMARK    3  A    between atoms: N_17  and  C_18
REMARK    4  A    between atoms: C_18  and  C_19
REMARK    5  A    between atoms: C_23  and  C_24
REMARK                            x       y       z     vdW  Elec       q    Type
REMARK                         _______ _______ _______ _____ _____    ______ ____
ROOT
ATOM      1  O   UNL     1       2.930   2.933  21.331  0.00  0.00    +0.000 OA
ATOM      2  C   UNL     1       2.466   3.840  20.659  0.00  0.00    +0.000 C 
ATOM      3  O   UNL     1       1.701   4.834  21.186  0.00  0.00    +0.000 OA
ATOM      4  C   UNL     1       1.517   5.862  20.198  0.00  0.00    +0.000 C 
ATOM      5  C   UNL     1       2.153   5.248  18.978  0.00  0.00    +0.000 C 
ATOM      6  O   UNL     1       2.243   5.777  17.880  0.00  0.00    +0.000 OA
ATOM      7  N   UNL     1       2.644   4.039  19.342  0.00  0.00    +0.000 N 
ENDROOT
BRANCH   4   8
ATOM      8  C   UNL     1       2.249   7.132  20.620  0.00  0.00    +0.000 C 
BRANCH   8   9
ATOM      9  C   UNL     1       1.474   8.376  20.310  0.00  0.00    +0.000 A 
ATOM     10  C   UNL     1       1.378   8.987  19.072  0.00  0.00    +0.000 A 
ATOM     11  N   UNL     1       0.573  10.087  19.193  0.00  0.00    +0.000 N 
ATOM     12  C   UNL     1       0.131  10.211  20.488  0.00  0.00    +0.000 A 
ATOM     13  C   UNL     1      -0.722  11.162  21.059  0.00  0.00    +0.000 A 
ATOM     14  C   UNL     1      -1.000  11.045  22.423  0.00  0.00    +0.000 A 
ATOM     15  C   UNL     1      -0.435  10.025  23.184  0.00  0.00    +0.000 A 
ATOM     16  C   UNL     1       0.416   9.082  22.598  0.00  0.00    +0.000 A 
ATOM     17  C   UNL     1       0.697   9.165  21.219  0.00  0.00    +0.000 A 
ATOM     18  H   UNL     1       0.332  10.718  18.441  0.00  0.00    +0.000 HD
ENDBRANCH   8   9
ENDBRANCH   4   8
BRANCH   7  19
ATOM     19  C   UNL     1       3.368   3.138  18.473  0.00  0.00    +0.000 C 
BRANCH  19  20
ATOM     20  C   UNL     1       4.632   3.774  17.932  0.00  0.00    +0.000 A 
ATOM     21  C   UNL     1       5.614   4.273  18.798  0.00  0.00    +0.000 A 
ATOM     22  C   UNL     1       6.789   4.832  18.291  0.00  0.00    +0.000 A 
ATOM     23  C   UNL     1       7.006   4.880  16.913  0.00  0.00    +0.000 A 
ATOM     24  C   UNL     1       6.046   4.374  16.026  0.00  0.00    +0.000 A 
ATOM     25  C   UNL     1       4.858   3.833  16.547  0.00  0.00    +0.000 A 
BRANCH  24  26
ATOM     26  C   UNL     1       6.280   4.384  14.535  0.00  0.00    +0.000 C 
ATOM     27  F   UNL     1       6.392   3.139  13.992  0.00  0.00    +0.000 F 
ATOM     28  F   UNL     1       5.268   4.993  13.856  0.00  0.00    +0.000 F 
ATOM     29  F   UNL     1       7.417   5.046  14.187  0.00  0.00    +0.000 F 
ENDBRANCH  24  26
ENDBRANCH  19  20
ENDBRANCH   7  19
TORSDOF 5
ENDMDL
MODEL 5
REMARK VINA RESULT:      -7.9      4.802      8.875
REMARK  Name = 
REMARK  5 active torsions:
REMARK  status: ('A' for Active; 'I' for Inactive)
REMARK    1  A    between atoms: C_4  and  C_5
REMARK    2  A    between atoms: C_5  and  C_6
REMARK    3  A    between atoms: N_17  and  C_18
REMARK    4  A    between atoms: C_18  and  C_19
REMARK    5  A    between atoms: C_23  and  C_24
REMARK                            x       y       z     vdW  Elec       q    Type
REMARK                         _______ _______ _______ _____ _____    ______ ____
ROOT
ATOM      1  O   UNL     1      -0.111   9.531  21.299  0.00  0.00    +0.000 OA
ATOM      2  C   UNL     1       0.736   9.414  20.427  0.00  0.00    +0.000 C 
ATOM      3  O   UNL     1       1.502   8.300  20.285  0.00  0.00    +0.000 OA
ATOM      4  C   UNL     1       2.219   8.375  19.041  0.00  0.00    +0.000 C 
ATOM      5  C   UNL     1       1.878   9.762  18.561  0.00  0.00    +0.000 C 
ATOM      6  O   UNL     1       2.262  10.269  17.518  0.00  0.00    +0.000 OA
ATOM      7  N   UNL     1       1.034  10.309  19.469  0.00  0.00    +0.000 N 
ENDROOT
BRANCH   4   8
ATOM      8  C   UNL     1       1.703   7.316  18.073  0.00  0.00    +0.000 C 
BRANCH   8   9
ATOM      9  C   UNL     1       2.696   6.220  17.832  0.00  0.00    +0.000 A 
ATOM     10  C   UNL     1       4.018   6.389  17.458  0.00  0.00    +0.000 A 
ATOM     11  N   UNL     1       4.599   5.155  17.350  0.00  0.00    +0.000 N 
ATOM     12  C   UNL     1       3.685   4.173  17.651  0.00  0.00    +0.000 A 
ATOM     13  C   UNL     1       3.841   2.783  17.692  0.00  0.00    +0.000 A 
ATOM     14  C   UNL     1       2.723   2.016  18.030  0.00  0.00    +0.000 A 
ATOM     15  C   UNL     1       1.497   2.619  18.299  0.00  0.00    +0.000 A 
ATOM     16  C   UNL     1       1.357   4.011  18.253  0.00  0.00    +0.000 A 
ATOM     17  C   UNL     1       2.476   4.808  17.935  0.00  0.00    +0.000 A 
ATOM     18  H   UNL     1       5.561   4.985  17.091  0.00  0.00    +0.000 HD
ENDBRANCH   8   9
ENDBRANCH   4   8
BRANCH   7  19
ATOM     19  C   UNL     1       0.434  11.621  19.365  0.00  0.00    +0.000 C 
BRANCH  19  20
ATOM     20  C   UNL     1      -1.026  11.541  18.969  0.00  0.00    +0.000 A 
ATOM     21  C   UNL     1      -2.027  12.060  19.802  0.00  0.00    +0.000 A 
ATOM     22  C   UNL     1      -3.368  12.008  19.416  0.00  0.00    +0.000 A 
ATOM     23  C   UNL     1      -3.722  11.457  18.184  0.00  0.00    +0.000 A 
ATOM     24  C   UNL     1      -2.740  10.944  17.327  0.00  0.00    +0.000 A 
ATOM     25  C   UNL     1      -1.395  10.982  17.735  0.00  0.00    +0.000 A 
BRANCH  24  26
ATOM     26  C   UNL     1      -3.102  10.378  15.975  0.00  0.00    +0.000 C 
ATOM     27  F   UNL     1      -4.445  10.274  15.769  0.00  0.00    +0.000 F 
ATOM     28  F   UNL     1      -2.628  11.141  14.951  0.00  0.00    +0.000 F 
ATOM     29  F   UNL     1      -2.597   9.130  15.778  0.00  0.00    +0.000 F 
ENDBRANCH  24  26
ENDBRANCH  19  20
ENDBRANCH   7  19
TORSDOF 5
ENDMDL
MODEL 6
REMARK VINA RESULT:      -7.9      4.924      8.978
REMARK  Name = 
REMARK  5 active torsions:
REMARK  status: ('A' for Active; 'I' for Inactive)
REMARK    1  A    between atoms: C_4  and  C_5
REMARK    2  A    between atoms: C_5  and  C_6
REMARK    3  A    between atoms: N_17  and  C_18
REMARK    4  A    between atoms: C_18  and  C_19
REMARK    5  A    between atoms: C_23  and  C_24
REMARK                            x       y       z     vdW  Elec       q    Type
REMARK                         _______ _______ _______ _____ _____    ______ ____
ROOT
ATOM      1  O   UNL     1       2.337  11.158  17.449  0.00  0.00    +0.000 OA
ATOM      2  C   UNL     1       2.024  10.089  17.948  0.00  0.00    +0.000 C 
ATOM      3  O   UNL     1       2.252   8.894  17.341  0.00  0.00    +0.000 OA
ATOM      4  C   UNL     1       1.995   7.833  18.275  0.00  0.00    +0.000 C 
ATOM      5  C   UNL     1       1.436   8.579  19.458  0.00  0.00    +0.000 C 
ATOM      6  O   UNL     1       1.081   8.077  20.515  0.00  0.00    +0.000 OA
ATOM      7  N   UNL     1       1.453   9.898  19.150  0.00  0.00    +0.000 N 
ENDROOT
BRANCH   4   8
ATOM      8  C   UNL     1       3.297   7.125  18.637  0.00  0.00    +0.000 C 
BRANCH   8   9
ATOM      9  C   UNL     1       3.363   5.726  18.102  0.00  0.00    +0.000 A 
ATOM     10  C   UNL     1       4.227   5.272  17.121  0.00  0.00    +0.000 A 
ATOM     11  N   UNL     1       3.990   3.940  16.918  0.00  0.00    +0.000 N 
ATOM     12  C   UNL     1       2.988   3.505  17.752  0.00  0.00    +0.000 A 
ATOM     13  C   UNL     1       2.437   2.227  17.904  0.00  0.00    +0.000 A 
ATOM     14  C   UNL     1       1.409   2.073  18.838  0.00  0.00    +0.000 A 
ATOM     15  C   UNL     1       0.945   3.158  19.577  0.00  0.00    +0.000 A 
ATOM     16  C   UNL     1       1.506   4.429  19.413  0.00  0.00    +0.000 A 
ATOM     17  C   UNL     1       2.558   4.607  18.491  0.00  0.00    +0.000 A 
ATOM     18  H   UNL     1       4.480   3.355  16.255  0.00  0.00    +0.000 HD
ENDBRANCH   8   9
ENDBRANCH   4   8
BRANCH   7  19
ATOM     19  C   UNL     1       1.036  10.966  20.032  0.00  0.00    +0.000 C 
BRANCH  19  20
ATOM     20  C   UNL     1      -0.411  11.350  19.803  0.00  0.00    +0.000 A 
ATOM     21  C   UNL     1      -1.104  12.135  20.735  0.00  0.00    +0.000 A 
ATOM     22  C   UNL     1      -2.429  12.509  20.501  0.00  0.00    +0.000 A 
ATOM     23  C   UNL     1      -3.070  12.122  19.324  0.00  0.00    +0.000 A 
ATOM     24  C   UNL     1      -2.395  11.349  18.369  0.00  0.00    +0.000 A 
ATOM     25  C   UNL     1      -1.068  10.961  18.624  0.00  0.00    +0.000 A 
BRANCH  24  26
ATOM     26  C   UNL     1      -3.061  10.953  17.074  0.00  0.00    +0.000 C 
ATOM     27  F   UNL     1      -4.233  11.607  16.841  0.00  0.00    +0.000 F 
ATOM     28  F   UNL     1      -2.275  11.204  15.990  0.00  0.00    +0.000 F 
ATOM     29  F   UNL     1      -3.358   9.626  17.022  0.00  0.00    +0.000 F 
ENDBRANCH  24  26
ENDBRANCH  19  20
ENDBRANCH   7  19
TORSDOF 5
ENDMDL
MODEL 7
REMARK VINA RESULT:      -7.9      4.974      8.711
REMARK  Name = 
REMARK  5 active torsions:
REMARK  status: ('A' for Active; 'I' for Inactive)
REMARK    1  A    between atoms: C_4  and  C_5
REMARK    2  A    between atoms: C_5  and  C_6
REMARK    3  A    between atoms: N_17  and  C_18
REMARK    4  A    between atoms: C_18  and  C_19
REMARK    5  A    between atoms: C_23  and  C_24
REMARK                            x       y       z     vdW  Elec       q    Type
REMARK                         _______ _______ _______ _____ _____    ______ ____
ROOT
ATOM      1  O   UNL     1      -0.121   9.661  21.262  0.00  0.00    +0.000 OA
ATOM      2  C   UNL     1       0.719   9.457  20.401  0.00  0.00    +0.000 C 
ATOM      3  O   UNL     1       1.459   8.318  20.344  0.00  0.00    +0.000 OA
ATOM      4  C   UNL     1       2.173   8.279  19.097  0.00  0.00    +0.000 C 
ATOM      5  C   UNL     1       1.862   9.632  18.511  0.00  0.00    +0.000 C 
ATOM      6  O   UNL     1       2.254  10.047  17.430  0.00  0.00    +0.000 OA
ATOM      7  N   UNL     1       1.034  10.267  19.375  0.00  0.00    +0.000 N 
ENDROOT
BRANCH   4   8
ATOM      8  C   UNL     1       1.629   7.160  18.215  0.00  0.00    +0.000 C 
BRANCH   8   9
ATOM      9  C   UNL     1       2.395   5.880  18.366  0.00  0.00    +0.000 A 
ATOM     10  C   UNL     1       3.452   5.469  17.574  0.00  0.00    +0.000 A 
ATOM     11  N   UNL     1       3.892   4.258  18.033  0.00  0.00    +0.000 N 
ATOM     12  C   UNL     1       3.147   3.864  19.119  0.00  0.00    +0.000 A 
ATOM     13  C   UNL     1       3.255   2.718  19.915  0.00  0.00    +0.000 A 
ATOM     14  C   UNL     1       2.346   2.572  20.966  0.00  0.00    +0.000 A 
ATOM     15  C   UNL     1       1.361   3.529  21.198  0.00  0.00    +0.000 A 
ATOM     16  C   UNL     1       1.266   4.669  20.393  0.00  0.00    +0.000 A 
ATOM     17  C   UNL     1       2.185   4.850  19.338  0.00  0.00    +0.000 A 
ATOM     18  H   UNL     1       4.656   3.727  17.639  0.00  0.00    +0.000 HD
ENDBRANCH   8   9
ENDBRANCH   4   8
BRANCH   7  19
ATOM     19  C   UNL     1       0.465  11.581  19.171  0.00  0.00    +0.000 C 
BRANCH  19  20
ATOM     20  C   UNL     1      -1.007  11.506  18.821  0.00  0.00    +0.000 A 
ATOM     21  C   UNL     1      -1.977  12.061  19.666  0.00  0.00    +0.000 A 
ATOM     22  C   UNL     1      -3.329  12.014  19.322  0.00  0.00    +0.000 A 
ATOM     23  C   UNL     1      -3.726  11.430  18.118  0.00  0.00    +0.000 A 
ATOM     24  C   UNL     1      -2.775  10.881  17.248  0.00  0.00    +0.000 A 
ATOM     25  C   UNL     1      -1.419  10.915  17.615  0.00  0.00    +0.000 A 
BRANCH  24  26
ATOM     26  C   UNL     1      -3.183  10.279  15.925  0.00  0.00    +0.000 C 
ATOM     27  F   UNL     1      -4.470  10.559  15.572  0.00  0.00    +0.000 F 
ATOM     28  F   UNL     1      -2.412  10.723  14.894  0.00  0.00    +0.000 F 
ATOM     29  F   UNL     1      -3.081   8.922  15.913  0.00  0.00    +0.000 F 
ENDBRANCH  24  26
ENDBRANCH  19  20
ENDBRANCH   7  19
TORSDOF 5
ENDMDL
MODEL 8
REMARK VINA RESULT:      -7.9      4.942      8.601
REMARK  Name = 
REMARK  5 active torsions:
REMARK  status: ('A' for Active; 'I' for Inactive)
REMARK    1  A    between atoms: C_4  and  C_5
REMARK    2  A    between atoms: C_5  and  C_6
REMARK    3  A    between atoms: N_17  and  C_18
REMARK    4  A    between atoms: C_18  and  C_19
REMARK    5  A    between atoms: C_23  and  C_24
REMARK                            x       y       z     vdW  Elec       q    Type
REMARK                         _______ _______ _______ _____ _____    ______ ____
ROOT
ATOM      1  O   UNL     1       2.256  10.363  17.526  0.00  0.00    +0.000 OA
ATOM      2  C   UNL     1       2.172   9.257  18.036  0.00  0.00    +0.000 C 
ATOM      3  O   UNL     1       2.655   8.131  17.445  0.00  0.00    +0.000 OA
ATOM      4  C   UNL     1       2.619   7.049  18.390  0.00  0.00    +0.000 C 
ATOM      5  C   UNL     1       1.902   7.672  19.560  0.00  0.00    +0.000 C 
ATOM      6  O   UNL     1       1.650   7.116  20.619  0.00  0.00    +0.000 OA
ATOM      7  N   UNL     1       1.642   8.961  19.236  0.00  0.00    +0.000 N 
ENDROOT
BRANCH   4   8
ATOM      8  C   UNL     1       4.037   6.637  18.771  0.00  0.00    +0.000 C 
BRANCH   8   9
ATOM      9  C   UNL     1       4.230   5.151  18.761  0.00  0.00    +0.000 A 
ATOM     10  C   UNL     1       5.444   4.490  18.827  0.00  0.00    +0.000 A 
ATOM     11  N   UNL     1       5.205   3.142  18.806  0.00  0.00    +0.000 N 
ATOM     12  C   UNL     1       3.854   2.902  18.732  0.00  0.00    +0.000 A 
ATOM     13  C   UNL     1       3.157   1.689  18.710  0.00  0.00    +0.000 A 
ATOM     14  C   UNL     1       1.763   1.745  18.626  0.00  0.00    +0.000 A 
ATOM     15  C   UNL     1       1.099   2.966  18.552  0.00  0.00    +0.000 A 
ATOM     16  C   UNL     1       1.811   4.171  18.575  0.00  0.00    +0.000 A 
ATOM     17  C   UNL     1       3.217   4.142  18.680  0.00  0.00    +0.000 A 
ATOM     18  H   UNL     1       5.915   2.424  18.842  0.00  0.00    +0.000 HD
ENDBRANCH   8   9
ENDBRANCH   4   8
BRANCH   7  19
ATOM     19  C   UNL     1       0.999   9.925  20.101  0.00  0.00    +0.000 C 
BRANCH  19  20
ATOM     20  C   UNL     1      -0.102  10.677  19.383  0.00  0.00    +0.000 A 
ATOM     21  C   UNL     1      -0.100  12.078  19.329  0.00  0.00    +0.000 A 
ATOM     22  C   UNL     1      -1.104  12.762  18.639  0.00  0.00    +0.000 A 
ATOM     23  C   UNL     1      -2.108  12.055  17.978  0.00  0.00    +0.000 A 
ATOM     24  C   UNL     1      -2.125  10.654  18.005  0.00  0.00    +0.000 A 
ATOM     25  C   UNL     1      -1.122   9.976  18.720  0.00  0.00    +0.000 A 
BRANCH  24  26
ATOM     26  C   UNL     1      -3.183   9.872  17.265  0.00  0.00    +0.000 C 
ATOM     27  F   UNL     1      -2.742   9.329  16.095  0.00  0.00    +0.000 F 
ATOM     28  F   UNL     1      -3.664   8.829  17.998  0.00  0.00    +0.000 F 
ATOM     29  F   UNL     1      -4.264  10.631  16.939  0.00  0.00    +0.000 F 
ENDBRANCH  24  26
ENDBRANCH  19  20
ENDBRANCH   7  19
TORSDOF 5
ENDMDL
MODEL 9
REMARK VINA RESULT:      -7.9      3.732      4.722
REMARK  Name = 
REMARK  5 active torsions:
REMARK  status: ('A' for Active; 'I' for Inactive)
REMARK    1  A    between atoms: C_4  and  C_5
REMARK    2  A    between atoms: C_5  and  C_6
REMARK    3  A    between atoms: N_17  and  C_18
REMARK    4  A    between atoms: C_18  and  C_19
REMARK    5  A    between atoms: C_23  and  C_24
REMARK                            x       y       z     vdW  Elec       q    Type
REMARK                         _______ _______ _______ _____ _____    ______ ____
ROOT
ATOM      1  O   UNL     1       3.293   2.622  20.969  0.00  0.00    +0.000 OA
ATOM      2  C   UNL     1       2.694   3.553  20.454  0.00  0.00    +0.000 C 
ATOM      3  O   UNL     1       1.923   4.420  21.163  0.00  0.00    +0.000 OA
ATOM      4  C   UNL     1       1.557   5.525  20.320  0.00  0.00    +0.000 C 
ATOM      5  C   UNL     1       2.094   5.095  18.980  0.00  0.00    +0.000 C 
ATOM      6  O   UNL     1       2.024   5.739  17.944  0.00  0.00    +0.000 OA
ATOM      7  N   UNL     1       2.708   3.899  19.154  0.00  0.00    +0.000 N 
ENDROOT
BRANCH   4   8
ATOM      8  C   UNL     1       2.239   6.802  20.802  0.00  0.00    +0.000 C 
BRANCH   8   9
ATOM      9  C   UNL     1       1.294   7.960  20.905  0.00  0.00    +0.000 A 
ATOM     10  C   UNL     1       0.474   8.245  21.982  0.00  0.00    +0.000 A 
ATOM     11  N   UNL     1      -0.227   9.386  21.703  0.00  0.00    +0.000 N 
ATOM     12  C   UNL     1       0.119   9.863  20.461  0.00  0.00    +0.000 A 
ATOM     13  C   UNL     1      -0.323  11.003  19.781  0.00  0.00    +0.000 A 
ATOM     14  C   UNL     1       0.204  11.243  18.509  0.00  0.00    +0.000 A 
ATOM     15  C   UNL     1       1.123  10.367  17.939  0.00  0.00    +0.000 A 
ATOM     16  C   UNL     1       1.555   9.231  18.632  0.00  0.00    +0.000 A 
ATOM     17  C   UNL     1       1.055   8.977  19.925  0.00  0.00    +0.000 A 
ATOM     18  H   UNL     1      -0.900   9.822  22.318  0.00  0.00    +0.000 HD
ENDBRANCH   8   9
ENDBRANCH   4   8
BRANCH   7  19
ATOM     19  C   UNL     1       3.393   3.155  18.121  0.00  0.00    +0.000 C 
BRANCH  19  20
ATOM     20  C   UNL     1       4.585   3.916  17.578  0.00  0.00    +0.000 A 
ATOM     21  C   UNL     1       4.686   4.216  16.213  0.00  0.00    +0.000 A 
ATOM     22  C   UNL     1       5.774   4.943  15.725  0.00  0.00    +0.000 A 
ATOM     23  C   UNL     1       6.763   5.397  16.598  0.00  0.00    +0.000 A 
ATOM     24  C   UNL     1       6.678   5.123  17.970  0.00  0.00    +0.000 A 
ATOM     25  C   UNL     1       5.589   4.372  18.447  0.00  0.00    +0.000 A 
BRANCH  24  26
ATOM     26  C   UNL     1       7.719   5.638  18.934  0.00  0.00    +0.000 C 
ATOM     27  F   UNL     1       7.264   5.763  20.213  0.00  0.00    +0.000 F 
ATOM     28  F   UNL     1       8.806   4.820  19.007  0.00  0.00    +0.000 F 
ATOM     29  F   UNL     1       8.195   6.864  18.587  0.00  0.00    +0.000 F 
ENDBRANCH  24  26
ENDBRANCH  19  20
ENDBRANCH   7  19
TORSDOF 5
ENDMDL
