MODEL 1
REMARK VINA RESULT:      -7.7      0.000      0.000
REMARK  Name = 
REMARK  9 active torsions:
REMARK  status: ('A' for Active; 'I' for Inactive)
REMARK    1  A    between atoms: C_1  and  C_2
REMARK    2  A    between atoms: C_2  and  C_3
REMARK    3  A    between atoms: C_6  and  C_7
REMARK    4  A    between atoms: C_9  and  C_10
REMARK    5  A    between atoms: C_9  and  C_11
REMARK    6  A    between atoms: C_16  and  C_17
REMARK    7  A    between atoms: C_18  and  C_19
REMARK    8  A    between atoms: C_22  and  C_23
REMARK    9  A    between atoms: C_23  and  O_25
REMARK                            x       y       z     vdW  Elec       q    Type
REMARK                         _______ _______ _______ _____ _____    ______ ____
ROOT
ATOM      1  C   UNL     1       3.428   5.173  17.336  0.00  0.00    +0.000 C 
ATOM      2  C   UNL     1       3.385   3.946  17.979  0.00  0.00    +0.000 C 
ATOM      3  C   UNL     1       3.348   3.827  19.476  0.00  0.00    +0.000 C 
ATOM      4  C   UNL     1       3.345   2.524  20.266  0.00  0.00    +0.000 C 
ATOM      5  C   UNL     1       4.536   4.678  20.038  0.00  0.00    +0.000 C 
ATOM      6  S   UNL     1       1.670   4.329  19.770  0.00  0.00    +0.000 S 
ATOM      7  C   UNL     1       2.154   5.994  19.534  0.00  0.00    +0.000 A 
ATOM      8  C   UNL     1       1.861   6.684  20.732  0.00  0.00    +0.000 A 
ATOM      9  C   UNL     1       1.571   8.008  20.748  0.00  0.00    +0.000 A 
ATOM     10  C   UNL     1       1.416   8.628  19.526  0.00  0.00    +0.000 A 
ATOM     11  C   UNL     1       2.073   7.892  18.282  0.00  0.00    +0.000 A 
ATOM     12  C   UNL     1       2.651   6.490  18.309  0.00  0.00    +0.000 A 
ENDROOT
BRANCH   1  16
ATOM     13  C   UNL     1       7.023   5.000  14.214  0.00  0.00    +0.000 A 
ATOM     14  C   UNL     1       7.150   5.579  15.474  0.00  0.00    +0.000 A 
ATOM     15  C   UNL     1       6.091   5.454  16.517  0.00  0.00    +0.000 A 
ATOM     16  C   UNL     1       4.812   4.752  16.396  0.00  0.00    +0.000 A 
ATOM     17  C   UNL     1       4.729   4.220  15.082  0.00  0.00    +0.000 A 
ATOM     18  C   UNL     1       5.784   4.336  14.052  0.00  0.00    +0.000 A 
BRANCH  13  20
ATOM     19  C   UNL     1       8.143   6.033  11.895  0.00  0.00    +0.000 C 
ATOM     20  C   UNL     1       8.045   4.999  13.044  0.00  0.00    +0.000 C 
ENDBRANCH  13  20
ENDBRANCH   1  16
BRANCH  10  21
ATOM     21  C   UNL     1       0.434   9.827  19.864  0.00  0.00    +0.000 C 
ATOM     22  C   UNL     1      -0.064  10.708  20.585  0.00  0.00    +0.000 C 
BRANCH  22  23
ATOM     23  C   UNL     1      -0.561  11.740  21.595  0.00  0.00    +0.000 A 
ATOM     24  C   UNL     1      -0.101  13.072  21.721  0.00  0.00    +0.000 A 
ATOM     25  C   UNL     1      -0.608  14.036  22.669  0.00  0.00    +0.000 A 
ATOM     26  C   UNL     1      -1.654  13.709  23.581  0.00  0.00    +0.000 A 
ATOM     27  C   UNL     1      -2.136  12.381  23.493  0.00  0.00    +0.000 A 
ATOM     28  C   UNL     1      -1.601  11.443  22.527  0.00  0.00    +0.000 A 
BRANCH  26  29
ATOM     29  C   UNL     1      -2.138  14.798  24.541  0.00  0.00    +0.000 C 
ATOM     30  O   UNL     1      -1.498  15.820  24.751  0.00  0.00    +0.000 OA
BRANCH  29  31
ATOM     31  O   UNL     1      -3.322  14.598  25.163  0.00  0.00    +0.000 OA
ATOM     32  H   UNL     1      -3.758  13.740  25.071  0.00  0.00    +0.000 HD
ENDBRANCH  29  31
ENDBRANCH  26  29
ENDBRANCH  22  23
ENDBRANCH  10  21
TORSDOF 6
ENDMDL
MODEL 2
REMARK VINA RESULT:      -7.7      1.110      1.472
REMARK  Name = 
REMARK  9 active torsions:
REMARK  status: ('A' for Active; 'I' for Inactive)
REMARK    1  A    between atoms: C_1  and  C_2
REMARK    2  A    between atoms: C_2  and  C_3
REMARK    3  A    between atoms: C_6  and  C_7
REMARK    4  A    between atoms: C_9  and  C_10
REMARK    5  A    between atoms: C_9  and  C_11
REMARK    6  A    between atoms: C_16  and  C_17
REMARK    7  A    between atoms: C_18  and  C_19
REMARK    8  A    between atoms: C_22  and  C_23
REMARK    9  A    between atoms: C_23  and  O_25
REMARK                            x       y       z     vdW  Elec       q    Type
REMARK                         _______ _______ _______ _____ _____    ______ ____
ROOT
ATOM      1  C   UNL     1       3.303   5.302  17.398  0.00  0.00    +0.000 C 
ATOM      2  C   UNL     1       3.196   4.093  18.066  0.00  0.00    +0.000 C 
ATOM      3  C   UNL     1       3.156   4.007  19.565  0.00  0.00    +0.000 C 
ATOM      4  C   UNL     1       3.083   2.723  20.382  0.00  0.00    +0.000 C 
ATOM      5  C   UNL     1       4.390   4.803  20.108  0.00  0.00    +0.000 C 
ATOM      6  S   UNL     1       1.509   4.606  19.851  0.00  0.00    +0.000 S 
ATOM      7  C   UNL     1       2.082   6.237  19.580  0.00  0.00    +0.000 A 
ATOM      8  C   UNL     1       1.830   6.967  20.764  0.00  0.00    +0.000 A 
ATOM      9  C   UNL     1       1.613   8.304  20.753  0.00  0.00    +0.000 A 
ATOM     10  C   UNL     1       1.489   8.907  19.518  0.00  0.00    +0.000 A 
ATOM     11  C   UNL     1       2.102   8.110  18.289  0.00  0.00    +0.000 A 
ATOM     12  C   UNL     1       2.602   6.679  18.344  0.00  0.00    +0.000 A 
ENDROOT
BRANCH   1  16
ATOM     13  C   UNL     1       6.847   4.846  14.245  0.00  0.00    +0.000 A 
ATOM     14  C   UNL     1       7.011   5.486  15.471  0.00  0.00    +0.000 A 
ATOM     15  C   UNL     1       5.963   5.452  16.532  0.00  0.00    +0.000 A 
ATOM     16  C   UNL     1       4.660   4.787  16.464  0.00  0.00    +0.000 A 
ATOM     17  C   UNL     1       4.542   4.189  15.182  0.00  0.00    +0.000 A 
ATOM     18  C   UNL     1       5.586   4.216  14.134  0.00  0.00    +0.000 A 
BRANCH  13  20
ATOM     19  C   UNL     1       7.510   4.538  11.569  0.00  0.00    +0.000 C 
ATOM     20  C   UNL     1       7.852   4.749  13.065  0.00  0.00    +0.000 C 
ENDBRANCH  13  20
ENDBRANCH   1  16
BRANCH  10  21
ATOM     21  C   UNL     1       0.575  10.164  19.833  0.00  0.00    +0.000 C 
ATOM     22  C   UNL     1      -0.283  10.805  20.462  0.00  0.00    +0.000 C 
BRANCH  22  23
ATOM     23  C   UNL     1      -1.349  11.454  21.343  0.00  0.00    +0.000 A 
ATOM     24  C   UNL     1      -1.483  11.294  22.743  0.00  0.00    +0.000 A 
ATOM     25  C   UNL     1      -2.486  11.941  23.557  0.00  0.00    +0.000 A 
ATOM     26  C   UNL     1      -3.450  12.827  22.991  0.00  0.00    +0.000 A 
ATOM     27  C   UNL     1      -3.354  13.006  21.591  0.00  0.00    +0.000 A 
ATOM     28  C   UNL     1      -2.333  12.340  20.809  0.00  0.00    +0.000 A 
BRANCH  26  29
ATOM     29  C   UNL     1      -4.466  13.478  23.932  0.00  0.00    +0.000 C 
ATOM     30  O   UNL     1      -5.623  13.088  24.021  0.00  0.00    +0.000 OA
BRANCH  29  31
ATOM     31  O   UNL     1      -4.040  14.519  24.683  0.00  0.00    +0.000 OA
ATOM     32  H   UNL     1      -4.400  14.629  25.574  0.00  0.00    +0.000 HD
ENDBRANCH  29  31
ENDBRANCH  26  29
ENDBRANCH  22  23
ENDBRANCH  10  21
TORSDOF 6
ENDMDL
MODEL 3
REMARK VINA RESULT:      -7.6      2.755      3.164
REMARK  Name = 
REMARK  9 active torsions:
REMARK  status: ('A' for Active; 'I' for Inactive)
REMARK    1  A    between atoms: C_1  and  C_2
REMARK    2  A    between atoms: C_2  and  C_3
REMARK    3  A    between atoms: C_6  and  C_7
REMARK    4  A    between atoms: C_9  and  C_10
REMARK    5  A    between atoms: C_9  and  C_11
REMARK    6  A    between atoms: C_16  and  C_17
REMARK    7  A    between atoms: C_18  and  C_19
REMARK    8  A    between atoms: C_22  and  C_23
REMARK    9  A    between atoms: C_23  and  O_25
REMARK                            x       y       z     vdW  Elec       q    Type
REMARK                         _______ _______ _______ _____ _____    ______ ____
ROOT
ATOM      1  C   UNL     1       3.437   5.118  17.265  0.00  0.00    +0.000 C 
ATOM      2  C   UNL     1       3.422   3.925  17.971  0.00  0.00    +0.000 C 
ATOM      3  C   UNL     1       3.419   3.882  19.472  0.00  0.00    +0.000 C 
ATOM      4  C   UNL     1       3.448   2.622  20.328  0.00  0.00    +0.000 C 
ATOM      5  C   UNL     1       4.611   4.772  19.963  0.00  0.00    +0.000 C 
ATOM      6  S   UNL     1       1.744   4.383  19.779  0.00  0.00    +0.000 S 
ATOM      7  C   UNL     1       2.204   6.038  19.447  0.00  0.00    +0.000 A 
ATOM      8  C   UNL     1       1.930   6.786  20.615  0.00  0.00    +0.000 A 
ATOM      9  C   UNL     1       1.628   8.106  20.570  0.00  0.00    +0.000 A 
ATOM     10  C   UNL     1       1.438   8.661  19.322  0.00  0.00    +0.000 A 
ATOM     11  C   UNL     1       2.075   7.869  18.102  0.00  0.00    +0.000 A 
ATOM     12  C   UNL     1       2.668   6.475  18.188  0.00  0.00    +0.000 A 
ENDROOT
BRANCH   1  16
ATOM     13  C   UNL     1       7.059   4.893  14.178  0.00  0.00    +0.000 A 
ATOM     14  C   UNL     1       7.206   5.384  15.472  0.00  0.00    +0.000 A 
ATOM     15  C   UNL     1       6.125   5.268  16.494  0.00  0.00    +0.000 A 
ATOM     16  C   UNL     1       4.804   4.662  16.316  0.00  0.00    +0.000 A 
ATOM     17  C   UNL     1       4.706   4.218  14.971  0.00  0.00    +0.000 A 
ATOM     18  C   UNL     1       5.782   4.325  13.962  0.00  0.00    +0.000 A 
BRANCH  13  20
ATOM     19  C   UNL     1       8.562   6.116  12.192  0.00  0.00    +0.000 C 
ATOM     20  C   UNL     1       8.096   4.894  13.021  0.00  0.00    +0.000 C 
ENDBRANCH  13  20
ENDBRANCH   1  16
BRANCH  10  21
ATOM     21  C   UNL     1       0.452   9.866  19.621  0.00  0.00    +0.000 C 
ATOM     22  C   UNL     1      -0.609  10.507  19.524  0.00  0.00    +0.000 C 
BRANCH  22  23
ATOM     23  C   UNL     1      -1.969  11.164  19.300  0.00  0.00    +0.000 A 
ATOM     24  C   UNL     1      -2.844  10.920  18.214  0.00  0.00    +0.000 A 
ATOM     25  C   UNL     1      -4.138  11.536  18.040  0.00  0.00    +0.000 A 
ATOM     26  C   UNL     1      -4.655  12.469  18.988  0.00  0.00    +0.000 A 
ATOM     27  C   UNL     1      -3.806  12.747  20.085  0.00  0.00    +0.000 A 
ATOM     28  C   UNL     1      -2.513  12.107  20.224  0.00  0.00    +0.000 A 
BRANCH  26  29
ATOM     29  C   UNL     1      -6.042  13.061  18.729  0.00  0.00    +0.000 C 
ATOM     30  O   UNL     1      -7.056  12.374  18.701  0.00  0.00    +0.000 OA
BRANCH  29  31
ATOM     31  O   UNL     1      -6.121  14.396  18.530  0.00  0.00    +0.000 OA
ATOM     32  H   UNL     1      -6.953  14.771  18.207  0.00  0.00    +0.000 HD
ENDBRANCH  29  31
ENDBRANCH  26  29
ENDBRANCH  22  23
ENDBRANCH  10  21
TORSDOF 6
ENDMDL
MODEL 4
REMARK VINA RESULT:      -7.6      3.032      3.450
REMARK  Name = 
REMARK  9 active torsions:
REMARK  status: ('A' for Active; 'I' for Inactive)
REMARK    1  A    between atoms: C_1  and  C_2
REMARK    2  A    between atoms: C_2  and  C_3
REMARK    3  A    between atoms: C_6  and  C_7
REMARK    4  A    between atoms: C_9  and  C_10
REMARK    5  A    between atoms: C_9  and  C_11
REMARK    6  A    between atoms: C_16  and  C_17
REMARK    7  A    between atoms: C_18  and  C_19
REMARK    8  A    between atoms: C_22  and  C_23
REMARK    9  A    between atoms: C_23  and  O_25
REMARK                            x       y       z     vdW  Elec       q    Type
REMARK                         _______ _______ _______ _____ _____    ______ ____
ROOT
ATOM      1  C   UNL     1       3.610   5.069  17.157  0.00  0.00    +0.000 C 
ATOM      2  C   UNL     1       3.699   3.900  17.895  0.00  0.00    +0.000 C 
ATOM      3  C   UNL     1       3.737   3.901  19.397  0.00  0.00    +0.000 C 
ATOM      4  C   UNL     1       3.877   2.672  20.286  0.00  0.00    +0.000 C 
ATOM      5  C   UNL     1       4.873   4.888  19.830  0.00  0.00    +0.000 C 
ATOM      6  S   UNL     1       2.037   4.290  19.734  0.00  0.00    +0.000 S 
ATOM      7  C   UNL     1       2.369   5.963  19.345  0.00  0.00    +0.000 A 
ATOM      8  C   UNL     1       2.071   6.724  20.498  0.00  0.00    +0.000 A 
ATOM      9  C   UNL     1       1.673   8.016  20.425  0.00  0.00    +0.000 A 
ATOM     10  C   UNL     1       1.413   8.520  19.167  0.00  0.00    +0.000 A 
ATOM     11  C   UNL     1       2.075   7.739  17.953  0.00  0.00    +0.000 A 
ATOM     12  C   UNL     1       2.769   6.395  18.061  0.00  0.00    +0.000 A 
ENDROOT
BRANCH   1  16
ATOM     13  C   UNL     1       7.141   4.995  13.957  0.00  0.00    +0.000 A 
ATOM     14  C   UNL     1       7.282   5.568  15.218  0.00  0.00    +0.000 A 
ATOM     15  C   UNL     1       6.249   5.413  16.283  0.00  0.00    +0.000 A 
ATOM     16  C   UNL     1       4.983   4.684  16.184  0.00  0.00    +0.000 A 
ATOM     17  C   UNL     1       4.883   4.159  14.869  0.00  0.00    +0.000 A 
ATOM     18  C   UNL     1       5.913   4.305  13.817  0.00  0.00    +0.000 A 
BRANCH  13  20
ATOM     19  C   UNL     1       8.229   6.101  11.657  0.00  0.00    +0.000 C 
ATOM     20  C   UNL     1       8.137   5.023  12.766  0.00  0.00    +0.000 C 
ENDBRANCH  13  20
ENDBRANCH   1  16
BRANCH  10  21
ATOM     21  C   UNL     1       0.350   9.660  19.459  0.00  0.00    +0.000 C 
ATOM     22  C   UNL     1      -0.727  10.263  19.313  0.00  0.00    +0.000 C 
BRANCH  22  23
ATOM     23  C   UNL     1      -2.091  10.879  19.014  0.00  0.00    +0.000 A 
ATOM     24  C   UNL     1      -2.676  11.978  19.689  0.00  0.00    +0.000 A 
ATOM     25  C   UNL     1      -3.959  12.558  19.368  0.00  0.00    +0.000 A 
ATOM     26  C   UNL     1      -4.762  12.053  18.303  0.00  0.00    +0.000 A 
ATOM     27  C   UNL     1      -4.216  10.948  17.608  0.00  0.00    +0.000 A 
ATOM     28  C   UNL     1      -2.924  10.394  17.960  0.00  0.00    +0.000 A 
BRANCH  26  29
ATOM     29  C   UNL     1      -6.101  12.740  18.026  0.00  0.00    +0.000 C 
ATOM     30  O   UNL     1      -6.499  13.694  18.682  0.00  0.00    +0.000 OA
BRANCH  29  31
ATOM     31  O   UNL     1      -6.851  12.255  17.009  0.00  0.00    +0.000 OA
ATOM     32  H   UNL     1      -7.793  12.099  17.159  0.00  0.00    +0.000 HD
ENDBRANCH  29  31
ENDBRANCH  26  29
ENDBRANCH  22  23
ENDBRANCH  10  21
TORSDOF 6
ENDMDL
MODEL 5
REMARK VINA RESULT:      -7.5      1.609      2.056
REMARK  Name = 
REMARK  9 active torsions:
REMARK  status: ('A' for Active; 'I' for Inactive)
REMARK    1  A    between atoms: C_1  and  C_2
REMARK    2  A    between atoms: C_2  and  C_3
REMARK    3  A    between atoms: C_6  and  C_7
REMARK    4  A    between atoms: C_9  and  C_10
REMARK    5  A    between atoms: C_9  and  C_11
REMARK    6  A    between atoms: C_16  and  C_17
REMARK    7  A    between atoms: C_18  and  C_19
REMARK    8  A    between atoms: C_22  and  C_23
REMARK    9  A    between atoms: C_23  and  O_25
REMARK                            x       y       z     vdW  Elec       q    Type
REMARK                         _______ _______ _______ _____ _____    ______ ____
ROOT
ATOM      1  C   UNL     1       3.695   4.507  17.078  0.00  0.00    +0.000 C 
ATOM      2  C   UNL     1       3.556   3.141  17.268  0.00  0.00    +0.000 C 
ATOM      3  C   UNL     1       3.454   2.529  18.636  0.00  0.00    +0.000 C 
ATOM      4  C   UNL     1       3.344   1.040  18.939  0.00  0.00    +0.000 C 
ATOM      5  C   UNL     1       4.667   3.058  19.472  0.00  0.00    +0.000 C 
ATOM      6  S   UNL     1       1.798   3.016  19.054  0.00  0.00    +0.000 S 
ATOM      7  C   UNL     1       2.388   4.626  19.403  0.00  0.00    +0.000 A 
ATOM      8  C   UNL     1       2.089   4.892  20.758  0.00  0.00    +0.000 A 
ATOM      9  C   UNL     1       1.877   6.150  21.215  0.00  0.00    +0.000 A 
ATOM     10  C   UNL     1       1.806   7.154  20.273  0.00  0.00    +0.000 A 
ATOM     11  C   UNL     1       2.466   6.835  18.864  0.00  0.00    +0.000 A 
ATOM     12  C   UNL     1       2.960   5.470  18.426  0.00  0.00    +0.000 A 
ENDROOT
BRANCH   1  16
ATOM     13  C   UNL     1       7.285   5.099  14.001  0.00  0.00    +0.000 A 
ATOM     14  C   UNL     1       7.400   5.401  15.355  0.00  0.00    +0.000 A 
ATOM     15  C   UNL     1       6.347   5.028  16.345  0.00  0.00    +0.000 A 
ATOM     16  C   UNL     1       5.087   4.333  16.074  0.00  0.00    +0.000 A 
ATOM     17  C   UNL     1       5.016   4.090  14.677  0.00  0.00    +0.000 A 
ATOM     18  C   UNL     1       6.064   4.451  13.698  0.00  0.00    +0.000 A 
BRANCH  13  20
ATOM     19  C   UNL     1       8.057   6.205  11.576  0.00  0.00    +0.000 C 
ATOM     20  C   UNL     1       8.303   5.374  12.860  0.00  0.00    +0.000 C 
ENDBRANCH  13  20
ENDBRANCH   1  16
BRANCH  10  21
ATOM     21  C   UNL     1       0.884   8.233  20.980  0.00  0.00    +0.000 C 
ATOM     22  C   UNL     1       0.278   9.314  21.070  0.00  0.00    +0.000 C 
BRANCH  22  23
ATOM     23  C   UNL     1      -0.406  10.678  21.018  0.00  0.00    +0.000 A 
ATOM     24  C   UNL     1      -0.514  11.598  22.089  0.00  0.00    +0.000 A 
ATOM     25  C   UNL     1      -1.145  12.895  22.005  0.00  0.00    +0.000 A 
ATOM     26  C   UNL     1      -1.724  13.367  20.790  0.00  0.00    +0.000 A 
ATOM     27  C   UNL     1      -1.644  12.472  19.697  0.00  0.00    +0.000 A 
ATOM     28  C   UNL     1      -1.002  11.179  19.821  0.00  0.00    +0.000 A 
BRANCH  26  29
ATOM     29  C   UNL     1      -2.357  14.759  20.790  0.00  0.00    +0.000 C 
ATOM     30  O   UNL     1      -3.216  15.091  21.598  0.00  0.00    +0.000 OA
BRANCH  29  31
ATOM     31  O   UNL     1      -1.932  15.637  19.853  0.00  0.00    +0.000 OA
ATOM     32  H   UNL     1      -1.462  16.433  20.139  0.00  0.00    +0.000 HD
ENDBRANCH  29  31
ENDBRANCH  26  29
ENDBRANCH  22  23
ENDBRANCH  10  21
TORSDOF 6
ENDMDL
MODEL 6
REMARK VINA RESULT:      -7.5      0.661      1.106
REMARK  Name = 
REMARK  9 active torsions:
REMARK  status: ('A' for Active; 'I' for Inactive)
REMARK    1  A    between atoms: C_1  and  C_2
REMARK    2  A    between atoms: C_2  and  C_3
REMARK    3  A    between atoms: C_6  and  C_7
REMARK    4  A    between atoms: C_9  and  C_10
REMARK    5  A    between atoms: C_9  and  C_11
REMARK    6  A    between atoms: C_16  and  C_17
REMARK    7  A    between atoms: C_18  and  C_19
REMARK    8  A    between atoms: C_22  and  C_23
REMARK    9  A    between atoms: C_23  and  O_25
REMARK                            x       y       z     vdW  Elec       q    Type
REMARK                         _______ _______ _______ _____ _____    ______ ____
ROOT
ATOM      1  C   UNL     1       3.411   5.117  17.336  0.00  0.00    +0.000 C 
ATOM      2  C   UNL     1       3.374   3.889  17.976  0.00  0.00    +0.000 C 
ATOM      3  C   UNL     1       3.349   3.765  19.473  0.00  0.00    +0.000 C 
ATOM      4  C   UNL     1       3.351   2.460  20.260  0.00  0.00    +0.000 C 
ATOM      5  C   UNL     1       4.541   4.614  20.028  0.00  0.00    +0.000 C 
ATOM      6  S   UNL     1       1.673   4.267  19.781  0.00  0.00    +0.000 S 
ATOM      7  C   UNL     1       2.156   5.932  19.546  0.00  0.00    +0.000 A 
ATOM      8  C   UNL     1       1.871   6.619  20.748  0.00  0.00    +0.000 A 
ATOM      9  C   UNL     1       1.582   7.942  20.770  0.00  0.00    +0.000 A 
ATOM     10  C   UNL     1       1.417   8.567  19.551  0.00  0.00    +0.000 A 
ATOM     11  C   UNL     1       2.064   7.833  18.300  0.00  0.00    +0.000 A 
ATOM     12  C   UNL     1       2.643   6.431  18.319  0.00  0.00    +0.000 A 
ENDROOT
BRANCH   1  16
ATOM     13  C   UNL     1       6.968   4.940  14.169  0.00  0.00    +0.000 A 
ATOM     14  C   UNL     1       7.104   5.539  15.418  0.00  0.00    +0.000 A 
ATOM     15  C   UNL     1       6.060   5.417  16.477  0.00  0.00    +0.000 A 
ATOM     16  C   UNL     1       4.788   4.698  16.384  0.00  0.00    +0.000 A 
ATOM     17  C   UNL     1       4.695   4.146  15.079  0.00  0.00    +0.000 A 
ATOM     18  C   UNL     1       5.735   4.259  14.034  0.00  0.00    +0.000 A 
BRANCH  13  20
ATOM     19  C   UNL     1       8.937   6.076  12.579  0.00  0.00    +0.000 C 
ATOM     20  C   UNL     1       7.974   4.933  12.986  0.00  0.00    +0.000 C 
ENDBRANCH  13  20
ENDBRANCH   1  16
BRANCH  10  21
ATOM     21  C   UNL     1       0.438   9.764  19.900  0.00  0.00    +0.000 C 
ATOM     22  C   UNL     1       0.046  10.748  20.550  0.00  0.00    +0.000 C 
BRANCH  22  23
ATOM     23  C   UNL     1      -0.291  11.936  21.448  0.00  0.00    +0.000 A 
ATOM     24  C   UNL     1      -1.222  11.937  22.515  0.00  0.00    +0.000 A 
ATOM     25  C   UNL     1      -1.502  13.069  23.366  0.00  0.00    +0.000 A 
ATOM     26  C   UNL     1      -0.834  14.317  23.195  0.00  0.00    +0.000 A 
ATOM     27  C   UNL     1       0.100  14.360  22.132  0.00  0.00    +0.000 A 
ATOM     28  C   UNL     1       0.354  13.201  21.300  0.00  0.00    +0.000 A 
BRANCH  26  29
ATOM     29  C   UNL     1      -1.184  15.458  24.153  0.00  0.00    +0.000 C 
ATOM     30  O   UNL     1      -1.937  16.371  23.841  0.00  0.00    +0.000 OA
BRANCH  29  31
ATOM     31  O   UNL     1      -0.628  15.428  25.386  0.00  0.00    +0.000 OA
ATOM     32  H   UNL     1      -1.158  15.713  26.143  0.00  0.00    +0.000 HD
ENDBRANCH  29  31
ENDBRANCH  26  29
ENDBRANCH  22  23
ENDBRANCH  10  21
TORSDOF 6
ENDMDL
MODEL 7
REMARK VINA RESULT:      -7.4      0.946      1.059
REMARK  Name = 
REMARK  9 active torsions:
REMARK  status: ('A' for Active; 'I' for Inactive)
REMARK    1  A    between atoms: C_1  and  C_2
REMARK    2  A    between atoms: C_2  and  C_3
REMARK    3  A    between atoms: C_6  and  C_7
REMARK    4  A    between atoms: C_9  and  C_10
REMARK    5  A    between atoms: C_9  and  C_11
REMARK    6  A    between atoms: C_16  and  C_17
REMARK    7  A    between atoms: C_18  and  C_19
REMARK    8  A    between atoms: C_22  and  C_23
REMARK    9  A    between atoms: C_23  and  O_25
REMARK                            x       y       z     vdW  Elec       q    Type
REMARK                         _______ _______ _______ _____ _____    ______ ____
ROOT
ATOM      1  C   UNL     1       3.382   5.241  17.280  0.00  0.00    +0.000 C 
ATOM      2  C   UNL     1       3.353   4.066  18.013  0.00  0.00    +0.000 C 
ATOM      3  C   UNL     1       3.342   4.058  19.515  0.00  0.00    +0.000 C 
ATOM      4  C   UNL     1       3.354   2.818  20.400  0.00  0.00    +0.000 C 
ATOM      5  C   UNL     1       4.538   4.949  19.991  0.00  0.00    +0.000 C 
ATOM      6  S   UNL     1       1.668   4.580  19.800  0.00  0.00    +0.000 S 
ATOM      7  C   UNL     1       2.145   6.223  19.432  0.00  0.00    +0.000 A 
ATOM      8  C   UNL     1       1.870   7.000  20.580  0.00  0.00    +0.000 A 
ATOM      9  C   UNL     1       1.579   8.321  20.502  0.00  0.00    +0.000 A 
ATOM     10  C   UNL     1       1.402   8.849  19.240  0.00  0.00    +0.000 A 
ATOM     11  C   UNL     1       2.039   8.022  18.044  0.00  0.00    +0.000 A 
ATOM     12  C   UNL     1       2.620   6.626  18.165  0.00  0.00    +0.000 A 
ENDROOT
BRANCH   1  16
ATOM     13  C   UNL     1       6.914   4.830  14.107  0.00  0.00    +0.000 A 
ATOM     14  C   UNL     1       7.061   5.516  15.309  0.00  0.00    +0.000 A 
ATOM     15  C   UNL     1       6.025   5.473  16.382  0.00  0.00    +0.000 A 
ATOM     16  C   UNL     1       4.751   4.752  16.350  0.00  0.00    +0.000 A 
ATOM     17  C   UNL     1       4.647   4.108  15.089  0.00  0.00    +0.000 A 
ATOM     18  C   UNL     1       5.679   4.143  14.030  0.00  0.00    +0.000 A 
BRANCH  13  20
ATOM     19  C   UNL     1       7.557   4.577  11.420  0.00  0.00    +0.000 C 
ATOM     20  C   UNL     1       7.911   4.735  12.920  0.00  0.00    +0.000 C 
ENDBRANCH  13  20
ENDBRANCH   1  16
BRANCH  10  21
ATOM     21  C   UNL     1       0.423  10.068  19.505  0.00  0.00    +0.000 C 
ATOM     22  C   UNL     1      -0.320  10.790  20.192  0.00  0.00    +0.000 C 
BRANCH  22  23
ATOM     23  C   UNL     1      -1.192  11.572  21.171  0.00  0.00    +0.000 A 
ATOM     24  C   UNL     1      -2.091  12.614  20.839  0.00  0.00    +0.000 A 
ATOM     25  C   UNL     1      -2.924  13.320  21.784  0.00  0.00    +0.000 A 
ATOM     26  C   UNL     1      -2.909  13.005  23.175  0.00  0.00    +0.000 A 
ATOM     27  C   UNL     1      -2.016  11.974  23.549  0.00  0.00    +0.000 A 
ATOM     28  C   UNL     1      -1.196  11.288  22.571  0.00  0.00    +0.000 A 
BRANCH  26  29
ATOM     29  C   UNL     1      -3.836  13.795  24.100  0.00  0.00    +0.000 C 
ATOM     30  O   UNL     1      -3.421  14.433  25.060  0.00  0.00    +0.000 OA
BRANCH  29  31
ATOM     31  O   UNL     1      -5.160  13.773  23.823  0.00  0.00    +0.000 OA
ATOM     32  H   UNL     1      -5.442  13.778  22.898  0.00  0.00    +0.000 HD
ENDBRANCH  29  31
ENDBRANCH  26  29
ENDBRANCH  22  23
ENDBRANCH  10  21
TORSDOF 6
ENDMDL
MODEL 8
REMARK VINA RESULT:      -7.4      1.249      1.709
REMARK  Name = 
REMARK  9 active torsions:
REMARK  status: ('A' for Active; 'I' for Inactive)
REMARK    1  A    between atoms: C_1  and  C_2
REMARK    2  A    between atoms: C_2  and  C_3
REMARK    3  A    between atoms: C_6  and  C_7
REMARK    4  A    between atoms: C_9  and  C_10
REMARK    5  A    between atoms: C_9  and  C_11
REMARK    6  A    between atoms: C_16  and  C_17
REMARK    7  A    between atoms: C_18  and  C_19
REMARK    8  A    between atoms: C_22  and  C_23
REMARK    9  A    between atoms: C_23  and  O_25
REMARK                            x       y       z     vdW  Elec       q    Type
REMARK                         _______ _______ _______ _____ _____    ______ ____
ROOT
ATOM      1  C   UNL     1       3.660   4.528  17.125  0.00  0.00    +0.000 C 
ATOM      2  C   UNL     1       3.518   3.161  17.300  0.00  0.00    +0.000 C 
ATOM      3  C   UNL     1       3.390   2.536  18.660  0.00  0.00    +0.000 C 
ATOM      4  C   UNL     1       3.274   1.044  18.948  0.00  0.00    +0.000 C 
ATOM      5  C   UNL     1       4.587   3.059  19.524  0.00  0.00    +0.000 C 
ATOM      6  S   UNL     1       1.726   3.019  19.051  0.00  0.00    +0.000 S 
ATOM      7  C   UNL     1       2.308   4.627  19.425  0.00  0.00    +0.000 A 
ATOM      8  C   UNL     1       1.983   4.881  20.776  0.00  0.00    +0.000 A 
ATOM      9  C   UNL     1       1.762   6.134  21.240  0.00  0.00    +0.000 A 
ATOM     10  C   UNL     1       1.708   7.146  20.305  0.00  0.00    +0.000 A 
ATOM     11  C   UNL     1       2.396   6.840  18.907  0.00  0.00    +0.000 A 
ATOM     12  C   UNL     1       2.898   5.479  18.466  0.00  0.00    +0.000 A 
ENDROOT
BRANCH   1  16
ATOM     13  C   UNL     1       7.122   4.982  13.882  0.00  0.00    +0.000 A 
ATOM     14  C   UNL     1       7.169   5.612  15.123  0.00  0.00    +0.000 A 
ATOM     15  C   UNL     1       6.188   5.310  16.205  0.00  0.00    +0.000 A 
ATOM     16  C   UNL     1       5.072   4.363  16.146  0.00  0.00    +0.000 A 
ATOM     17  C   UNL     1       5.058   3.786  14.849  0.00  0.00    +0.000 A 
ATOM     18  C   UNL     1       6.037   4.079  13.780  0.00  0.00    +0.000 A 
BRANCH  13  20
ATOM     19  C   UNL     1       8.113   6.318  11.662  0.00  0.00    +0.000 C 
ATOM     20  C   UNL     1       8.088   5.149  12.677  0.00  0.00    +0.000 C 
ENDBRANCH  13  20
ENDBRANCH   1  16
BRANCH  10  21
ATOM     21  C   UNL     1       0.772   8.219  21.004  0.00  0.00    +0.000 C 
ATOM     22  C   UNL     1       0.412   9.364  21.323  0.00  0.00    +0.000 C 
BRANCH  22  23
ATOM     23  C   UNL     1       0.107  10.830  21.622  0.00  0.00    +0.000 A 
ATOM     24  C   UNL     1      -0.829  11.311  22.569  0.00  0.00    +0.000 A 
ATOM     25  C   UNL     1      -1.078  12.705  22.851  0.00  0.00    +0.000 A 
ATOM     26  C   UNL     1      -0.370  13.743  22.176  0.00  0.00    +0.000 A 
ATOM     27  C   UNL     1       0.570  13.303  21.213  0.00  0.00    +0.000 A 
ATOM     28  C   UNL     1       0.792  11.894  20.959  0.00  0.00    +0.000 A 
BRANCH  26  29
ATOM     29  C   UNL     1      -0.690  15.192  22.549  0.00  0.00    +0.000 C 
ATOM     30  O   UNL     1       0.177  16.050  22.656  0.00  0.00    +0.000 OA
BRANCH  29  31
ATOM     31  O   UNL     1      -1.987  15.508  22.761  0.00  0.00    +0.000 OA
ATOM     32  H   UNL     1      -2.490  15.003  23.416  0.00  0.00    +0.000 HD
ENDBRANCH  29  31
ENDBRANCH  26  29
ENDBRANCH  22  23
ENDBRANCH  10  21
TORSDOF 6
ENDMDL
MODEL 9
REMARK VINA RESULT:      -7.4      1.744      1.972
REMARK  Name = 
REMARK  9 active torsions:
REMARK  status: ('A' for Active; 'I' for Inactive)
REMARK    1  A    between atoms: C_1  and  C_2
REMARK    2  A    between atoms: C_2  and  C_3
REMARK    3  A    between atoms: C_6  and  C_7
REMARK    4  A    between atoms: C_9  and  C_10
REMARK    5  A    between atoms: C_9  and  C_11
REMARK    6  A    between atoms: C_16  and  C_17
REMARK    7  A    between atoms: C_18  and  C_19
REMARK    8  A    between atoms: C_22  and  C_23
REMARK    9  A    between atoms: C_23  and  O_25
REMARK                            x       y       z     vdW  Elec       q    Type
REMARK                         _______ _______ _______ _____ _____    ______ ____
ROOT
ATOM      1  C   UNL     1       3.463   4.915  17.200  0.00  0.00    +0.000 C 
ATOM      2  C   UNL     1       3.128   3.577  17.330  0.00  0.00    +0.000 C 
ATOM      3  C   UNL     1       2.874   2.940  18.666  0.00  0.00    +0.000 C 
ATOM      4  C   UNL     1       2.544   1.472  18.905  0.00  0.00    +0.000 C 
ATOM      5  C   UNL     1       4.105   3.267  19.576  0.00  0.00    +0.000 C 
ATOM      6  S   UNL     1       1.282   3.640  19.029  0.00  0.00    +0.000 S 
ATOM      7  C   UNL     1       2.070   5.140  19.467  0.00  0.00    +0.000 A 
ATOM      8  C   UNL     1       1.744   5.400  20.818  0.00  0.00    +0.000 A 
ATOM      9  C   UNL     1       1.685   6.659  21.314  0.00  0.00    +0.000 A 
ATOM     10  C   UNL     1       1.800   7.694  20.410  0.00  0.00    +0.000 A 
ATOM     11  C   UNL     1       2.479   7.333  19.021  0.00  0.00    +0.000 A 
ATOM     12  C   UNL     1       2.801   5.927  18.551  0.00  0.00    +0.000 A 
ENDROOT
BRANCH   1  16
ATOM     13  C   UNL     1       7.014   4.936  14.023  0.00  0.00    +0.000 A 
ATOM     14  C   UNL     1       7.105   5.578  15.255  0.00  0.00    +0.000 A 
ATOM     15  C   UNL     1       6.077   5.403  16.322  0.00  0.00    +0.000 A 
ATOM     16  C   UNL     1       4.866   4.582  16.254  0.00  0.00    +0.000 A 
ATOM     17  C   UNL     1       4.814   3.988  14.965  0.00  0.00    +0.000 A 
ATOM     18  C   UNL     1       5.840   4.155  13.912  0.00  0.00    +0.000 A 
BRANCH  13  20
ATOM     19  C   UNL     1       8.868   6.187  12.382  0.00  0.00    +0.000 C 
ATOM     20  C   UNL     1       8.015   4.977  12.836  0.00  0.00    +0.000 C 
ENDBRANCH  13  20
ENDBRANCH   1  16
BRANCH  10  21
ATOM     21  C   UNL     1       1.001   8.867  21.117  0.00  0.00    +0.000 C 
ATOM     22  C   UNL     1       0.195   9.811  21.169  0.00  0.00    +0.000 C 
BRANCH  22  23
ATOM     23  C   UNL     1      -0.828  10.939  21.063  0.00  0.00    +0.000 A 
ATOM     24  C   UNL     1      -1.312  11.516  19.864  0.00  0.00    +0.000 A 
ATOM     25  C   UNL     1      -2.301  12.566  19.791  0.00  0.00    +0.000 A 
ATOM     26  C   UNL     1      -2.891  13.119  20.966  0.00  0.00    +0.000 A 
ATOM     27  C   UNL     1      -2.427  12.575  22.187  0.00  0.00    +0.000 A 
ATOM     28  C   UNL     1      -1.434  11.521  22.218  0.00  0.00    +0.000 A 
BRANCH  26  29
ATOM     29  C   UNL     1      -3.941  14.218  20.793  0.00  0.00    +0.000 C 
ATOM     30  O   UNL     1      -3.938  15.243  21.463  0.00  0.00    +0.000 OA
BRANCH  29  31
ATOM     31  O   UNL     1      -4.896  14.025  19.854  0.00  0.00    +0.000 OA
ATOM     32  H   UNL     1      -5.735  14.499  19.938  0.00  0.00    +0.000 HD
ENDBRANCH  29  31
ENDBRANCH  26  29
ENDBRANCH  22  23
ENDBRANCH  10  21
TORSDOF 6
ENDMDL
