MODEL 1
REMARK VINA RESULT:      -8.8      0.000      0.000
REMARK  Name = 
REMARK  5 active torsions:
REMARK  status: ('A' for Active; 'I' for Inactive)
REMARK    1  A    between atoms: C_2  and  C_3
REMARK    2  A    between atoms: C_3  and  N_4
REMARK    3  A    between atoms: N_11  and  C_12
REMARK    4  A    between atoms: C_12  and  C_13
REMARK    5  A    between atoms: C_13  and  C_14
REMARK                            x       y       z     vdW  Elec       q    Type
REMARK                         _______ _______ _______ _____ _____    ______ ____
ROOT
ATOM      1  C   UNL     1       3.523   5.029  20.076  0.00  0.00    +0.000 C 
ENDROOT
BRANCH   1   2
ATOM      2  C   UNL     1       2.066   5.299  19.572  0.00  0.00    +0.000 C 
ATOM      3  C   UNL     1       1.924   4.783  18.103  0.00  0.00    +0.000 C 
ATOM      4  C   UNL     1       1.973   3.259  17.963  0.00  0.00    +0.000 C 
ATOM      5  C   UNL     1       0.939   2.575  18.844  0.00  0.00    +0.000 C 
ATOM      6  C   UNL     1       1.079   3.002  20.298  0.00  0.00    +0.000 C 
ATOM      7  C   UNL     1       1.026   4.521  20.437  0.00  0.00    +0.000 C 
BRANCH   2   8
ATOM      8  C   UNL     1       1.802   6.830  19.584  0.00  0.00    +0.000 A 
ATOM      9  C   UNL     1       1.345   7.468  20.757  0.00  0.00    +0.000 A 
ATOM     10  C   UNL     1       1.100   8.846  20.795  0.00  0.00    +0.000 A 
ATOM     11  C   UNL     1       1.308   9.624  19.661  0.00  0.00    +0.000 A 
ATOM     12  C   UNL     1       1.754   9.013  18.499  0.00  0.00    +0.000 A 
ATOM     13  F   UNL     1       1.960   9.752  17.401  0.00  0.00    +0.000 F 
ATOM     14  C   UNL     1       1.994   7.641  18.451  0.00  0.00    +0.000 A 
ENDBRANCH   2   8
ENDBRANCH   1   2
BRANCH   1  17
ATOM     15  O   UNL     1       5.450   3.134  19.252  0.00  0.00    +0.000 OA
ATOM     16  C   UNL     1       5.445   4.246  18.729  0.00  0.00    +0.000 C 
ATOM     17  N   UNL     1       4.559   5.251  19.076  0.00  0.00    +0.000 N 
ATOM     18  H   UNL     1       4.398   5.980  18.389  0.00  0.00    +0.000 HD
BRANCH  16  19
ATOM     19  C   UNL     1       6.449   4.646  17.639  0.00  0.00    +0.000 C 
BRANCH  19  20
ATOM     20  N   UNL     1       7.150   5.881  17.937  0.00  0.00    +0.000 N 
ATOM     21  C   UNL     1       6.961   7.109  17.195  0.00  0.00    +0.000 C 
ATOM     22  C   UNL     1       7.915   8.022  17.954  0.00  0.00    +0.000 C 
ATOM     23  O   UNL     1       8.153   9.190  17.689  0.00  0.00    +0.000 OA
ATOM     24  N   UNL     1       8.467   7.321  18.982  0.00  0.00    +0.000 N 
ATOM     25  C   UNL     1       8.014   6.045  18.997  0.00  0.00    +0.000 C 
ATOM     26  O   UNL     1       8.332   5.186  19.805  0.00  0.00    +0.000 OA
ATOM     27  H   UNL     1       9.131   7.693  19.638  0.00  0.00    +0.000 HD
ENDBRANCH  19  20
ENDBRANCH  16  19
ENDBRANCH   1  17
TORSDOF 5
ENDMDL
MODEL 2
REMARK VINA RESULT:      -8.7      1.868      2.434
REMARK  Name = 
REMARK  5 active torsions:
REMARK  status: ('A' for Active; 'I' for Inactive)
REMARK    1  A    between atoms: C_2  and  C_3
REMARK    2  A    between atoms: C_3  and  N_4
REMARK    3  A    between atoms: N_11  and  C_12
REMARK    4  A    between atoms: C_12  and  C_13
REMARK    5  A    between atoms: C_13  and  C_14
REMARK                            x       y       z     vdW  Elec       q    Type
REMARK                         _______ _______ _______ _____ _____    ______ ____
ROOT
ATOM      1  C   UNL     1       3.452   4.955  20.225  0.00  0.00    +0.000 C 
ENDROOT
BRANCH   1   2
ATOM      2  C   UNL     1       2.048   5.244  19.597  0.00  0.00    +0.000 C 
ATOM      3  C   UNL     1       2.042   4.767  18.108  0.00  0.00    +0.000 C 
ATOM      4  C   UNL     1       2.101   3.247  17.934  0.00  0.00    +0.000 C 
ATOM      5  C   UNL     1       0.988   2.544  18.698  0.00  0.00    +0.000 C 
ATOM      6  C   UNL     1       0.994   2.934  20.170  0.00  0.00    +0.000 C 
ATOM      7  C   UNL     1       0.931   4.449  20.342  0.00  0.00    +0.000 C 
BRANCH   2   8
ATOM      8  C   UNL     1       1.787   6.775  19.624  0.00  0.00    +0.000 A 
ATOM      9  C   UNL     1       1.366   7.408  20.813  0.00  0.00    +0.000 A 
ATOM     10  C   UNL     1       1.124   8.787  20.864  0.00  0.00    +0.000 A 
ATOM     11  C   UNL     1       1.300   9.569  19.729  0.00  0.00    +0.000 A 
ATOM     12  C   UNL     1       1.709   8.964  18.552  0.00  0.00    +0.000 A 
ATOM     13  F   UNL     1       1.884   9.708  17.451  0.00  0.00    +0.000 F 
ATOM     14  C   UNL     1       1.946   7.591  18.490  0.00  0.00    +0.000 A 
ENDBRANCH   2   8
ENDBRANCH   1   2
BRANCH   1  17
ATOM     15  O   UNL     1       5.653   3.460  19.279  0.00  0.00    +0.000 OA
ATOM     16  C   UNL     1       5.598   4.662  19.030  0.00  0.00    +0.000 C 
ATOM     17  N   UNL     1       4.575   5.487  19.466  0.00  0.00    +0.000 N 
ATOM     18  H   UNL     1       4.426   6.347  18.949  0.00  0.00    +0.000 HD
BRANCH  16  19
ATOM     19  C   UNL     1       6.683   5.385  18.221  0.00  0.00    +0.000 C 
BRANCH  19  20
ATOM     20  N   UNL     1       6.451   5.337  16.790  0.00  0.00    +0.000 N 
ATOM     21  C   UNL     1       7.125   4.417  15.899  0.00  0.00    +0.000 C 
ATOM     22  C   UNL     1       6.482   4.815  14.577  0.00  0.00    +0.000 C 
ATOM     23  O   UNL     1       6.745   4.344  13.481  0.00  0.00    +0.000 OA
ATOM     24  N   UNL     1       5.561   5.788  14.814  0.00  0.00    +0.000 N 
ATOM     25  C   UNL     1       5.518   6.106  16.130  0.00  0.00    +0.000 C 
ATOM     26  O   UNL     1       4.787   6.942  16.637  0.00  0.00    +0.000 OA
ATOM     27  H   UNL     1       4.994   6.225  14.108  0.00  0.00    +0.000 HD
ENDBRANCH  19  20
ENDBRANCH  16  19
ENDBRANCH   1  17
TORSDOF 5
ENDMDL
MODEL 3
REMARK VINA RESULT:      -8.6      1.269      1.814
REMARK  Name = 
REMARK  5 active torsions:
REMARK  status: ('A' for Active; 'I' for Inactive)
REMARK    1  A    between atoms: C_2  and  C_3
REMARK    2  A    between atoms: C_3  and  N_4
REMARK    3  A    between atoms: N_11  and  C_12
REMARK    4  A    between atoms: C_12  and  C_13
REMARK    5  A    between atoms: C_13  and  C_14
REMARK                            x       y       z     vdW  Elec       q    Type
REMARK                         _______ _______ _______ _____ _____    ______ ____
ROOT
ATOM      1  C   UNL     1       3.552   5.205  20.052  0.00  0.00    +0.000 C 
ENDROOT
BRANCH   1   2
ATOM      2  C   UNL     1       2.122   5.452  19.465  0.00  0.00    +0.000 C 
ATOM      3  C   UNL     1       2.013   4.762  18.066  0.00  0.00    +0.000 C 
ATOM      4  C   UNL     1       2.017   3.231  18.117  0.00  0.00    +0.000 C 
ATOM      5  C   UNL     1       0.932   2.691  19.037  0.00  0.00    +0.000 C 
ATOM      6  C   UNL     1       1.037   3.292  20.432  0.00  0.00    +0.000 C 
ATOM      7  C   UNL     1       1.029   4.817  20.380  0.00  0.00    +0.000 C 
BRANCH   2   8
ATOM      8  C   UNL     1       1.908   6.979  19.279  0.00  0.00    +0.000 A 
ATOM      9  C   UNL     1       2.165   7.590  18.034  0.00  0.00    +0.000 A 
ATOM     10  C   UNL     1       1.980   8.965  17.840  0.00  0.00    +0.000 A 
ATOM     11  C   UNL     1       1.532   9.764  18.885  0.00  0.00    +0.000 A 
ATOM     12  C   UNL     1       1.278   9.181  20.116  0.00  0.00    +0.000 A 
ATOM     13  F   UNL     1       0.844   9.941  21.131  0.00  0.00    +0.000 F 
ATOM     14  C   UNL     1       1.466   7.815  20.320  0.00  0.00    +0.000 A 
ENDBRANCH   2   8
ENDBRANCH   1   2
BRANCH   1  17
ATOM     15  O   UNL     1       5.451   3.190  19.490  0.00  0.00    +0.000 OA
ATOM     16  C   UNL     1       5.499   4.247  18.863  0.00  0.00    +0.000 C 
ATOM     17  N   UNL     1       4.630   5.303  19.077  0.00  0.00    +0.000 N 
ATOM     18  H   UNL     1       4.516   5.966  18.318  0.00  0.00    +0.000 HD
BRANCH  16  19
ATOM     19  C   UNL     1       6.554   4.514  17.781  0.00  0.00    +0.000 C 
BRANCH  19  20
ATOM     20  N   UNL     1       7.017   5.888  17.765  0.00  0.00    +0.000 N 
ATOM     21  C   UNL     1       7.958   6.428  18.724  0.00  0.00    +0.000 C 
ATOM     22  C   UNL     1       8.066   7.856  18.206  0.00  0.00    +0.000 C 
ATOM     23  O   UNL     1       8.729   8.752  18.706  0.00  0.00    +0.000 OA
ATOM     24  N   UNL     1       7.298   7.977  17.089  0.00  0.00    +0.000 N 
ATOM     25  C   UNL     1       6.673   6.810  16.802  0.00  0.00    +0.000 C 
ATOM     26  O   UNL     1       5.922   6.618  15.859  0.00  0.00    +0.000 OA
ATOM     27  H   UNL     1       7.196   8.820  16.552  0.00  0.00    +0.000 HD
ENDBRANCH  19  20
ENDBRANCH  16  19
ENDBRANCH   1  17
TORSDOF 5
ENDMDL
MODEL 4
REMARK VINA RESULT:      -8.5      0.957      1.310
REMARK  Name = 
REMARK  5 active torsions:
REMARK  status: ('A' for Active; 'I' for Inactive)
REMARK    1  A    between atoms: C_2  and  C_3
REMARK    2  A    between atoms: C_3  and  N_4
REMARK    3  A    between atoms: N_11  and  C_12
REMARK    4  A    between atoms: C_12  and  C_13
REMARK    5  A    between atoms: C_13  and  C_14
REMARK                            x       y       z     vdW  Elec       q    Type
REMARK                         _______ _______ _______ _____ _____    ______ ____
ROOT
ATOM      1  C   UNL     1       3.532   5.081  20.090  0.00  0.00    +0.000 C 
ENDROOT
BRANCH   1   2
ATOM      2  C   UNL     1       2.075   5.343  19.582  0.00  0.00    +0.000 C 
ATOM      3  C   UNL     1       1.940   4.819  18.114  0.00  0.00    +0.000 C 
ATOM      4  C   UNL     1       1.995   3.295  17.982  0.00  0.00    +0.000 C 
ATOM      5  C   UNL     1       0.961   2.610  18.864  0.00  0.00    +0.000 C 
ATOM      6  C   UNL     1       1.095   3.046  20.316  0.00  0.00    +0.000 C 
ATOM      7  C   UNL     1       1.036   4.565  20.448  0.00  0.00    +0.000 C 
BRANCH   2   8
ATOM      8  C   UNL     1       1.806   6.872  19.586  0.00  0.00    +0.000 A 
ATOM      9  C   UNL     1       1.345   7.515  20.754  0.00  0.00    +0.000 A 
ATOM     10  C   UNL     1       1.094   8.893  20.785  0.00  0.00    +0.000 A 
ATOM     11  C   UNL     1       1.301   9.665  19.647  0.00  0.00    +0.000 A 
ATOM     12  C   UNL     1       1.749   9.050  18.489  0.00  0.00    +0.000 A 
ATOM     13  F   UNL     1       1.954   9.784  17.388  0.00  0.00    +0.000 F 
ATOM     14  C   UNL     1       1.995   7.678  18.449  0.00  0.00    +0.000 A 
ENDBRANCH   2   8
ENDBRANCH   1   2
BRANCH   1  17
ATOM     15  O   UNL     1       5.462   3.128  19.427  0.00  0.00    +0.000 OA
ATOM     16  C   UNL     1       5.451   4.190  18.808  0.00  0.00    +0.000 C 
ATOM     17  N   UNL     1       4.562   5.219  19.070  0.00  0.00    +0.000 N 
ATOM     18  H   UNL     1       4.395   5.883  18.323  0.00  0.00    +0.000 HD
BRANCH  16  19
ATOM     19  C   UNL     1       6.449   4.496  17.683  0.00  0.00    +0.000 C 
BRANCH  19  20
ATOM     20  N   UNL     1       6.927   5.865  17.705  0.00  0.00    +0.000 N 
ATOM     21  C   UNL     1       7.899   6.359  18.657  0.00  0.00    +0.000 C 
ATOM     22  C   UNL     1       8.012   7.804  18.189  0.00  0.00    +0.000 C 
ATOM     23  O   UNL     1       8.699   8.673  18.704  0.00  0.00    +0.000 OA
ATOM     24  N   UNL     1       7.216   7.975  17.099  0.00  0.00    +0.000 N 
ATOM     25  C   UNL     1       6.569   6.826  16.785  0.00  0.00    +0.000 C 
ATOM     26  O   UNL     1       5.792   6.677  15.856  0.00  0.00    +0.000 OA
ATOM     27  H   UNL     1       7.110   8.838  16.595  0.00  0.00    +0.000 HD
ENDBRANCH  19  20
ENDBRANCH  16  19
ENDBRANCH   1  17
TORSDOF 5
ENDMDL
MODEL 5
REMARK VINA RESULT:      -8.5      2.119      3.017
REMARK  Name = 
REMARK  5 active torsions:
REMARK  status: ('A' for Active; 'I' for Inactive)
REMARK    1  A    between atoms: C_2  and  C_3
REMARK    2  A    between atoms: C_3  and  N_4
REMARK    3  A    between atoms: N_11  and  C_12
REMARK    4  A    between atoms: C_12  and  C_13
REMARK    5  A    between atoms: C_13  and  C_14
REMARK                            x       y       z     vdW  Elec       q    Type
REMARK                         _______ _______ _______ _____ _____    ______ ____
ROOT
ATOM      1  C   UNL     1       3.896   4.992  19.653  0.00  0.00    +0.000 C 
ENDROOT
BRANCH   1   2
ATOM      2  C   UNL     1       2.387   5.193  19.289  0.00  0.00    +0.000 C 
ATOM      3  C   UNL     1       2.108   4.563  17.884  0.00  0.00    +0.000 C 
ATOM      4  C   UNL     1       2.186   3.034  17.853  0.00  0.00    +0.000 C 
ATOM      5  C   UNL     1       1.268   2.398  18.887  0.00  0.00    +0.000 C 
ATOM      6  C   UNL     1       1.547   2.939  20.283  0.00  0.00    +0.000 C 
ATOM      7  C   UNL     1       1.465   4.462  20.314  0.00  0.00    +0.000 C 
BRANCH   2   8
ATOM      8  C   UNL     1       2.083   6.714  19.215  0.00  0.00    +0.000 A 
ATOM      9  C   UNL     1       2.206   7.410  17.994  0.00  0.00    +0.000 A 
ATOM     10  C   UNL     1       1.937   8.782  17.901  0.00  0.00    +0.000 A 
ATOM     11  C   UNL     1       1.536   9.493  19.026  0.00  0.00    +0.000 A 
ATOM     12  C   UNL     1       1.414   8.826  20.235  0.00  0.00    +0.000 A 
ATOM     13  F   UNL     1       1.026   9.500  21.325  0.00  0.00    +0.000 F 
ATOM     14  C   UNL     1       1.685   7.463  20.338  0.00  0.00    +0.000 A 
ENDBRANCH   2   8
ENDBRANCH   1   2
BRANCH   1  17
ATOM     15  O   UNL     1       6.703   5.111  19.940  0.00  0.00    +0.000 OA
ATOM     16  C   UNL     1       6.196   5.476  18.881  0.00  0.00    +0.000 C 
ATOM     17  N   UNL     1       4.831   5.479  18.648  0.00  0.00    +0.000 N 
ATOM     18  H   UNL     1       4.529   5.460  17.681  0.00  0.00    +0.000 HD
BRANCH  16  19
ATOM     19  C   UNL     1       7.032   5.996  17.704  0.00  0.00    +0.000 C 
BRANCH  19  20
ATOM     20  N   UNL     1       6.589   5.483  16.422  0.00  0.00    +0.000 N 
ATOM     21  C   UNL     1       7.074   4.249  15.841  0.00  0.00    +0.000 C 
ATOM     22  C   UNL     1       6.264   4.232  14.552  0.00  0.00    +0.000 C 
ATOM     23  O   UNL     1       6.337   3.389  13.670  0.00  0.00    +0.000 OA
ATOM     24  N   UNL     1       5.441   5.315  14.536  0.00  0.00    +0.000 N 
ATOM     25  C   UNL     1       5.610   6.069  15.649  0.00  0.00    +0.000 C 
ATOM     26  O   UNL     1       5.008   7.097  15.912  0.00  0.00    +0.000 OA
ATOM     27  H   UNL     1       4.800   5.538  13.796  0.00  0.00    +0.000 HD
ENDBRANCH  19  20
ENDBRANCH  16  19
ENDBRANCH   1  17
TORSDOF 5
ENDMDL
MODEL 6
REMARK VINA RESULT:      -8.4      4.352      7.515
REMARK  Name = 
REMARK  5 active torsions:
REMARK  status: ('A' for Active; 'I' for Inactive)
REMARK    1  A    between atoms: C_2  and  C_3
REMARK    2  A    between atoms: C_3  and  N_4
REMARK    3  A    between atoms: N_11  and  C_12
REMARK    4  A    between atoms: C_12  and  C_13
REMARK    5  A    between atoms: C_13  and  C_14
REMARK                            x       y       z     vdW  Elec       q    Type
REMARK                         _______ _______ _______ _____ _____    ______ ____
ROOT
ATOM      1  C   UNL     1       4.884   5.086  16.381  0.00  0.00    +0.000 C 
ENDROOT
BRANCH   1   2
ATOM      2  C   UNL     1       6.399   5.230  16.016  0.00  0.00    +0.000 C 
ATOM      3  C   UNL     1       6.823   6.729  16.159  0.00  0.00    +0.000 C 
ATOM      4  C   UNL     1       6.850   7.240  17.602  0.00  0.00    +0.000 C 
ATOM      5  C   UNL     1       7.727   6.376  18.495  0.00  0.00    +0.000 C 
ATOM      6  C   UNL     1       7.310   4.913  18.434  0.00  0.00    +0.000 C 
ATOM      7  C   UNL     1       7.288   4.403  16.995  0.00  0.00    +0.000 C 
BRANCH   2   8
ATOM      8  C   UNL     1       6.607   4.798  14.538  0.00  0.00    +0.000 A 
ATOM      9  C   UNL     1       7.611   5.401  13.751  0.00  0.00    +0.000 A 
ATOM     10  C   UNL     1       7.819   5.030  12.417  0.00  0.00    +0.000 A 
ATOM     11  C   UNL     1       7.029   4.045  11.835  0.00  0.00    +0.000 A 
ATOM     12  C   UNL     1       6.036   3.445  12.592  0.00  0.00    +0.000 A 
ATOM     13  F   UNL     1       5.270   2.493  12.042  0.00  0.00    +0.000 F 
ATOM     14  C   UNL     1       5.817   3.813  13.918  0.00  0.00    +0.000 A 
ENDBRANCH   2   8
ENDBRANCH   1   2
BRANCH   1  17
ATOM     15  O   UNL     1       2.461   3.636  16.302  0.00  0.00    +0.000 OA
ATOM     16  C   UNL     1       3.352   3.267  17.065  0.00  0.00    +0.000 C 
ATOM     17  N   UNL     1       4.566   3.921  17.195  0.00  0.00    +0.000 N 
ATOM     18  H   UNL     1       5.342   3.382  17.563  0.00  0.00    +0.000 HD
BRANCH  16  19
ATOM     19  C   UNL     1       3.199   2.044  17.978  0.00  0.00    +0.000 C 
BRANCH  19  20
ATOM     20  N   UNL     1       2.552   2.353  19.239  0.00  0.00    +0.000 N 
ATOM     21  C   UNL     1       3.272   2.702  20.445  0.00  0.00    +0.000 C 
ATOM     22  C   UNL     1       2.100   2.925  21.392  0.00  0.00    +0.000 C 
ATOM     23  O   UNL     1       2.180   3.211  22.577  0.00  0.00    +0.000 OA
ATOM     24  N   UNL     1       0.940   2.750  20.703  0.00  0.00    +0.000 N 
ATOM     25  C   UNL     1       1.187   2.421  19.413  0.00  0.00    +0.000 C 
ATOM     26  O   UNL     1       0.343   2.207  18.558  0.00  0.00    +0.000 OA
ATOM     27  H   UNL     1       0.020   2.842  21.097  0.00  0.00    +0.000 HD
ENDBRANCH  19  20
ENDBRANCH  16  19
ENDBRANCH   1  17
TORSDOF 5
ENDMDL
MODEL 7
REMARK VINA RESULT:      -8.3      1.936      2.559
REMARK  Name = 
REMARK  5 active torsions:
REMARK  status: ('A' for Active; 'I' for Inactive)
REMARK    1  A    between atoms: C_2  and  C_3
REMARK    2  A    between atoms: C_3  and  N_4
REMARK    3  A    between atoms: N_11  and  C_12
REMARK    4  A    between atoms: C_12  and  C_13
REMARK    5  A    between atoms: C_13  and  C_14
REMARK                            x       y       z     vdW  Elec       q    Type
REMARK                         _______ _______ _______ _____ _____    ______ ____
ROOT
ATOM      1  C   UNL     1       3.726   5.164  19.753  0.00  0.00    +0.000 C 
ENDROOT
BRANCH   1   2
ATOM      2  C   UNL     1       2.176   5.338  19.627  0.00  0.00    +0.000 C 
ATOM      3  C   UNL     1       1.702   4.759  18.253  0.00  0.00    +0.000 C 
ATOM      4  C   UNL     1       1.806   3.235  18.144  0.00  0.00    +0.000 C 
ATOM      5  C   UNL     1       1.068   2.533  19.275  0.00  0.00    +0.000 C 
ATOM      6  C   UNL     1       1.541   3.024  20.635  0.00  0.00    +0.000 C 
ATOM      7  C   UNL     1       1.434   4.543  20.745  0.00  0.00    +0.000 C 
BRANCH   2   8
ATOM      8  C   UNL     1       1.833   6.853  19.666  0.00  0.00    +0.000 A 
ATOM      9  C   UNL     1       1.367   7.450  20.857  0.00  0.00    +0.000 A 
ATOM     10  C   UNL     1       1.051   8.813  20.920  0.00  0.00    +0.000 A 
ATOM     11  C   UNL     1       1.194   9.615  19.793  0.00  0.00    +0.000 A 
ATOM     12  C   UNL     1       1.646   9.045  18.614  0.00  0.00    +0.000 A 
ATOM     13  F   UNL     1       1.790   9.809  17.523  0.00  0.00    +0.000 F 
ATOM     14  C   UNL     1       1.957   7.688  18.542  0.00  0.00    +0.000 A 
ENDBRANCH   2   8
ENDBRANCH   1   2
BRANCH   1  17
ATOM     15  O   UNL     1       6.520   5.576  19.710  0.00  0.00    +0.000 OA
ATOM     16  C   UNL     1       5.863   5.840  18.705  0.00  0.00    +0.000 C 
ATOM     17  N   UNL     1       4.488   5.695  18.631  0.00  0.00    +0.000 N 
ATOM     18  H   UNL     1       4.085   5.602  17.705  0.00  0.00    +0.000 HD
BRANCH  16  19
ATOM     19  C   UNL     1       6.504   6.386  17.422  0.00  0.00    +0.000 C 
BRANCH  19  20
ATOM     20  N   UNL     1       6.395   5.474  16.300  0.00  0.00    +0.000 N 
ATOM     21  C   UNL     1       5.431   5.631  15.231  0.00  0.00    +0.000 C 
ATOM     22  C   UNL     1       5.796   4.428  14.372  0.00  0.00    +0.000 C 
ATOM     23  O   UNL     1       5.236   4.085  13.341  0.00  0.00    +0.000 OA
ATOM     24  N   UNL     1       6.854   3.788  14.940  0.00  0.00    +0.000 N 
ATOM     25  C   UNL     1       7.234   4.403  16.086  0.00  0.00    +0.000 C 
ATOM     26  O   UNL     1       8.155   4.057  16.809  0.00  0.00    +0.000 OA
ATOM     27  H   UNL     1       7.291   2.963  14.570  0.00  0.00    +0.000 HD
ENDBRANCH  19  20
ENDBRANCH  16  19
ENDBRANCH   1  17
TORSDOF 5
ENDMDL
MODEL 8
REMARK VINA RESULT:      -8.3      3.736      7.323
REMARK  Name = 
REMARK  5 active torsions:
REMARK  status: ('A' for Active; 'I' for Inactive)
REMARK    1  A    between atoms: C_2  and  C_3
REMARK    2  A    between atoms: C_3  and  N_4
REMARK    3  A    between atoms: N_11  and  C_12
REMARK    4  A    between atoms: C_12  and  C_13
REMARK    5  A    between atoms: C_13  and  C_14
REMARK                            x       y       z     vdW  Elec       q    Type
REMARK                         _______ _______ _______ _____ _____    ______ ____
ROOT
ATOM      1  C   UNL     1       5.090   3.653  16.404  0.00  0.00    +0.000 C 
ENDROOT
BRANCH   1   2
ATOM      2  C   UNL     1       6.152   4.673  15.874  0.00  0.00    +0.000 C 
ATOM      3  C   UNL     1       5.598   6.127  16.042  0.00  0.00    +0.000 C 
ATOM      4  C   UNL     1       5.486   6.593  17.496  0.00  0.00    +0.000 C 
ATOM      5  C   UNL     1       6.809   6.463  18.238  0.00  0.00    +0.000 C 
ATOM      6  C   UNL     1       7.357   5.046  18.151  0.00  0.00    +0.000 C 
ATOM      7  C   UNL     1       7.471   4.583  16.701  0.00  0.00    +0.000 C 
BRANCH   2   8
ATOM      8  C   UNL     1       6.395   4.411  14.363  0.00  0.00    +0.000 A 
ATOM      9  C   UNL     1       7.438   5.072  13.681  0.00  0.00    +0.000 A 
ATOM     10  C   UNL     1       7.679   4.854  12.318  0.00  0.00    +0.000 A 
ATOM     11  C   UNL     1       6.883   3.966  11.602  0.00  0.00    +0.000 A 
ATOM     12  C   UNL     1       5.851   3.311  12.255  0.00  0.00    +0.000 A 
ATOM     13  F   UNL     1       5.079   2.452  11.576  0.00  0.00    +0.000 F 
ATOM     14  C   UNL     1       5.601   3.528  13.609  0.00  0.00    +0.000 A 
ENDBRANCH   2   8
ENDBRANCH   1   2
BRANCH   1  17
ATOM     15  O   UNL     1       2.508   2.529  16.630  0.00  0.00    +0.000 OA
ATOM     16  C   UNL     1       2.735   3.614  17.161  0.00  0.00    +0.000 C 
ATOM     17  N   UNL     1       3.958   4.260  17.091  0.00  0.00    +0.000 N 
ATOM     18  H   UNL     1       4.160   4.943  17.812  0.00  0.00    +0.000 HD
BRANCH  16  19
ATOM     19  C   UNL     1       1.665   4.385  17.947  0.00  0.00    +0.000 C 
BRANCH  19  20
ATOM     20  N   UNL     1       1.751   4.175  19.379  0.00  0.00    +0.000 N 
ATOM     21  C   UNL     1       1.333   2.955  20.037  0.00  0.00    +0.000 C 
ATOM     22  C   UNL     1       1.668   3.310  21.480  0.00  0.00    +0.000 C 
ATOM     23  O   UNL     1       1.465   2.605  22.458  0.00  0.00    +0.000 OA
ATOM     24  N   UNL     1       2.232   4.547  21.508  0.00  0.00    +0.000 N 
ATOM     25  C   UNL     1       2.302   5.077  20.263  0.00  0.00    +0.000 C 
ATOM     26  O   UNL     1       2.762   6.171  19.979  0.00  0.00    +0.000 OA
ATOM     27  H   UNL     1       2.546   5.016  22.339  0.00  0.00    +0.000 HD
ENDBRANCH  19  20
ENDBRANCH  16  19
ENDBRANCH   1  17
TORSDOF 5
ENDMDL
MODEL 9
REMARK VINA RESULT:      -8.2      2.150      2.874
REMARK  Name = 
REMARK  5 active torsions:
REMARK  status: ('A' for Active; 'I' for Inactive)
REMARK    1  A    between atoms: C_2  and  C_3
REMARK    2  A    between atoms: C_3  and  N_4
REMARK    3  A    between atoms: N_11  and  C_12
REMARK    4  A    between atoms: C_12  and  C_13
REMARK    5  A    between atoms: C_13  and  C_14
REMARK                            x       y       z     vdW  Elec       q    Type
REMARK                         _______ _______ _______ _____ _____    ______ ____
ROOT
ATOM      1  C   UNL     1       3.674   5.255  19.798  0.00  0.00    +0.000 C 
ENDROOT
BRANCH   1   2
ATOM      2  C   UNL     1       2.130   5.432  19.618  0.00  0.00    +0.000 C 
ATOM      3  C   UNL     1       1.711   4.903  18.207  0.00  0.00    +0.000 C 
ATOM      4  C   UNL     1       1.823   3.384  18.046  0.00  0.00    +0.000 C 
ATOM      5  C   UNL     1       1.044   2.640  19.121  0.00  0.00    +0.000 C 
ATOM      6  C   UNL     1       1.464   3.081  20.516  0.00  0.00    +0.000 C 
ATOM      7  C   UNL     1       1.348   4.595  20.677  0.00  0.00    +0.000 C 
BRANCH   2   8
ATOM      8  C   UNL     1       1.781   6.943  19.701  0.00  0.00    +0.000 A 
ATOM      9  C   UNL     1       1.896   7.767  18.561  0.00  0.00    +0.000 A 
ATOM     10  C   UNL     1       1.587   9.133  18.608  0.00  0.00    +0.000 A 
ATOM     11  C   UNL     1       1.153   9.710  19.796  0.00  0.00    +0.000 A 
ATOM     12  C   UNL     1       1.038   8.916  20.927  0.00  0.00    +0.000 A 
ATOM     13  F   UNL     1       0.618   9.461  22.076  0.00  0.00    +0.000 F 
ATOM     14  C   UNL     1       1.349   7.558  20.890  0.00  0.00    +0.000 A 
ENDBRANCH   2   8
ENDBRANCH   1   2
BRANCH   1  17
ATOM     15  O   UNL     1       6.494   5.419  19.746  0.00  0.00    +0.000 OA
ATOM     16  C   UNL     1       5.857   5.792  18.763  0.00  0.00    +0.000 C 
ATOM     17  N   UNL     1       4.474   5.774  18.696  0.00  0.00    +0.000 N 
ATOM     18  H   UNL     1       4.059   5.765  17.771  0.00  0.00    +0.000 HD
BRANCH  16  19
ATOM     19  C   UNL     1       6.537   6.344  17.503  0.00  0.00    +0.000 C 
BRANCH  19  20
ATOM     20  N   UNL     1       6.421   5.459  16.360  0.00  0.00    +0.000 N 
ATOM     21  C   UNL     1       5.451   5.641  15.302  0.00  0.00    +0.000 C 
ATOM     22  C   UNL     1       5.811   4.459  14.412  0.00  0.00    +0.000 C 
ATOM     23  O   UNL     1       5.244   4.140  13.378  0.00  0.00    +0.000 OA
ATOM     24  N   UNL     1       6.872   3.806  14.959  0.00  0.00    +0.000 N 
ATOM     25  C   UNL     1       7.260   4.395  16.116  0.00  0.00    +0.000 C 
ATOM     26  O   UNL     1       8.185   4.032  16.825  0.00  0.00    +0.000 OA
ATOM     27  H   UNL     1       7.307   2.990  14.567  0.00  0.00    +0.000 HD
ENDBRANCH  19  20
ENDBRANCH  16  19
ENDBRANCH   1  17
TORSDOF 5
ENDMDL
