MODEL 1
REMARK VINA RESULT:      -8.3      0.000      0.000
REMARK  Name = 
REMARK  5 active torsions:
REMARK  status: ('A' for Active; 'I' for Inactive)
REMARK    1  A    between atoms: C_1  and  C_2
REMARK    2  A    between atoms: C_12  and  S_13
REMARK    3  A    between atoms: S_13  and  C_14
REMARK    4  A    between atoms: C_22  and  N_23
REMARK    5  A    between atoms: C_27  and  N_28
REMARK                            x       y       z     vdW  Elec       q    Type
REMARK                         _______ _______ _______ _____ _____    ______ ____
ROOT
ATOM      1  C   UNL     1       3.549   1.470  18.132  0.00  0.00    +0.000 C 
ATOM      2  C   UNL     1       3.763   2.973  18.070  0.00  0.00    +0.000 C 
ATOM      3  O   UNL     1       4.346   3.434  19.293  0.00  0.00    +0.000 OA
ATOM      4  C   UNL     1       4.208   4.859  19.267  0.00  0.00    +0.000 C 
ATOM      5  C   UNL     1       2.821   5.146  18.662  0.00  0.00    +0.000 C 
ATOM      6  C   UNL     1       2.868   6.365  17.708  0.00  0.00    +0.000 C 
ATOM      7  C   UNL     1       3.088   7.684  18.444  0.00  0.00    +0.000 C 
ATOM      8  N   UNL     1       2.060   7.820  19.460  0.00  0.00    +0.000 N 
ATOM      9  C   UNL     1       1.226   8.910  19.560  0.00  0.00    +0.000 A 
ATOM     10  C   UNL     1       0.826   9.661  18.450  0.00  0.00    +0.000 A 
ATOM     11  N   UNL     1      -0.027  10.715  18.497  0.00  0.00    +0.000 NA
ATOM     12  C   UNL     1      -0.498  11.018  19.728  0.00  0.00    +0.000 A 
ATOM     13  C   UNL     1      -0.117  10.280  20.863  0.00  0.00    +0.000 A 
ATOM     14  N   UNL     1       0.740   9.242  20.778  0.00  0.00    +0.000 NA
ATOM     15  C   UNL     1       2.026   6.792  20.492  0.00  0.00    +0.000 C 
ATOM     16  C   UNL     1       1.805   5.437  19.806  0.00  0.00    +0.000 C 
ATOM     17  C   UNL     1       2.510   3.848  17.855  0.00  0.00    +0.000 C 
ENDROOT
BRANCH  13  18
ATOM     18  N   UNL     1      -0.556  10.565  22.160  0.00  0.00    +0.000 N 
ATOM     19  H   UNL     1      -1.400  10.050  22.386  0.00  0.00    +0.000 HD
ATOM     20  H   UNL     1       0.214  10.338  22.785  0.00  0.00    +0.000 HD
ENDBRANCH  13  18
BRANCH  17  21
ATOM     21  N   UNL     1       1.233   3.221  18.218  0.00  0.00    +0.000 NA
ATOM     22  H   UNL     1       0.738   3.825  18.878  0.00  0.00    +0.000 HD
ATOM     23  H   UNL     1       1.402   2.350  18.720  0.00  0.00    +0.000 HD
ENDBRANCH  17  21
BRANCH  12  24
ATOM     24  S   UNL     1      -1.711  12.315  19.789  0.00  0.00    +0.000 S 
BRANCH  24  25
ATOM     25  C   UNL     1      -2.834  11.868  18.462  0.00  0.00    +0.000 A 
ATOM     26  C   UNL     1      -2.325  11.411  17.243  0.00  0.00    +0.000 A 
ATOM     27  C   UNL     1      -3.213  10.985  16.268  0.00  0.00    +0.000 A 
ATOM     28  N   UNL     1      -4.552  10.959  16.431  0.00  0.00    +0.000 NA
ATOM     29  C   UNL     1      -5.042  11.387  17.611  0.00  0.00    +0.000 A 
ATOM     30  N   UNL     1      -6.421  11.227  17.765  0.00  0.00    +0.000 N 
ATOM     31  C   UNL     1      -4.225  11.861  18.649  0.00  0.00    +0.000 A 
ATOM     32 CL   UNL     1      -4.960  12.434  20.116  0.00  0.00    +0.000 Cl
ATOM     33  H   UNL     1      -6.817  10.954  16.872  0.00  0.00    +0.000 HD
ATOM     34  H   UNL     1      -6.859  12.045  18.179  0.00  0.00    +0.000 HD
ENDBRANCH  24  25
ENDBRANCH  12  24
TORSDOF 4
ENDMDL
MODEL 2
REMARK VINA RESULT:      -8.2      4.497      9.346
REMARK  Name = 
REMARK  5 active torsions:
REMARK  status: ('A' for Active; 'I' for Inactive)
REMARK    1  A    between atoms: C_1  and  C_2
REMARK    2  A    between atoms: C_12  and  S_13
REMARK    3  A    between atoms: S_13  and  C_14
REMARK    4  A    between atoms: C_22  and  N_23
REMARK    5  A    between atoms: C_27  and  N_28
REMARK                            x       y       z     vdW  Elec       q    Type
REMARK                         _______ _______ _______ _____ _____    ______ ____
ROOT
ATOM      1  C   UNL     1      -1.870  16.066  23.050  0.00  0.00    +0.000 C 
ATOM      2  C   UNL     1      -2.015  14.954  22.026  0.00  0.00    +0.000 C 
ATOM      3  O   UNL     1      -2.596  13.798  22.638  0.00  0.00    +0.000 OA
ATOM      4  C   UNL     1      -2.395  12.732  21.705  0.00  0.00    +0.000 C 
ATOM      5  C   UNL     1      -0.987  12.935  21.116  0.00  0.00    +0.000 C 
ATOM      6  C   UNL     1      -0.965  12.620  19.599  0.00  0.00    +0.000 C 
ATOM      7  C   UNL     1      -1.137  11.133  19.302  0.00  0.00    +0.000 C 
ATOM      8  N   UNL     1      -0.121  10.397  20.032  0.00  0.00    +0.000 N 
ATOM      9  C   UNL     1       0.758   9.521  19.440  0.00  0.00    +0.000 A 
ATOM     10  C   UNL     1       1.210   9.673  18.125  0.00  0.00    +0.000 A 
ATOM     11  N   UNL     1       2.107   8.859  17.516  0.00  0.00    +0.000 NA
ATOM     12  C   UNL     1       2.571   7.844  18.280  0.00  0.00    +0.000 A 
ATOM     13  C   UNL     1       2.140   7.665  19.606  0.00  0.00    +0.000 A 
ATOM     14  N   UNL     1       1.239   8.492  20.175  0.00  0.00    +0.000 NA
ATOM     15  C   UNL     1      -0.149  10.516  21.484  0.00  0.00    +0.000 C 
ATOM     16  C   UNL     1       0.022  11.998  21.842  0.00  0.00    +0.000 C 
ATOM     17  C   UNL     1      -0.721  14.455  21.349  0.00  0.00    +0.000 C 
ENDROOT
BRANCH  13  18
ATOM     18  N   UNL     1       2.570   6.621  20.431  0.00  0.00    +0.000 N 
ATOM     19  H   UNL     1       1.834   5.938  20.577  0.00  0.00    +0.000 HD
ATOM     20  H   UNL     1       3.390   6.215  19.987  0.00  0.00    +0.000 HD
ENDBRANCH  13  18
BRANCH  17  21
ATOM     21  N   UNL     1       0.521  14.728  22.082  0.00  0.00    +0.000 NA
ATOM     22  H   UNL     1       1.258  14.969  21.417  0.00  0.00    +0.000 HD
ATOM     23  H   UNL     1       0.843  13.881  22.551  0.00  0.00    +0.000 HD
ENDBRANCH  17  21
BRANCH  12  24
ATOM     24  S   UNL     1       3.840   6.843  17.540  0.00  0.00    +0.000 S 
BRANCH  24  25
ATOM     25  C   UNL     1       3.398   5.186  18.069  0.00  0.00    +0.000 A 
ATOM     26  C   UNL     1       2.169   4.639  17.688  0.00  0.00    +0.000 A 
ATOM     27  C   UNL     1       1.890   3.326  18.031  0.00  0.00    +0.000 A 
ATOM     28  N   UNL     1       2.749   2.524  18.694  0.00  0.00    +0.000 NA
ATOM     29  C   UNL     1       3.939   3.047  19.048  0.00  0.00    +0.000 A 
ATOM     30  N   UNL     1       4.829   2.139  19.626  0.00  0.00    +0.000 N 
ATOM     31  C   UNL     1       4.302   4.374  18.770  0.00  0.00    +0.000 A 
ATOM     32 CL   UNL     1       5.843   4.965  19.312  0.00  0.00    +0.000 Cl
ATOM     33  H   UNL     1       4.334   1.274  19.811  0.00  0.00    +0.000 HD
ATOM     34  H   UNL     1       5.301   2.526  20.437  0.00  0.00    +0.000 HD
ENDBRANCH  24  25
ENDBRANCH  12  24
TORSDOF 4
ENDMDL
MODEL 3
REMARK VINA RESULT:      -8.1      4.923      9.446
REMARK  Name = 
REMARK  5 active torsions:
REMARK  status: ('A' for Active; 'I' for Inactive)
REMARK    1  A    between atoms: C_1  and  C_2
REMARK    2  A    between atoms: C_12  and  S_13
REMARK    3  A    between atoms: S_13  and  C_14
REMARK    4  A    between atoms: C_22  and  N_23
REMARK    5  A    between atoms: C_27  and  N_28
REMARK                            x       y       z     vdW  Elec       q    Type
REMARK                         _______ _______ _______ _____ _____    ______ ____
ROOT
ATOM      1  C   UNL     1       0.090  15.644  21.702  0.00  0.00    +0.000 C 
ATOM      2  C   UNL     1      -0.131  14.450  20.790  0.00  0.00    +0.000 C 
ATOM      3  O   UNL     1      -1.106  13.572  21.361  0.00  0.00    +0.000 OA
ATOM      4  C   UNL     1      -1.006  12.355  20.614  0.00  0.00    +0.000 C 
ATOM      5  C   UNL     1       0.495  12.130  20.356  0.00  0.00    +0.000 C 
ATOM      6  C   UNL     1       0.742  11.585  18.927  0.00  0.00    +0.000 C 
ATOM      7  C   UNL     1       0.249  10.150  18.749  0.00  0.00    +0.000 C 
ATOM      8  N   UNL     1       0.867   9.322  19.769  0.00  0.00    +0.000 N 
ATOM      9  C   UNL     1       1.588   8.184  19.492  0.00  0.00    +0.000 A 
ATOM     10  C   UNL     1       2.321   8.019  18.313  0.00  0.00    +0.000 A 
ATOM     11  N   UNL     1       3.078   6.933  18.018  0.00  0.00    +0.000 NA
ATOM     12  C   UNL     1       3.094   5.970  18.968  0.00  0.00    +0.000 A 
ATOM     13  C   UNL     1       2.372   6.107  20.166  0.00  0.00    +0.000 A 
ATOM     14  N   UNL     1       1.622   7.200  20.420  0.00  0.00    +0.000 NA
ATOM     15  C   UNL     1       0.578   9.671  21.153  0.00  0.00    +0.000 C 
ATOM     16  C   UNL     1       1.054  11.110  21.391  0.00  0.00    +0.000 C 
ATOM     17  C   UNL     1       1.097  13.563  20.491  0.00  0.00    +0.000 C 
ENDROOT
BRANCH  13  18
ATOM     18  N   UNL     1       2.336   5.134  21.170  0.00  0.00    +0.000 N 
ATOM     19  H   UNL     1       1.384   4.852  21.378  0.00  0.00    +0.000 HD
ATOM     20  H   UNL     1       2.908   4.358  20.846  0.00  0.00    +0.000 HD
ENDBRANCH  13  18
BRANCH  17  21
ATOM     21  N   UNL     1       2.192  13.652  21.465  0.00  0.00    +0.000 NA
ATOM     22  H   UNL     1       1.947  14.336  22.183  0.00  0.00    +0.000 HD
ATOM     23  H   UNL     1       3.031  14.017  21.015  0.00  0.00    +0.000 HD
ENDBRANCH  17  21
BRANCH  12  24
ATOM     24  S   UNL     1       4.180   4.599  18.653  0.00  0.00    +0.000 S 
BRANCH  24  25
ATOM     25  C   UNL     1       5.544   5.367  17.775  0.00  0.00    +0.000 A 
ATOM     26  C   UNL     1       6.410   6.231  18.453  0.00  0.00    +0.000 A 
ATOM     27  C   UNL     1       7.508   6.738  17.777  0.00  0.00    +0.000 A 
ATOM     28  N   UNL     1       7.813   6.427  16.500  0.00  0.00    +0.000 NA
ATOM     29  C   UNL     1       6.987   5.583  15.852  0.00  0.00    +0.000 A 
ATOM     30  N   UNL     1       7.416   5.206  14.577  0.00  0.00    +0.000 N 
ATOM     31  C   UNL     1       5.836   5.039  16.442  0.00  0.00    +0.000 A 
ATOM     32 CL   UNL     1       4.811   3.996  15.504  0.00  0.00    +0.000 Cl
ATOM     33  H   UNL     1       8.212   5.780  14.322  0.00  0.00    +0.000 HD
ATOM     34  H   UNL     1       6.662   5.221  13.897  0.00  0.00    +0.000 HD
ENDBRANCH  24  25
ENDBRANCH  12  24
TORSDOF 4
ENDMDL
MODEL 4
REMARK VINA RESULT:      -7.9      4.952      9.412
REMARK  Name = 
REMARK  5 active torsions:
REMARK  status: ('A' for Active; 'I' for Inactive)
REMARK    1  A    between atoms: C_1  and  C_2
REMARK    2  A    between atoms: C_12  and  S_13
REMARK    3  A    between atoms: S_13  and  C_14
REMARK    4  A    between atoms: C_22  and  N_23
REMARK    5  A    between atoms: C_27  and  N_28
REMARK                            x       y       z     vdW  Elec       q    Type
REMARK                         _______ _______ _______ _____ _____    ______ ____
ROOT
ATOM      1  C   UNL     1      -0.103  15.318  20.768  0.00  0.00    +0.000 C 
ATOM      2  C   UNL     1      -0.090  14.085  19.881  0.00  0.00    +0.000 C 
ATOM      3  O   UNL     1      -1.137  13.192  20.271  0.00  0.00    +0.000 OA
ATOM      4  C   UNL     1      -0.846  11.954  19.614  0.00  0.00    +0.000 C 
ATOM      5  C   UNL     1       0.682  11.778  19.686  0.00  0.00    +0.000 C 
ATOM      6  C   UNL     1       1.242  11.193  18.366  0.00  0.00    +0.000 C 
ATOM      7  C   UNL     1       0.842   9.736  18.148  0.00  0.00    +0.000 C 
ATOM      8  N   UNL     1       1.254   8.968  19.309  0.00  0.00    +0.000 N 
ATOM      9  C   UNL     1       2.051   7.849  19.238  0.00  0.00    +0.000 A 
ATOM     10  C   UNL     1       3.022   7.671  18.247  0.00  0.00    +0.000 A 
ATOM     11  N   UNL     1       3.856   6.605  18.163  0.00  0.00    +0.000 NA
ATOM     12  C   UNL     1       3.700   5.678  19.136  0.00  0.00    +0.000 A 
ATOM     13  C   UNL     1       2.737   5.828  20.148  0.00  0.00    +0.000 A 
ATOM     14  N   UNL     1       1.918   6.900  20.193  0.00  0.00    +0.000 NA
ATOM     15  C   UNL     1       0.668   9.353  20.586  0.00  0.00    +0.000 C 
ATOM     16  C   UNL     1       1.041  10.817  20.857  0.00  0.00    +0.000 C 
ATOM     17  C   UNL     1       1.199  13.237  19.884  0.00  0.00    +0.000 C 
ENDROOT
BRANCH  13  18
ATOM     18  N   UNL     1       2.519   4.890  21.162  0.00  0.00    +0.000 N 
ATOM     19  H   UNL     1       1.528   4.741  21.322  0.00  0.00    +0.000 HD
ATOM     20  H   UNL     1       2.998   4.038  20.881  0.00  0.00    +0.000 HD
ENDBRANCH  13  18
BRANCH  17  21
ATOM     21  N   UNL     1       2.060  13.401  21.063  0.00  0.00    +0.000 NA
ATOM     22  H   UNL     1       1.986  12.569  21.650  0.00  0.00    +0.000 HD
ATOM     23  H   UNL     1       1.720  14.172  21.638  0.00  0.00    +0.000 HD
ENDBRANCH  17  21
BRANCH  12  24
ATOM     24  S   UNL     1       4.869   4.338  19.114  0.00  0.00    +0.000 S 
BRANCH  24  25
ATOM     25  C   UNL     1       5.366   4.275  17.390  0.00  0.00    +0.000 A 
ATOM     26  C   UNL     1       4.529   3.673  16.446  0.00  0.00    +0.000 A 
ATOM     27  C   UNL     1       4.893   3.719  15.110  0.00  0.00    +0.000 A 
ATOM     28  N   UNL     1       6.002   4.337  14.653  0.00  0.00    +0.000 NA
ATOM     29  C   UNL     1       6.800   4.930  15.562  0.00  0.00    +0.000 A 
ATOM     30  N   UNL     1       7.867   5.651  15.022  0.00  0.00    +0.000 N 
ATOM     31  C   UNL     1       6.531   4.914  16.939  0.00  0.00    +0.000 A 
ATOM     32 CL   UNL     1       7.650   5.669  18.033  0.00  0.00    +0.000 Cl
ATOM     33  H   UNL     1       7.921   5.454  14.029  0.00  0.00    +0.000 HD
ATOM     34  H   UNL     1       8.735   5.488  15.524  0.00  0.00    +0.000 HD
ENDBRANCH  24  25
ENDBRANCH  12  24
TORSDOF 4
ENDMDL
MODEL 5
REMARK VINA RESULT:      -7.9      2.479      3.791
REMARK  Name = 
REMARK  5 active torsions:
REMARK  status: ('A' for Active; 'I' for Inactive)
REMARK    1  A    between atoms: C_1  and  C_2
REMARK    2  A    between atoms: C_12  and  S_13
REMARK    3  A    between atoms: S_13  and  C_14
REMARK    4  A    between atoms: C_22  and  N_23
REMARK    5  A    between atoms: C_27  and  N_28
REMARK                            x       y       z     vdW  Elec       q    Type
REMARK                         _______ _______ _______ _____ _____    ______ ____
ROOT
ATOM      1  C   UNL     1       3.436   1.597  18.091  0.00  0.00    +0.000 C 
ATOM      2  C   UNL     1       3.588   3.108  18.065  0.00  0.00    +0.000 C 
ATOM      3  O   UNL     1       4.280   3.550  19.236  0.00  0.00    +0.000 OA
ATOM      4  C   UNL     1       4.090   4.968  19.279  0.00  0.00    +0.000 C 
ATOM      5  C   UNL     1       2.637   5.221  18.834  0.00  0.00    +0.000 C 
ATOM      6  C   UNL     1       2.539   6.472  17.927  0.00  0.00    +0.000 C 
ATOM      7  C   UNL     1       2.788   7.773  18.685  0.00  0.00    +0.000 C 
ATOM      8  N   UNL     1       1.870   7.834  19.808  0.00  0.00    +0.000 N 
ATOM      9  C   UNL     1       1.013   8.885  20.036  0.00  0.00    +0.000 A 
ATOM     10  C   UNL     1       0.470   9.657  19.004  0.00  0.00    +0.000 A 
ATOM     11  N   UNL     1      -0.410  10.674  19.179  0.00  0.00    +0.000 NA
ATOM     12  C   UNL     1      -0.758  10.917  20.464  0.00  0.00    +0.000 A 
ATOM     13  C   UNL     1      -0.233  10.157  21.523  0.00  0.00    +0.000 A 
ATOM     14  N   UNL     1       0.647   9.157  21.310  0.00  0.00    +0.000 NA
ATOM     15  C   UNL     1       1.982   6.771  20.798  0.00  0.00    +0.000 C 
ATOM     16  C   UNL     1       1.739   5.432  20.088  0.00  0.00    +0.000 C 
ATOM     17  C   UNL     1       2.288   3.939  18.015  0.00  0.00    +0.000 C 
ENDROOT
BRANCH  13  18
ATOM     18  N   UNL     1      -0.541  10.380  22.869  0.00  0.00    +0.000 N 
ATOM     19  H   UNL     1      -0.173   9.641  23.460  0.00  0.00    +0.000 HD
ATOM     20  H   UNL     1      -0.162  11.292  23.109  0.00  0.00    +0.000 HD
ENDBRANCH  13  18
BRANCH  17  21
ATOM     21  N   UNL     1       1.080   3.250  18.487  0.00  0.00    +0.000 NA
ATOM     22  H   UNL     1       1.266   2.837  19.402  0.00  0.00    +0.000 HD
ATOM     23  H   UNL     1       0.863   2.466  17.872  0.00  0.00    +0.000 HD
ENDBRANCH  17  21
BRANCH  12  24
ATOM     24  S   UNL     1      -2.004  12.162  20.700  0.00  0.00    +0.000 S 
BRANCH  24  25
ATOM     25  C   UNL     1      -1.206  13.313  21.821  0.00  0.00    +0.000 A 
ATOM     26  C   UNL     1      -0.035  13.969  21.429  0.00  0.00    +0.000 A 
ATOM     27  C   UNL     1       0.510  14.922  22.274  0.00  0.00    +0.000 A 
ATOM     28  N   UNL     1      -0.037  15.279  23.455  0.00  0.00    +0.000 NA
ATOM     29  C   UNL     1      -1.173  14.657  23.827  0.00  0.00    +0.000 A 
ATOM     30  N   UNL     1      -1.754  15.149  24.997  0.00  0.00    +0.000 N 
ATOM     31  C   UNL     1      -1.785  13.661  23.051  0.00  0.00    +0.000 A 
ATOM     32 CL   UNL     1      -3.224  12.887  23.643  0.00  0.00    +0.000 Cl
ATOM     33  H   UNL     1      -1.106  15.796  25.433  0.00  0.00    +0.000 HD
ATOM     34  H   UNL     1      -2.072  14.406  25.611  0.00  0.00    +0.000 HD
ENDBRANCH  24  25
ENDBRANCH  12  24
TORSDOF 4
ENDMDL
MODEL 6
REMARK VINA RESULT:      -7.7      2.519      3.505
REMARK  Name = 
REMARK  5 active torsions:
REMARK  status: ('A' for Active; 'I' for Inactive)
REMARK    1  A    between atoms: C_1  and  C_2
REMARK    2  A    between atoms: C_12  and  S_13
REMARK    3  A    between atoms: S_13  and  C_14
REMARK    4  A    between atoms: C_22  and  N_23
REMARK    5  A    between atoms: C_27  and  N_28
REMARK                            x       y       z     vdW  Elec       q    Type
REMARK                         _______ _______ _______ _____ _____    ______ ____
ROOT
ATOM      1  C   UNL     1       3.434   1.491  18.170  0.00  0.00    +0.000 C 
ATOM      2  C   UNL     1       3.653   2.992  18.092  0.00  0.00    +0.000 C 
ATOM      3  O   UNL     1       4.277   3.458  19.292  0.00  0.00    +0.000 OA
ATOM      4  C   UNL     1       4.145   4.883  19.261  0.00  0.00    +0.000 C 
ATOM      5  C   UNL     1       2.741   5.173  18.700  0.00  0.00    +0.000 C 
ATOM      6  C   UNL     1       2.763   6.386  17.736  0.00  0.00    +0.000 C 
ATOM      7  C   UNL     1       3.012   7.709  18.456  0.00  0.00    +0.000 C 
ATOM      8  N   UNL     1       2.019   7.856  19.504  0.00  0.00    +0.000 N 
ATOM      9  C   UNL     1       1.194   8.950  19.623  0.00  0.00    +0.000 A 
ATOM     10  C   UNL     1       0.761   9.696  18.522  0.00  0.00    +0.000 A 
ATOM     11  N   UNL     1      -0.084  10.755  18.588  0.00  0.00    +0.000 NA
ATOM     12  C   UNL     1      -0.514  11.068  19.833  0.00  0.00    +0.000 A 
ATOM     13  C   UNL     1      -0.101  10.336  20.959  0.00  0.00    +0.000 A 
ATOM     14  N   UNL     1       0.749   9.293  20.854  0.00  0.00    +0.000 NA
ATOM     15  C   UNL     1       2.012   6.835  20.543  0.00  0.00    +0.000 C 
ATOM     16  C   UNL     1       1.764   5.477  19.873  0.00  0.00    +0.000 C 
ATOM     17  C   UNL     1       2.397   3.871  17.911  0.00  0.00    +0.000 C 
ENDROOT
BRANCH  13  18
ATOM     18  N   UNL     1      -0.496  10.631  22.268  0.00  0.00    +0.000 N 
ATOM     19  H   UNL     1      -1.498  10.780  22.327  0.00  0.00    +0.000 HD
ATOM     20  H   UNL     1      -0.185   9.857  22.849  0.00  0.00    +0.000 HD
ENDBRANCH  13  18
BRANCH  17  21
ATOM     21  N   UNL     1       1.130   3.253  18.320  0.00  0.00    +0.000 NA
ATOM     22  H   UNL     1       0.539   3.124  17.496  0.00  0.00    +0.000 HD
ATOM     23  H   UNL     1       0.613   3.887  18.930  0.00  0.00    +0.000 HD
ENDBRANCH  17  21
BRANCH  12  24
ATOM     24  S   UNL     1      -1.719  12.371  19.923  0.00  0.00    +0.000 S 
BRANCH  24  25
ATOM     25  C   UNL     1      -0.701  13.848  19.992  0.00  0.00    +0.000 A 
ATOM     26  C   UNL     1      -0.197  14.401  18.811  0.00  0.00    +0.000 A 
ATOM     27  C   UNL     1       0.508  15.592  18.881  0.00  0.00    +0.000 A 
ATOM     28  N   UNL     1       0.719  16.273  20.027  0.00  0.00    +0.000 NA
ATOM     29  C   UNL     1       0.221  15.747  21.163  0.00  0.00    +0.000 A 
ATOM     30  N   UNL     1       0.369  16.552  22.295  0.00  0.00    +0.000 N 
ATOM     31  C   UNL     1      -0.482  14.534  21.196  0.00  0.00    +0.000 A 
ATOM     32 CL   UNL     1      -1.044  13.918  22.721  0.00  0.00    +0.000 Cl
ATOM     33  H   UNL     1       0.977  17.329  22.061  0.00  0.00    +0.000 HD
ATOM     34  H   UNL     1       0.669  16.022  23.107  0.00  0.00    +0.000 HD
ENDBRANCH  24  25
ENDBRANCH  12  24
TORSDOF 4
ENDMDL
MODEL 7
REMARK VINA RESULT:      -7.7      4.919      9.534
REMARK  Name = 
REMARK  5 active torsions:
REMARK  status: ('A' for Active; 'I' for Inactive)
REMARK    1  A    between atoms: C_1  and  C_2
REMARK    2  A    between atoms: C_12  and  S_13
REMARK    3  A    between atoms: S_13  and  C_14
REMARK    4  A    between atoms: C_22  and  N_23
REMARK    5  A    between atoms: C_27  and  N_28
REMARK                            x       y       z     vdW  Elec       q    Type
REMARK                         _______ _______ _______ _____ _____    ______ ____
ROOT
ATOM      1  C   UNL     1       1.865  17.256  20.876  0.00  0.00    +0.000 C 
ATOM      2  C   UNL     1       1.198  16.080  20.183  0.00  0.00    +0.000 C 
ATOM      3  O   UNL     1       0.278  15.444  21.075  0.00  0.00    +0.000 OA
ATOM      4  C   UNL     1      -0.044  14.193  20.460  0.00  0.00    +0.000 C 
ATOM      5  C   UNL     1       1.266  13.663  19.849  0.00  0.00    +0.000 C 
ATOM      6  C   UNL     1       1.014  13.003  18.470  0.00  0.00    +0.000 C 
ATOM      7  C   UNL     1       0.249  11.686  18.577  0.00  0.00    +0.000 C 
ATOM      8  N   UNL     1       0.966  10.809  19.484  0.00  0.00    +0.000 N 
ATOM      9  C   UNL     1       1.373   9.538  19.153  0.00  0.00    +0.000 A 
ATOM     10  C   UNL     1       1.716   9.168  17.848  0.00  0.00    +0.000 A 
ATOM     11  N   UNL     1       2.162   7.940  17.484  0.00  0.00    +0.000 NA
ATOM     12  C   UNL     1       2.268   7.046  18.494  0.00  0.00    +0.000 A 
ATOM     13  C   UNL     1       1.936   7.387  19.816  0.00  0.00    +0.000 A 
ATOM     14  N   UNL     1       1.488   8.619  20.139  0.00  0.00    +0.000 NA
ATOM     15  C   UNL     1       1.132  11.283  20.852  0.00  0.00    +0.000 C 
ATOM     16  C   UNL     1       1.899  12.611  20.806  0.00  0.00    +0.000 C 
ATOM     17  C   UNL     1       2.123  14.955  19.672  0.00  0.00    +0.000 C 
ENDROOT
BRANCH  13  18
ATOM     18  N   UNL     1       2.006   6.497  20.892  0.00  0.00    +0.000 N 
ATOM     19  H   UNL     1       2.014   6.988  21.779  0.00  0.00    +0.000 HD
ATOM     20  H   UNL     1       1.211   5.869  20.805  0.00  0.00    +0.000 HD
ENDBRANCH  13  18
BRANCH  17  21
ATOM     21  N   UNL     1       3.440  14.879  20.317  0.00  0.00    +0.000 NA
ATOM     22  H   UNL     1       3.856  15.812  20.341  0.00  0.00    +0.000 HD
ATOM     23  H   UNL     1       4.073  14.312  19.753  0.00  0.00    +0.000 HD
ENDBRANCH  17  21
BRANCH  12  24
ATOM     24  S   UNL     1       2.969   5.473  18.056  0.00  0.00    +0.000 S 
BRANCH  24  25
ATOM     25  C   UNL     1       4.730   5.753  18.260  0.00  0.00    +0.000 A 
ATOM     26  C   UNL     1       5.368   5.345  19.436  0.00  0.00    +0.000 A 
ATOM     27  C   UNL     1       6.743   5.488  19.531  0.00  0.00    +0.000 A 
ATOM     28  N   UNL     1       7.518   5.978  18.542  0.00  0.00    +0.000 NA
ATOM     29  C   UNL     1       6.905   6.357  17.403  0.00  0.00    +0.000 A 
ATOM     30  N   UNL     1       7.767   6.745  16.375  0.00  0.00    +0.000 N 
ATOM     31  C   UNL     1       5.516   6.276  17.222  0.00  0.00    +0.000 A 
ATOM     32 CL   UNL     1       4.818   6.836  15.732  0.00  0.00    +0.000 Cl
ATOM     33  H   UNL     1       8.707   6.812  16.749  0.00  0.00    +0.000 HD
ATOM     34  H   UNL     1       7.448   7.585  15.902  0.00  0.00    +0.000 HD
ENDBRANCH  24  25
ENDBRANCH  12  24
TORSDOF 4
ENDMDL
MODEL 8
REMARK VINA RESULT:      -7.7      7.903     11.098
REMARK  Name = 
REMARK  5 active torsions:
REMARK  status: ('A' for Active; 'I' for Inactive)
REMARK    1  A    between atoms: C_1  and  C_2
REMARK    2  A    between atoms: C_12  and  S_13
REMARK    3  A    between atoms: S_13  and  C_14
REMARK    4  A    between atoms: C_22  and  N_23
REMARK    5  A    between atoms: C_27  and  N_28
REMARK                            x       y       z     vdW  Elec       q    Type
REMARK                         _______ _______ _______ _____ _____    ______ ____
ROOT
ATOM      1  C   UNL     1      -1.635  10.671  18.665  0.00  0.00    +0.000 C 
ATOM      2  C   UNL     1      -0.875  11.888  19.163  0.00  0.00    +0.000 C 
ATOM      3  O   UNL     1      -0.799  12.874  18.128  0.00  0.00    +0.000 OA
ATOM      4  C   UNL     1       0.185  13.814  18.569  0.00  0.00    +0.000 C 
ATOM      5  C   UNL     1       1.304  12.988  19.231  0.00  0.00    +0.000 C 
ATOM      6  C   UNL     1       1.844  13.692  20.500  0.00  0.00    +0.000 C 
ATOM      7  C   UNL     1       2.637  14.958  20.182  0.00  0.00    +0.000 C 
ATOM      8  N   UNL     1       3.695  14.615  19.249  0.00  0.00    +0.000 N 
ATOM      9  C   UNL     1       5.025  14.888  19.472  0.00  0.00    +0.000 A 
ATOM     10  C   UNL     1       5.586  14.926  20.752  0.00  0.00    +0.000 A 
ATOM     11  N   UNL     1       6.897  15.149  21.016  0.00  0.00    +0.000 NA
ATOM     12  C   UNL     1       7.677  15.337  19.926  0.00  0.00    +0.000 A 
ATOM     13  C   UNL     1       7.145  15.301  18.626  0.00  0.00    +0.000 A 
ATOM     14  N   UNL     1       5.832  15.084  18.404  0.00  0.00    +0.000 NA
ATOM     15  C   UNL     1       3.278  14.074  17.962  0.00  0.00    +0.000 C 
ATOM     16  C   UNL     1       2.474  12.794  18.222  0.00  0.00    +0.000 C 
ATOM     17  C   UNL     1       0.581  11.662  19.624  0.00  0.00    +0.000 C 
ENDROOT
BRANCH  13  18
ATOM     18  N   UNL     1       7.901  15.511  17.469  0.00  0.00    +0.000 N 
ATOM     19  H   UNL     1       8.269  14.639  17.104  0.00  0.00    +0.000 HD
ATOM     20  H   UNL     1       7.293  15.982  16.804  0.00  0.00    +0.000 HD
ENDBRANCH  13  18
BRANCH  17  21
ATOM     21  N   UNL     1       1.231  10.458  19.093  0.00  0.00    +0.000 NA
ATOM     22  H   UNL     1       0.515   9.800  18.780  0.00  0.00    +0.000 HD
ATOM     23  H   UNL     1       1.737   9.977  19.837  0.00  0.00    +0.000 HD
ENDBRANCH  17  21
BRANCH  12  24
ATOM     24  S   UNL     1       9.417  15.505  20.247  0.00  0.00    +0.000 S 
BRANCH  24  25
ATOM     25  C   UNL     1      10.042  13.855  19.918  0.00  0.00    +0.000 A 
ATOM     26  C   UNL     1       9.604  12.778  20.694  0.00  0.00    +0.000 A 
ATOM     27  C   UNL     1      10.029  11.501  20.362  0.00  0.00    +0.000 A 
ATOM     28  N   UNL     1      10.827  11.226  19.309  0.00  0.00    +0.000 NA
ATOM     29  C   UNL     1      11.237  12.263  18.552  0.00  0.00    +0.000 A 
ATOM     30  N   UNL     1      11.961  11.906  17.413  0.00  0.00    +0.000 N 
ATOM     31  C   UNL     1      10.882  13.593  18.825  0.00  0.00    +0.000 A 
ATOM     32 CL   UNL     1      11.502  14.863  17.815  0.00  0.00    +0.000 Cl
ATOM     33  H   UNL     1      12.174  10.916  17.462  0.00  0.00    +0.000 HD
ATOM     34  H   UNL     1      12.775  12.498  17.274  0.00  0.00    +0.000 HD
ENDBRANCH  24  25
ENDBRANCH  12  24
TORSDOF 4
ENDMDL
MODEL 9
REMARK VINA RESULT:      -7.7      2.556      3.780
REMARK  Name = 
REMARK  5 active torsions:
REMARK  status: ('A' for Active; 'I' for Inactive)
REMARK    1  A    between atoms: C_1  and  C_2
REMARK    2  A    between atoms: C_12  and  S_13
REMARK    3  A    between atoms: S_13  and  C_14
REMARK    4  A    between atoms: C_22  and  N_23
REMARK    5  A    between atoms: C_27  and  N_28
REMARK                            x       y       z     vdW  Elec       q    Type
REMARK                         _______ _______ _______ _____ _____    ______ ____
ROOT
ATOM      1  C   UNL     1       3.424   1.566  18.228  0.00  0.00    +0.000 C 
ATOM      2  C   UNL     1       3.584   3.075  18.160  0.00  0.00    +0.000 C 
ATOM      3  O   UNL     1       4.290   3.544  19.313  0.00  0.00    +0.000 OA
ATOM      4  C   UNL     1       4.109   4.964  19.318  0.00  0.00    +0.000 C 
ATOM      5  C   UNL     1       2.653   5.213  18.881  0.00  0.00    +0.000 C 
ATOM      6  C   UNL     1       2.554   6.440  17.941  0.00  0.00    +0.000 C 
ATOM      7  C   UNL     1       2.818   7.760  18.662  0.00  0.00    +0.000 C 
ATOM      8  N   UNL     1       1.911   7.856  19.791  0.00  0.00    +0.000 N 
ATOM      9  C   UNL     1       1.062   8.919  19.998  0.00  0.00    +0.000 A 
ATOM     10  C   UNL     1       0.514   9.666  18.951  0.00  0.00    +0.000 A 
ATOM     11  N   UNL     1      -0.359  10.693  19.107  0.00  0.00    +0.000 NA
ATOM     12  C   UNL     1      -0.693  10.971  20.388  0.00  0.00    +0.000 A 
ATOM     13  C   UNL     1      -0.163  10.237  21.463  0.00  0.00    +0.000 A 
ATOM     14  N   UNL     1       0.710   9.226  21.268  0.00  0.00    +0.000 NA
ATOM     15  C   UNL     1       2.026   6.819  20.808  0.00  0.00    +0.000 C 
ATOM     16  C   UNL     1       1.768   5.464  20.137  0.00  0.00    +0.000 C 
ATOM     17  C   UNL     1       2.289   3.912  18.100  0.00  0.00    +0.000 C 
ENDROOT
BRANCH  13  18
ATOM     18  N   UNL     1      -0.457  10.498  22.804  0.00  0.00    +0.000 N 
ATOM     19  H   UNL     1      -0.623  11.486  22.962  0.00  0.00    +0.000 HD
ATOM     20  H   UNL     1      -1.264   9.928  23.043  0.00  0.00    +0.000 HD
ENDBRANCH  13  18
BRANCH  17  21
ATOM     21  N   UNL     1       1.082   3.244  18.601  0.00  0.00    +0.000 NA
ATOM     22  H   UNL     1       0.308   3.422  17.958  0.00  0.00    +0.000 HD
ATOM     23  H   UNL     1       0.798   3.656  19.490  0.00  0.00    +0.000 HD
ENDBRANCH  17  21
BRANCH  12  24
ATOM     24  S   UNL     1      -1.929  12.230  20.602  0.00  0.00    +0.000 S 
BRANCH  24  25
ATOM     25  C   UNL     1      -0.955  13.672  21.040  0.00  0.00    +0.000 A 
ATOM     26  C   UNL     1      -0.835  14.050  22.381  0.00  0.00    +0.000 A 
ATOM     27  C   UNL     1      -0.003  15.111  22.702  0.00  0.00    +0.000 A 
ATOM     28  N   UNL     1       0.727  15.794  21.796  0.00  0.00    +0.000 NA
ATOM     29  C   UNL     1       0.622  15.420  20.505  0.00  0.00    +0.000 A 
ATOM     30  N   UNL     1       1.487  16.083  19.631  0.00  0.00    +0.000 N 
ATOM     31  C   UNL     1      -0.214  14.377  20.079  0.00  0.00    +0.000 A 
ATOM     32 CL   UNL     1      -0.312  14.003  18.385  0.00  0.00    +0.000 Cl
ATOM     33  H   UNL     1       1.929  16.847  20.132  0.00  0.00    +0.000 HD
ATOM     34  H   UNL     1       1.024  16.364  18.772  0.00  0.00    +0.000 HD
ENDBRANCH  24  25
ENDBRANCH  12  24
TORSDOF 4
ENDMDL
