MODEL 1
REMARK VINA RESULT:      -7.8      0.000      0.000
REMARK  Name = 
REMARK  10 active torsions:
REMARK  status: ('A' for Active; 'I' for Inactive)
REMARK    1  A    between atoms: C_1  and  C_2
REMARK    2  A    between atoms: C_2  and  C_20
REMARK    3  A    between atoms: C_3  and  C_4
REMARK    4  A    between atoms: C_4  and  C_5
REMARK    5  A    between atoms: C_6  and  O_7
REMARK    6  A    between atoms: C_10  and  C_11
REMARK    7  A    between atoms: C_12  and  C_13
REMARK    8  A    between atoms: C_20  and  C_21
REMARK    9  A    between atoms: C_21  and  C_22
REMARK   10  A    between atoms: C_22  and  O_24
REMARK                            x       y       z     vdW  Elec       q    Type
REMARK                         _______ _______ _______ _____ _____    ______ ____
ROOT
ATOM      1  C   UNL     1       4.937   4.256  16.924  0.00  0.00    +0.000 A 
ATOM      2  C   UNL     1       4.113   3.306  17.566  0.00  0.00    +0.000 A 
ATOM      3  C   UNL     1       3.057   3.734  18.355  0.00  0.00    +0.000 A 
ATOM      4  C   UNL     1       2.760   5.072  18.510  0.00  0.00    +0.000 A 
ATOM      5  C   UNL     1       3.512   6.067  17.878  0.00  0.00    +0.000 A 
ATOM      6  C   UNL     1       3.089   7.504  18.024  0.00  0.00    +0.000 C 
ATOM      7  C   UNL     1       4.614   5.651  17.073  0.00  0.00    +0.000 A 
ATOM      8  C   UNL     1       1.552   5.193  19.357  0.00  0.00    +0.000 C 
ATOM      9  O   UNL     1       1.207   3.833  19.665  0.00  0.00    +0.000 OA
ATOM     10  C   UNL     1       2.062   2.939  19.082  0.00  0.00    +0.000 C 
ATOM     11  O   UNL     1       1.976   1.731  19.165  0.00  0.00    +0.000 OA
ENDROOT
BRANCH   7  12
ATOM     12  C   UNL     1       5.366   6.667  16.268  0.00  0.00    +0.000 C 
ATOM     13  N   UNL     1       6.484   7.229  16.816  0.00  0.00    +0.000 N 
ATOM     14  O   UNL     1       5.002   6.989  15.144  0.00  0.00    +0.000 OA
ATOM     15  H   UNL     1       6.888   6.957  17.700  0.00  0.00    +0.000 HD
ATOM     16  H   UNL     1       6.993   7.893  16.244  0.00  0.00    +0.000 HD
ENDBRANCH   7  12
BRANCH   2  17
ATOM     17  O   UNL     1       4.295   1.960  17.432  0.00  0.00    +0.000 OA
ATOM     18  H   UNL     1       4.842   1.615  18.152  0.00  0.00    +0.000 HD
ENDBRANCH   2  17
BRANCH   1  19
ATOM     19  C   UNL     1       6.117   3.786  16.084  0.00  0.00    +0.000 C 
BRANCH  19  22
ATOM     20  C   UNL     1       7.552   5.005  13.627  0.00  0.00    +0.000 C 
ATOM     21  C   UNL     1       6.382   4.062  13.546  0.00  0.00    +0.000 C 
ATOM     22  C   UNL     1       5.797   3.516  14.631  0.00  0.00    +0.000 C 
BRANCH  21  23
ATOM     23  C   UNL     1       5.918   3.791  12.117  0.00  0.00    +0.000 C 
BRANCH  23  24
ATOM     24  C   UNL     1       5.398   2.377  11.843  0.00  0.00    +0.000 C 
BRANCH  24  25
ATOM     25  C   UNL     1       6.489   1.471  11.328  0.00  0.00    +0.000 C 
ATOM     26  O   UNL     1       7.591   1.834  10.948  0.00  0.00    +0.000 OA
BRANCH  25  27
ATOM     27  O   UNL     1       6.115   0.169  11.332  0.00  0.00    +0.000 OA
ATOM     28  H   UNL     1       6.015  -0.216  10.440  0.00  0.00    +0.000 HD
ENDBRANCH  25  27
ENDBRANCH  24  25
ENDBRANCH  23  24
ENDBRANCH  21  23
ENDBRANCH  19  22
ENDBRANCH   1  19
TORSDOF 8
ENDMDL
MODEL 2
REMARK VINA RESULT:      -7.4      2.419      3.759
REMARK  Name = 
REMARK  10 active torsions:
REMARK  status: ('A' for Active; 'I' for Inactive)
REMARK    1  A    between atoms: C_1  and  C_2
REMARK    2  A    between atoms: C_2  and  C_20
REMARK    3  A    between atoms: C_3  and  C_4
REMARK    4  A    between atoms: C_4  and  C_5
REMARK    5  A    between atoms: C_6  and  O_7
REMARK    6  A    between atoms: C_10  and  C_11
REMARK    7  A    between atoms: C_12  and  C_13
REMARK    8  A    between atoms: C_20  and  C_21
REMARK    9  A    between atoms: C_21  and  C_22
REMARK   10  A    between atoms: C_22  and  O_24
REMARK                            x       y       z     vdW  Elec       q    Type
REMARK                         _______ _______ _______ _____ _____    ______ ____
ROOT
ATOM      1  C   UNL     1       4.434   4.475  18.419  0.00  0.00    +0.000 A 
ATOM      2  C   UNL     1       3.986   5.810  18.322  0.00  0.00    +0.000 A 
ATOM      3  C   UNL     1       2.952   6.248  19.136  0.00  0.00    +0.000 A 
ATOM      4  C   UNL     1       2.361   5.422  20.069  0.00  0.00    +0.000 A 
ATOM      5  C   UNL     1       2.777   4.098  20.243  0.00  0.00    +0.000 A 
ATOM      6  C   UNL     1       2.145   3.273  21.332  0.00  0.00    +0.000 C 
ATOM      7  C   UNL     1       3.828   3.621  19.406  0.00  0.00    +0.000 A 
ATOM      8  C   UNL     1       1.340   6.198  20.808  0.00  0.00    +0.000 C 
ATOM      9  O   UNL     1       1.401   7.505  20.215  0.00  0.00    +0.000 OA
ATOM     10  C   UNL     1       2.349   7.582  19.232  0.00  0.00    +0.000 C 
ATOM     11  O   UNL     1       2.618   8.578  18.594  0.00  0.00    +0.000 OA
ENDROOT
BRANCH   7  12
ATOM     12  C   UNL     1       4.401   2.256  19.645  0.00  0.00    +0.000 C 
ATOM     13  N   UNL     1       4.019   1.240  18.816  0.00  0.00    +0.000 N 
ATOM     14  O   UNL     1       5.196   2.045  20.552  0.00  0.00    +0.000 OA
ATOM     15  H   UNL     1       3.432   1.354  18.002  0.00  0.00    +0.000 HD
ATOM     16  H   UNL     1       4.439   0.332  18.978  0.00  0.00    +0.000 HD
ENDBRANCH   7  12
BRANCH   2  17
ATOM     17  O   UNL     1       4.540   6.716  17.466  0.00  0.00    +0.000 OA
ATOM     18  H   UNL     1       4.133   7.587  17.577  0.00  0.00    +0.000 HD
ENDBRANCH   2  17
BRANCH   1  19
ATOM     19  C   UNL     1       5.549   3.986  17.503  0.00  0.00    +0.000 C 
BRANCH  19  22
ATOM     20  C   UNL     1       7.154   4.971  15.047  0.00  0.00    +0.000 C 
ATOM     21  C   UNL     1       5.820   4.280  14.969  0.00  0.00    +0.000 C 
ATOM     22  C   UNL     1       5.157   3.828  16.052  0.00  0.00    +0.000 C 
BRANCH  21  23
ATOM     23  C   UNL     1       5.288   4.149  13.544  0.00  0.00    +0.000 C 
BRANCH  23  24
ATOM     24  C   UNL     1       6.172   3.362  12.573  0.00  0.00    +0.000 C 
BRANCH  24  25
ATOM     25  C   UNL     1       5.353   2.492  11.651  0.00  0.00    +0.000 C 
ATOM     26  O   UNL     1       4.289   2.805  11.143  0.00  0.00    +0.000 OA
BRANCH  25  27
ATOM     27  O   UNL     1       5.937   1.289  11.433  0.00  0.00    +0.000 OA
ATOM     28  H   UNL     1       6.096   1.091  10.490  0.00  0.00    +0.000 HD
ENDBRANCH  25  27
ENDBRANCH  24  25
ENDBRANCH  23  24
ENDBRANCH  21  23
ENDBRANCH  19  22
ENDBRANCH   1  19
TORSDOF 8
ENDMDL
MODEL 3
REMARK VINA RESULT:      -7.3      3.407      7.472
REMARK  Name = 
REMARK  10 active torsions:
REMARK  status: ('A' for Active; 'I' for Inactive)
REMARK    1  A    between atoms: C_1  and  C_2
REMARK    2  A    between atoms: C_2  and  C_20
REMARK    3  A    between atoms: C_3  and  C_4
REMARK    4  A    between atoms: C_4  and  C_5
REMARK    5  A    between atoms: C_6  and  O_7
REMARK    6  A    between atoms: C_10  and  C_11
REMARK    7  A    between atoms: C_12  and  C_13
REMARK    8  A    between atoms: C_20  and  C_21
REMARK    9  A    between atoms: C_21  and  C_22
REMARK   10  A    between atoms: C_22  and  O_24
REMARK                            x       y       z     vdW  Elec       q    Type
REMARK                         _______ _______ _______ _____ _____    ______ ____
ROOT
ATOM      1  C   UNL     1       3.348   6.466  18.073  0.00  0.00    +0.000 A 
ATOM      2  C   UNL     1       2.565   5.639  18.908  0.00  0.00    +0.000 A 
ATOM      3  C   UNL     1       2.636   4.261  18.770  0.00  0.00    +0.000 A 
ATOM      4  C   UNL     1       3.480   3.664  17.857  0.00  0.00    +0.000 A 
ATOM      5  C   UNL     1       4.307   4.420  17.021  0.00  0.00    +0.000 A 
ATOM      6  C   UNL     1       5.262   3.705  16.102  0.00  0.00    +0.000 C 
ATOM      7  C   UNL     1       4.240   5.840  17.134  0.00  0.00    +0.000 A 
ATOM      8  C   UNL     1       3.364   2.195  17.998  0.00  0.00    +0.000 C 
ATOM      9  O   UNL     1       2.395   2.022  19.043  0.00  0.00    +0.000 OA
ATOM     10  C   UNL     1       1.949   3.217  19.537  0.00  0.00    +0.000 C 
ATOM     11  O   UNL     1       1.149   3.347  20.440  0.00  0.00    +0.000 OA
ENDROOT
BRANCH   7  12
ATOM     12  C   UNL     1       5.202   6.689  16.359  0.00  0.00    +0.000 C 
ATOM     13  N   UNL     1       6.373   7.052  16.960  0.00  0.00    +0.000 N 
ATOM     14  O   UNL     1       4.960   7.048  15.213  0.00  0.00    +0.000 OA
ATOM     15  H   UNL     1       6.676   6.731  17.868  0.00  0.00    +0.000 HD
ATOM     16  H   UNL     1       7.022   7.603  16.409  0.00  0.00    +0.000 HD
ENDBRANCH   7  12
BRANCH   2  17
ATOM     17  O   UNL     1       1.740   6.134  19.875  0.00  0.00    +0.000 OA
ATOM     18  H   UNL     1       2.139   6.903  20.305  0.00  0.00    +0.000 HD
ENDBRANCH   2  17
BRANCH   1  19
ATOM     19  C   UNL     1       3.245   7.980  18.203  0.00  0.00    +0.000 C 
BRANCH  19  22
ATOM     20  C   UNL     1       1.155   9.613  19.798  0.00  0.00    +0.000 C 
ATOM     21  C   UNL     1       1.028   9.263  18.340  0.00  0.00    +0.000 C 
ATOM     22  C   UNL     1       1.970   8.581  17.659  0.00  0.00    +0.000 C 
BRANCH  21  23
ATOM     23  C   UNL     1      -0.276   9.750  17.711  0.00  0.00    +0.000 C 
BRANCH  23  24
ATOM     24  C   UNL     1      -1.183  10.582  18.621  0.00  0.00    +0.000 C 
BRANCH  24  25
ATOM     25  C   UNL     1      -1.996  11.581  17.835  0.00  0.00    +0.000 C 
ATOM     26  O   UNL     1      -3.201  11.524  17.648  0.00  0.00    +0.000 OA
BRANCH  25  27
ATOM     27  O   UNL     1      -1.232  12.585  17.341  0.00  0.00    +0.000 OA
ATOM     28  H   UNL     1      -0.974  12.463  16.407  0.00  0.00    +0.000 HD
ENDBRANCH  25  27
ENDBRANCH  24  25
ENDBRANCH  23  24
ENDBRANCH  21  23
ENDBRANCH  19  22
ENDBRANCH   1  19
TORSDOF 8
ENDMDL
MODEL 4
REMARK VINA RESULT:      -6.9      1.236      1.388
REMARK  Name = 
REMARK  10 active torsions:
REMARK  status: ('A' for Active; 'I' for Inactive)
REMARK    1  A    between atoms: C_1  and  C_2
REMARK    2  A    between atoms: C_2  and  C_20
REMARK    3  A    between atoms: C_3  and  C_4
REMARK    4  A    between atoms: C_4  and  C_5
REMARK    5  A    between atoms: C_6  and  O_7
REMARK    6  A    between atoms: C_10  and  C_11
REMARK    7  A    between atoms: C_12  and  C_13
REMARK    8  A    between atoms: C_20  and  C_21
REMARK    9  A    between atoms: C_21  and  C_22
REMARK   10  A    between atoms: C_22  and  O_24
REMARK                            x       y       z     vdW  Elec       q    Type
REMARK                         _______ _______ _______ _____ _____    ______ ____
ROOT
ATOM      1  C   UNL     1       4.966   4.429  17.336  0.00  0.00    +0.000 A 
ATOM      2  C   UNL     1       4.135   3.489  17.985  0.00  0.00    +0.000 A 
ATOM      3  C   UNL     1       3.023   3.926  18.687  0.00  0.00    +0.000 A 
ATOM      4  C   UNL     1       2.679   5.260  18.748  0.00  0.00    +0.000 A 
ATOM      5  C   UNL     1       3.437   6.242  18.103  0.00  0.00    +0.000 A 
ATOM      6  C   UNL     1       2.963   7.671  18.142  0.00  0.00    +0.000 C 
ATOM      7  C   UNL     1       4.595   5.818  17.386  0.00  0.00    +0.000 A 
ATOM      8  C   UNL     1       1.422   5.389  19.519  0.00  0.00    +0.000 C 
ATOM      9  O   UNL     1       1.099   4.039  19.885  0.00  0.00    +0.000 OA
ATOM     10  C   UNL     1       2.012   3.141  19.403  0.00  0.00    +0.000 C 
ATOM     11  O   UNL     1       1.957   1.938  19.550  0.00  0.00    +0.000 OA
ENDROOT
BRANCH   7  12
ATOM     12  C   UNL     1       5.361   6.812  16.566  0.00  0.00    +0.000 C 
ATOM     13  N   UNL     1       4.930   7.074  15.297  0.00  0.00    +0.000 N 
ATOM     14  O   UNL     1       6.346   7.387  17.014  0.00  0.00    +0.000 OA
ATOM     15  H   UNL     1       4.086   6.700  14.890  0.00  0.00    +0.000 HD
ATOM     16  H   UNL     1       5.447   7.769  14.770  0.00  0.00    +0.000 HD
ENDBRANCH   7  12
BRANCH   2  17
ATOM     17  O   UNL     1       4.364   2.145  17.939  0.00  0.00    +0.000 OA
ATOM     18  H   UNL     1       4.491   1.789  18.829  0.00  0.00    +0.000 HD
ENDBRANCH   2  17
BRANCH   1  19
ATOM     19  C   UNL     1       6.206   3.952  16.591  0.00  0.00    +0.000 C 
BRANCH  19  22
ATOM     20  C   UNL     1       7.689   5.107  14.132  0.00  0.00    +0.000 C 
ATOM     21  C   UNL     1       6.580   4.091  14.056  0.00  0.00    +0.000 C 
ATOM     22  C   UNL     1       5.974   3.577  15.145  0.00  0.00    +0.000 C 
BRANCH  21  23
ATOM     23  C   UNL     1       6.205   3.708  12.627  0.00  0.00    +0.000 C 
BRANCH  23  24
ATOM     24  C   UNL     1       4.724   3.850  12.267  0.00  0.00    +0.000 C 
BRANCH  24  25
ATOM     25  C   UNL     1       4.306   2.850  11.217  0.00  0.00    +0.000 C 
ATOM     26  O   UNL     1       3.332   2.952  10.490  0.00  0.00    +0.000 OA
BRANCH  25  27
ATOM     27  O   UNL     1       5.150   1.792  11.156  0.00  0.00    +0.000 OA
ATOM     28  H   UNL     1       6.014   1.950  11.582  0.00  0.00    +0.000 HD
ENDBRANCH  25  27
ENDBRANCH  24  25
ENDBRANCH  23  24
ENDBRANCH  21  23
ENDBRANCH  19  22
ENDBRANCH   1  19
TORSDOF 8
ENDMDL
MODEL 5
REMARK VINA RESULT:      -6.9      1.275      1.512
REMARK  Name = 
REMARK  10 active torsions:
REMARK  status: ('A' for Active; 'I' for Inactive)
REMARK    1  A    between atoms: C_1  and  C_2
REMARK    2  A    between atoms: C_2  and  C_20
REMARK    3  A    between atoms: C_3  and  C_4
REMARK    4  A    between atoms: C_4  and  C_5
REMARK    5  A    between atoms: C_6  and  O_7
REMARK    6  A    between atoms: C_10  and  C_11
REMARK    7  A    between atoms: C_12  and  C_13
REMARK    8  A    between atoms: C_20  and  C_21
REMARK    9  A    between atoms: C_21  and  C_22
REMARK   10  A    between atoms: C_22  and  O_24
REMARK                            x       y       z     vdW  Elec       q    Type
REMARK                         _______ _______ _______ _____ _____    ______ ____
ROOT
ATOM      1  C   UNL     1       4.936   4.263  16.909  0.00  0.00    +0.000 A 
ATOM      2  C   UNL     1       4.105   3.313  17.542  0.00  0.00    +0.000 A 
ATOM      3  C   UNL     1       3.043   3.742  18.324  0.00  0.00    +0.000 A 
ATOM      4  C   UNL     1       2.749   5.080  18.480  0.00  0.00    +0.000 A 
ATOM      5  C   UNL     1       3.508   6.074  17.857  0.00  0.00    +0.000 A 
ATOM      6  C   UNL     1       3.087   7.512  18.004  0.00  0.00    +0.000 C 
ATOM      7  C   UNL     1       4.615   5.658  17.060  0.00  0.00    +0.000 A 
ATOM      8  C   UNL     1       1.535   5.202  19.319  0.00  0.00    +0.000 C 
ATOM      9  O   UNL     1       1.184   3.842  19.621  0.00  0.00    +0.000 OA
ATOM     10  C   UNL     1       2.041   2.947  19.042  0.00  0.00    +0.000 C 
ATOM     11  O   UNL     1       1.951   1.739  19.121  0.00  0.00    +0.000 OA
ENDROOT
BRANCH   7  12
ATOM     12  C   UNL     1       5.376   6.675  16.263  0.00  0.00    +0.000 C 
ATOM     13  N   UNL     1       6.489   7.235  16.822  0.00  0.00    +0.000 N 
ATOM     14  O   UNL     1       5.023   6.999  15.136  0.00  0.00    +0.000 OA
ATOM     15  H   UNL     1       6.884   6.961  17.709  0.00  0.00    +0.000 HD
ATOM     16  H   UNL     1       7.003   7.899  16.255  0.00  0.00    +0.000 HD
ENDBRANCH   7  12
BRANCH   2  17
ATOM     17  O   UNL     1       4.284   1.967  17.406  0.00  0.00    +0.000 OA
ATOM     18  H   UNL     1       4.670   1.758  16.544  0.00  0.00    +0.000 HD
ENDBRANCH   2  17
BRANCH   1  19
ATOM     19  C   UNL     1       6.121   3.792  16.076  0.00  0.00    +0.000 C 
BRANCH  19  22
ATOM     20  C   UNL     1       7.634   5.073  13.699  0.00  0.00    +0.000 C 
ATOM     21  C   UNL     1       6.445   4.160  13.558  0.00  0.00    +0.000 C 
ATOM     22  C   UNL     1       5.826   3.586  14.608  0.00  0.00    +0.000 C 
BRANCH  21  23
ATOM     23  C   UNL     1       6.006   3.955  12.110  0.00  0.00    +0.000 C 
BRANCH  23  24
ATOM     24  C   UNL     1       5.135   2.724  11.847  0.00  0.00    +0.000 C 
BRANCH  24  25
ATOM     25  C   UNL     1       3.866   3.084  11.115  0.00  0.00    +0.000 C 
ATOM     26  O   UNL     1       2.860   2.396  11.060  0.00  0.00    +0.000 OA
BRANCH  25  27
ATOM     27  O   UNL     1       3.955   4.290  10.504  0.00  0.00    +0.000 OA
ATOM     28  H   UNL     1       3.122   4.801  10.513  0.00  0.00    +0.000 HD
ENDBRANCH  25  27
ENDBRANCH  24  25
ENDBRANCH  23  24
ENDBRANCH  21  23
ENDBRANCH  19  22
ENDBRANCH   1  19
TORSDOF 8
ENDMDL
MODEL 6
REMARK VINA RESULT:      -6.9      1.050      1.133
REMARK  Name = 
REMARK  10 active torsions:
REMARK  status: ('A' for Active; 'I' for Inactive)
REMARK    1  A    between atoms: C_1  and  C_2
REMARK    2  A    between atoms: C_2  and  C_20
REMARK    3  A    between atoms: C_3  and  C_4
REMARK    4  A    between atoms: C_4  and  C_5
REMARK    5  A    between atoms: C_6  and  O_7
REMARK    6  A    between atoms: C_10  and  C_11
REMARK    7  A    between atoms: C_12  and  C_13
REMARK    8  A    between atoms: C_20  and  C_21
REMARK    9  A    between atoms: C_21  and  C_22
REMARK   10  A    between atoms: C_22  and  O_24
REMARK                            x       y       z     vdW  Elec       q    Type
REMARK                         _______ _______ _______ _____ _____    ______ ____
ROOT
ATOM      1  C   UNL     1       4.814   4.496  17.781  0.00  0.00    +0.000 A 
ATOM      2  C   UNL     1       4.072   3.626  18.611  0.00  0.00    +0.000 A 
ATOM      3  C   UNL     1       3.044   4.132  19.391  0.00  0.00    +0.000 A 
ATOM      4  C   UNL     1       2.697   5.466  19.360  0.00  0.00    +0.000 A 
ATOM      5  C   UNL     1       3.365   6.379  18.538  0.00  0.00    +0.000 A 
ATOM      6  C   UNL     1       2.886   7.805  18.492  0.00  0.00    +0.000 C 
ATOM      7  C   UNL     1       4.437   5.884  17.738  0.00  0.00    +0.000 A 
ATOM      8  C   UNL     1       1.535   5.673  20.255  0.00  0.00    +0.000 C 
ATOM      9  O   UNL     1       1.271   4.366  20.787  0.00  0.00    +0.000 OA
ATOM     10  C   UNL     1       2.130   3.423  20.293  0.00  0.00    +0.000 C 
ATOM     11  O   UNL     1       2.104   2.240  20.563  0.00  0.00    +0.000 OA
ENDROOT
BRANCH   7  12
ATOM     12  C   UNL     1       5.094   6.791  16.741  0.00  0.00    +0.000 C 
ATOM     13  N   UNL     1       6.280   7.375  17.082  0.00  0.00    +0.000 N 
ATOM     14  O   UNL     1       4.595   7.004  15.643  0.00  0.00    +0.000 OA
ATOM     15  H   UNL     1       6.790   7.185  17.933  0.00  0.00    +0.000 HD
ATOM     16  H   UNL     1       6.721   7.963  16.384  0.00  0.00    +0.000 HD
ENDBRANCH   7  12
BRANCH   2  17
ATOM     17  O   UNL     1       4.307   2.283  18.671  0.00  0.00    +0.000 OA
ATOM     18  H   UNL     1       5.235   2.107  18.877  0.00  0.00    +0.000 HD
ENDBRANCH   2  17
BRANCH   1  19
ATOM     19  C   UNL     1       5.963   3.945  16.948  0.00  0.00    +0.000 C 
BRANCH  19  22
ATOM     20  C   UNL     1       7.371   5.123  14.457  0.00  0.00    +0.000 C 
ATOM     21  C   UNL     1       6.195   4.185  14.404  0.00  0.00    +0.000 C 
ATOM     22  C   UNL     1       5.622   3.657  15.504  0.00  0.00    +0.000 C 
BRANCH  21  23
ATOM     23  C   UNL     1       5.712   3.898  12.985  0.00  0.00    +0.000 C 
BRANCH  23  24
ATOM     24  C   UNL     1       6.569   2.921  12.175  0.00  0.00    +0.000 C 
BRANCH  24  25
ATOM     25  C   UNL     1       5.720   1.934  11.412  0.00  0.00    +0.000 C 
ATOM     26  O   UNL     1       4.566   2.115  11.060  0.00  0.00    +0.000 OA
BRANCH  25  27
ATOM     27  O   UNL     1       6.389   0.786  11.145  0.00  0.00    +0.000 OA
ATOM     28  H   UNL     1       6.750   0.740  10.239  0.00  0.00    +0.000 HD
ENDBRANCH  25  27
ENDBRANCH  24  25
ENDBRANCH  23  24
ENDBRANCH  21  23
ENDBRANCH  19  22
ENDBRANCH   1  19
TORSDOF 8
ENDMDL
MODEL 7
REMARK VINA RESULT:      -6.8      1.473      1.634
REMARK  Name = 
REMARK  10 active torsions:
REMARK  status: ('A' for Active; 'I' for Inactive)
REMARK    1  A    between atoms: C_1  and  C_2
REMARK    2  A    between atoms: C_2  and  C_20
REMARK    3  A    between atoms: C_3  and  C_4
REMARK    4  A    between atoms: C_4  and  C_5
REMARK    5  A    between atoms: C_6  and  O_7
REMARK    6  A    between atoms: C_10  and  C_11
REMARK    7  A    between atoms: C_12  and  C_13
REMARK    8  A    between atoms: C_20  and  C_21
REMARK    9  A    between atoms: C_21  and  C_22
REMARK   10  A    between atoms: C_22  and  O_24
REMARK                            x       y       z     vdW  Elec       q    Type
REMARK                         _______ _______ _______ _____ _____    ______ ____
ROOT
ATOM      1  C   UNL     1       5.272   4.781  17.810  0.00  0.00    +0.000 A 
ATOM      2  C   UNL     1       4.619   3.936  18.734  0.00  0.00    +0.000 A 
ATOM      3  C   UNL     1       3.523   4.407  19.440  0.00  0.00    +0.000 A 
ATOM      4  C   UNL     1       3.024   5.678  19.244  0.00  0.00    +0.000 A 
ATOM      5  C   UNL     1       3.600   6.557  18.322  0.00  0.00    +0.000 A 
ATOM      6  C   UNL     1       2.959   7.901  18.100  0.00  0.00    +0.000 C 
ATOM      7  C   UNL     1       4.738   6.100  17.596  0.00  0.00    +0.000 A 
ATOM      8  C   UNL     1       1.827   5.852  20.099  0.00  0.00    +0.000 C 
ATOM      9  O   UNL     1       1.705   4.596  20.784  0.00  0.00    +0.000 OA
ATOM     10  C   UNL     1       2.678   3.709  20.414  0.00  0.00    +0.000 C 
ATOM     11  O   UNL     1       2.784   2.572  20.826  0.00  0.00    +0.000 OA
ENDROOT
BRANCH   7  12
ATOM     12  C   UNL     1       5.307   6.952  16.501  0.00  0.00    +0.000 C 
ATOM     13  N   UNL     1       6.410   7.709  16.777  0.00  0.00    +0.000 N 
ATOM     14  O   UNL     1       4.810   6.972  15.382  0.00  0.00    +0.000 OA
ATOM     15  H   UNL     1       6.919   7.684  17.648  0.00  0.00    +0.000 HD
ATOM     16  H   UNL     1       6.794   8.256  16.016  0.00  0.00    +0.000 HD
ENDBRANCH   7  12
BRANCH   2  17
ATOM     17  O   UNL     1       5.007   2.647  18.959  0.00  0.00    +0.000 OA
ATOM     18  H   UNL     1       4.276   2.035  18.792  0.00  0.00    +0.000 HD
ENDBRANCH   2  17
BRANCH   1  19
ATOM     19  C   UNL     1       6.496   4.273  17.059  0.00  0.00    +0.000 C 
BRANCH  19  22
ATOM     20  C   UNL     1       7.547   5.200  14.299  0.00  0.00    +0.000 C 
ATOM     21  C   UNL     1       6.616   4.035  14.507  0.00  0.00    +0.000 C 
ATOM     22  C   UNL     1       6.201   3.630  15.723  0.00  0.00    +0.000 C 
BRANCH  21  23
ATOM     23  C   UNL     1       6.183   3.365  13.205  0.00  0.00    +0.000 C 
BRANCH  23  24
ATOM     24  C   UNL     1       4.967   3.985  12.511  0.00  0.00    +0.000 C 
BRANCH  24  25
ATOM     25  C   UNL     1       4.461   3.113  11.388  0.00  0.00    +0.000 C 
ATOM     26  O   UNL     1       4.851   1.984  11.137  0.00  0.00    +0.000 OA
BRANCH  25  27
ATOM     27  O   UNL     1       3.497   3.726  10.661  0.00  0.00    +0.000 OA
ATOM     28  H   UNL     1       3.362   4.665  10.894  0.00  0.00    +0.000 HD
ENDBRANCH  25  27
ENDBRANCH  24  25
ENDBRANCH  23  24
ENDBRANCH  21  23
ENDBRANCH  19  22
ENDBRANCH   1  19
TORSDOF 8
ENDMDL
MODEL 8
REMARK VINA RESULT:      -6.8      2.921      7.279
REMARK  Name = 
REMARK  10 active torsions:
REMARK  status: ('A' for Active; 'I' for Inactive)
REMARK    1  A    between atoms: C_1  and  C_2
REMARK    2  A    between atoms: C_2  and  C_20
REMARK    3  A    between atoms: C_3  and  C_4
REMARK    4  A    between atoms: C_4  and  C_5
REMARK    5  A    between atoms: C_6  and  O_7
REMARK    6  A    between atoms: C_10  and  C_11
REMARK    7  A    between atoms: C_12  and  C_13
REMARK    8  A    between atoms: C_20  and  C_21
REMARK    9  A    between atoms: C_21  and  C_22
REMARK   10  A    between atoms: C_22  and  O_24
REMARK                            x       y       z     vdW  Elec       q    Type
REMARK                         _______ _______ _______ _____ _____    ______ ____
ROOT
ATOM      1  C   UNL     1       3.449   6.339  17.937  0.00  0.00    +0.000 A 
ATOM      2  C   UNL     1       2.698   5.497  18.785  0.00  0.00    +0.000 A 
ATOM      3  C   UNL     1       2.826   4.121  18.675  0.00  0.00    +0.000 A 
ATOM      4  C   UNL     1       3.696   3.541  17.776  0.00  0.00    +0.000 A 
ATOM      5  C   UNL     1       4.495   4.314  16.927  0.00  0.00    +0.000 A 
ATOM      6  C   UNL     1       5.481   3.621  16.024  0.00  0.00    +0.000 C 
ATOM      7  C   UNL     1       4.369   5.732  17.012  0.00  0.00    +0.000 A 
ATOM      8  C   UNL     1       3.640   2.071  17.944  0.00  0.00    +0.000 C 
ATOM      9  O   UNL     1       2.675   1.879  18.991  0.00  0.00    +0.000 OA
ATOM     10  C   UNL     1       2.179   3.064  19.460  0.00  0.00    +0.000 C 
ATOM     11  O   UNL     1       1.372   3.179  20.359  0.00  0.00    +0.000 OA
ENDROOT
BRANCH   7  12
ATOM     12  C   UNL     1       5.299   6.604  16.223  0.00  0.00    +0.000 C 
ATOM     13  N   UNL     1       6.467   7.000  16.808  0.00  0.00    +0.000 N 
ATOM     14  O   UNL     1       5.032   6.954  15.080  0.00  0.00    +0.000 OA
ATOM     15  H   UNL     1       6.790   6.688  17.712  0.00  0.00    +0.000 HD
ATOM     16  H   UNL     1       7.094   7.567  16.248  0.00  0.00    +0.000 HD
ENDBRANCH   7  12
BRANCH   2  17
ATOM     17  O   UNL     1       1.850   5.976  19.740  0.00  0.00    +0.000 OA
ATOM     18  H   UNL     1       2.082   5.626  20.612  0.00  0.00    +0.000 HD
ENDBRANCH   2  17
BRANCH   1  19
ATOM     19  C   UNL     1       3.285   7.850  18.037  0.00  0.00    +0.000 C 
BRANCH  19  22
ATOM     20  C   UNL     1       2.328  10.793  17.966  0.00  0.00    +0.000 C 
ATOM     21  C   UNL     1       1.415   9.606  18.119  0.00  0.00    +0.000 C 
ATOM     22  C   UNL     1       1.854   8.331  18.110  0.00  0.00    +0.000 C 
BRANCH  21  23
ATOM     23  C   UNL     1      -0.053   9.987  18.291  0.00  0.00    +0.000 C 
BRANCH  23  24
ATOM     24  C   UNL     1      -0.376  10.855  19.511  0.00  0.00    +0.000 C 
BRANCH  24  25
ATOM     25  C   UNL     1       0.185  10.264  20.781  0.00  0.00    +0.000 C 
ATOM     26  O   UNL     1       1.029  10.784  21.492  0.00  0.00    +0.000 OA
BRANCH  25  27
ATOM     27  O   UNL     1      -0.361   9.057  21.065  0.00  0.00    +0.000 OA
ATOM     28  H   UNL     1       0.261   8.309  20.971  0.00  0.00    +0.000 HD
ENDBRANCH  25  27
ENDBRANCH  24  25
ENDBRANCH  23  24
ENDBRANCH  21  23
ENDBRANCH  19  22
ENDBRANCH   1  19
TORSDOF 8
ENDMDL
MODEL 9
REMARK VINA RESULT:      -6.7      2.970      7.704
REMARK  Name = 
REMARK  10 active torsions:
REMARK  status: ('A' for Active; 'I' for Inactive)
REMARK    1  A    between atoms: C_1  and  C_2
REMARK    2  A    between atoms: C_2  and  C_20
REMARK    3  A    between atoms: C_3  and  C_4
REMARK    4  A    between atoms: C_4  and  C_5
REMARK    5  A    between atoms: C_6  and  O_7
REMARK    6  A    between atoms: C_10  and  C_11
REMARK    7  A    between atoms: C_12  and  C_13
REMARK    8  A    between atoms: C_20  and  C_21
REMARK    9  A    between atoms: C_21  and  C_22
REMARK   10  A    between atoms: C_22  and  O_24
REMARK                            x       y       z     vdW  Elec       q    Type
REMARK                         _______ _______ _______ _____ _____    ______ ____
ROOT
ATOM      1  C   UNL     1       3.389   6.203  17.980  0.00  0.00    +0.000 A 
ATOM      2  C   UNL     1       2.653   5.313  18.794  0.00  0.00    +0.000 A 
ATOM      3  C   UNL     1       2.818   3.945  18.639  0.00  0.00    +0.000 A 
ATOM      4  C   UNL     1       3.712   3.418  17.730  0.00  0.00    +0.000 A 
ATOM      5  C   UNL     1       4.497   4.240  16.916  0.00  0.00    +0.000 A 
ATOM      6  C   UNL     1       5.509   3.604  16.000  0.00  0.00    +0.000 C 
ATOM      7  C   UNL     1       4.333   5.650  17.045  0.00  0.00    +0.000 A 
ATOM      8  C   UNL     1       3.693   1.943  17.850  0.00  0.00    +0.000 C 
ATOM      9  O   UNL     1       2.725   1.691  18.880  0.00  0.00    +0.000 OA
ATOM     10  C   UNL     1       2.193   2.847  19.384  0.00  0.00    +0.000 C 
ATOM     11  O   UNL     1       1.375   2.911  20.277  0.00  0.00    +0.000 OA
ENDROOT
BRANCH   7  12
ATOM     12  C   UNL     1       5.246   6.573  16.294  0.00  0.00    +0.000 C 
ATOM     13  N   UNL     1       6.399   6.978  16.903  0.00  0.00    +0.000 N 
ATOM     14  O   UNL     1       4.979   6.954  15.162  0.00  0.00    +0.000 OA
ATOM     15  H   UNL     1       6.723   6.644  17.799  0.00  0.00    +0.000 HD
ATOM     16  H   UNL     1       7.015   7.579  16.368  0.00  0.00    +0.000 HD
ENDBRANCH   7  12
BRANCH   2  17
ATOM     17  O   UNL     1       1.784   5.738  19.755  0.00  0.00    +0.000 OA
ATOM     18  H   UNL     1       1.385   4.985  20.215  0.00  0.00    +0.000 HD
ENDBRANCH   2  17
BRANCH   1  19
ATOM     19  C   UNL     1       3.183   7.704  18.128  0.00  0.00    +0.000 C 
BRANCH  19  22
ATOM     20  C   UNL     1       1.719  10.431  18.106  0.00  0.00    +0.000 C 
ATOM     21  C   UNL     1       1.387   9.295  19.037  0.00  0.00    +0.000 C 
ATOM     22  C   UNL     1       2.016   8.104  19.002  0.00  0.00    +0.000 C 
BRANCH  21  23
ATOM     23  C   UNL     1       0.274   9.628  20.028  0.00  0.00    +0.000 C 
BRANCH  23  24
ATOM     24  C   UNL     1       0.370   8.939  21.392  0.00  0.00    +0.000 C 
BRANCH  24  25
ATOM     25  C   UNL     1       0.316   9.935  22.525  0.00  0.00    +0.000 C 
ATOM     26  O   UNL     1       0.305   9.656  23.713  0.00  0.00    +0.000 OA
BRANCH  25  27
ATOM     27  O   UNL     1       0.283  11.213  22.079  0.00  0.00    +0.000 OA
ATOM     28  H   UNL     1       0.505  11.876  22.761  0.00  0.00    +0.000 HD
ENDBRANCH  25  27
ENDBRANCH  24  25
ENDBRANCH  23  24
ENDBRANCH  21  23
ENDBRANCH  19  22
ENDBRANCH   1  19
TORSDOF 8
ENDMDL
