MODEL 1
REMARK VINA RESULT:      -7.2      0.000      0.000
REMARK  Name = 
REMARK  2 active torsions:
REMARK  status: ('A' for Active; 'I' for Inactive)
REMARK    1  A    between atoms: C_2  and  C_3
REMARK    2  A    between atoms: C_6  and  C_7
REMARK                            x       y       z     vdW  Elec       q    Type
REMARK                         _______ _______ _______ _____ _____    ______ ____
ROOT
ATOM      1  C   UNL     1       3.283   6.467  18.760  0.00  0.00    +0.000 A 
ATOM      2  C   UNL     1       3.299   7.328  17.677  0.00  0.00    +0.000 A 
ATOM      3  C   UNL     1       2.442   8.409  18.002  0.00  0.00    +0.000 A 
ATOM      4  C   UNL     1       1.959   8.165  19.272  0.00  0.00    +0.000 A 
ATOM      5  O   UNL     1       2.463   6.981  19.721  0.00  0.00    +0.000 OA
ENDROOT
BRANCH   1   7
ATOM      6  O   UNL     1       5.137   5.227  19.479  0.00  0.00    +0.000 OA
ATOM      7  C   UNL     1       4.004   5.230  18.991  0.00  0.00    +0.000 C 
ATOM      8  N   UNL     1       3.474   3.959  18.692  0.00  0.00    +0.000 N 
ATOM      9  C   UNL     1       4.054   2.737  18.950  0.00  0.00    +0.000 A 
ATOM     10  N   UNL     1       3.289   1.763  18.513  0.00  0.00    +0.000 NA
ATOM     11  C   UNL     1       2.231   2.430  17.976  0.00  0.00    +0.000 A 
ATOM     12  N   UNL     1       2.286   3.758  18.057  0.00  0.00    +0.000 NA
ENDBRANCH   1   7
BRANCH   4  13
ATOM     13  C   UNL     1       1.102   8.894  20.204  0.00  0.00    +0.000 A 
ATOM     14  C   UNL     1       0.355   9.998  19.765  0.00  0.00    +0.000 A 
ATOM     15  C   UNL     1      -0.411  10.748  20.662  0.00  0.00    +0.000 A 
ATOM     16  C   UNL     1      -0.444  10.398  22.009  0.00  0.00    +0.000 A 
ATOM     17 CL   UNL     1      -1.357  11.346  23.116  0.00  0.00    +0.000 Cl
ATOM     18  C   UNL     1       0.269   9.292  22.463  0.00  0.00    +0.000 A 
ATOM     19  C   UNL     1       1.035   8.543  21.563  0.00  0.00    +0.000 A 
ENDBRANCH   4  13
TORSDOF 2
ENDMDL
MODEL 2
REMARK VINA RESULT:      -7.2      4.716      5.983
REMARK  Name = 
REMARK  2 active torsions:
REMARK  status: ('A' for Active; 'I' for Inactive)
REMARK    1  A    between atoms: C_2  and  C_3
REMARK    2  A    between atoms: C_6  and  C_7
REMARK                            x       y       z     vdW  Elec       q    Type
REMARK                         _______ _______ _______ _____ _____    ______ ____
ROOT
ATOM      1  C   UNL     1       5.582   5.494  15.744  0.00  0.00    +0.000 A 
ATOM      2  C   UNL     1       5.140   6.779  16.006  0.00  0.00    +0.000 A 
ATOM      3  C   UNL     1       4.214   6.683  17.075  0.00  0.00    +0.000 A 
ATOM      4  C   UNL     1       4.149   5.350  17.425  0.00  0.00    +0.000 A 
ATOM      5  O   UNL     1       4.971   4.632  16.607  0.00  0.00    +0.000 OA
ENDROOT
BRANCH   1   7
ATOM      6  O   UNL     1       7.762   5.250  14.922  0.00  0.00    +0.000 OA
ATOM      7  C   UNL     1       6.560   5.010  14.789  0.00  0.00    +0.000 C 
ATOM      8  N   UNL     1       6.221   4.233  13.663  0.00  0.00    +0.000 N 
ATOM      9  C   UNL     1       7.087   3.669  12.754  0.00  0.00    +0.000 A 
ATOM     10  N   UNL     1       6.423   3.033  11.817  0.00  0.00    +0.000 NA
ATOM     11  C   UNL     1       5.126   3.233  12.181  0.00  0.00    +0.000 A 
ATOM     12  N   UNL     1       4.943   3.949  13.289  0.00  0.00    +0.000 NA
ENDBRANCH   1   7
BRANCH   4  13
ATOM     13  C   UNL     1       3.454   4.592  18.463  0.00  0.00    +0.000 A 
ATOM     14  C   UNL     1       2.314   5.123  19.086  0.00  0.00    +0.000 A 
ATOM     15  C   UNL     1       1.684   4.441  20.131  0.00  0.00    +0.000 A 
ATOM     16  C   UNL     1       2.183   3.215  20.561  0.00  0.00    +0.000 A 
ATOM     17 CL   UNL     1       1.428   2.397  21.871  0.00  0.00    +0.000 Cl
ATOM     18  C   UNL     1       3.297   2.656  19.941  0.00  0.00    +0.000 A 
ATOM     19  C   UNL     1       3.926   3.341  18.895  0.00  0.00    +0.000 A 
ENDBRANCH   4  13
TORSDOF 2
ENDMDL
MODEL 3
REMARK VINA RESULT:      -7.2      0.456      1.197
REMARK  Name = 
REMARK  2 active torsions:
REMARK  status: ('A' for Active; 'I' for Inactive)
REMARK    1  A    between atoms: C_2  and  C_3
REMARK    2  A    between atoms: C_6  and  C_7
REMARK                            x       y       z     vdW  Elec       q    Type
REMARK                         _______ _______ _______ _____ _____    ______ ____
ROOT
ATOM      1  C   UNL     1       3.009   6.537  18.895  0.00  0.00    +0.000 A 
ATOM      2  C   UNL     1       3.067   7.397  17.812  0.00  0.00    +0.000 A 
ATOM      3  C   UNL     1       2.285   8.531  18.149  0.00  0.00    +0.000 A 
ATOM      4  C   UNL     1       1.804   8.316  19.425  0.00  0.00    +0.000 A 
ATOM      5  O   UNL     1       2.236   7.101  19.867  0.00  0.00    +0.000 OA
ENDROOT
BRANCH   1   7
ATOM      6  O   UNL     1       4.836   5.180  19.455  0.00  0.00    +0.000 OA
ATOM      7  C   UNL     1       3.653   5.256  19.116  0.00  0.00    +0.000 C 
ATOM      8  N   UNL     1       2.987   4.022  18.974  0.00  0.00    +0.000 N 
ATOM      9  C   UNL     1       3.494   2.771  19.239  0.00  0.00    +0.000 A 
ATOM     10  N   UNL     1       2.603   1.845  18.971  0.00  0.00    +0.000 NA
ATOM     11  C   UNL     1       1.540   2.572  18.529  0.00  0.00    +0.000 A 
ATOM     12  N   UNL     1       1.713   3.893  18.511  0.00  0.00    +0.000 NA
ENDBRANCH   1   7
BRANCH   4  13
ATOM     13  C   UNL     1       1.007   9.097  20.368  0.00  0.00    +0.000 A 
ATOM     14  C   UNL     1       0.956   8.735  21.722  0.00  0.00    +0.000 A 
ATOM     15  C   UNL     1       0.139   9.430  22.620  0.00  0.00    +0.000 A 
ATOM     16  C   UNL     1      -0.630  10.501  22.174  0.00  0.00    +0.000 A 
ATOM     17 CL   UNL     1      -1.661  11.329  23.273  0.00  0.00    +0.000 Cl
ATOM     18  C   UNL     1      -0.575  10.894  20.840  0.00  0.00    +0.000 A 
ATOM     19  C   UNL     1       0.242  10.197  19.943  0.00  0.00    +0.000 A 
ENDBRANCH   4  13
TORSDOF 2
ENDMDL
MODEL 4
REMARK VINA RESULT:      -7.2      2.433      3.141
REMARK  Name = 
REMARK  2 active torsions:
REMARK  status: ('A' for Active; 'I' for Inactive)
REMARK    1  A    between atoms: C_2  and  C_3
REMARK    2  A    between atoms: C_6  and  C_7
REMARK                            x       y       z     vdW  Elec       q    Type
REMARK                         _______ _______ _______ _____ _____    ______ ____
ROOT
ATOM      1  C   UNL     1       4.404   5.313  19.337  0.00  0.00    +0.000 A 
ATOM      2  C   UNL     1       3.397   4.460  19.755  0.00  0.00    +0.000 A 
ATOM      3  C   UNL     1       2.243   5.259  19.959  0.00  0.00    +0.000 A 
ATOM      4  C   UNL     1       2.596   6.554  19.639  0.00  0.00    +0.000 A 
ATOM      5  O   UNL     1       3.909   6.583  19.275  0.00  0.00    +0.000 OA
ENDROOT
BRANCH   1   7
ATOM      6  O   UNL     1       6.663   4.885  19.785  0.00  0.00    +0.000 OA
ATOM      7  C   UNL     1       5.772   5.035  18.946  0.00  0.00    +0.000 C 
ATOM      8  N   UNL     1       6.182   4.907  17.603  0.00  0.00    +0.000 N 
ATOM      9  C   UNL     1       7.435   4.568  17.147  0.00  0.00    +0.000 A 
ATOM     10  N   UNL     1       7.464   4.567  15.835  0.00  0.00    +0.000 NA
ATOM     11  C   UNL     1       6.191   4.921  15.507  0.00  0.00    +0.000 A 
ATOM     12  N   UNL     1       5.371   5.138  16.534  0.00  0.00    +0.000 NA
ENDBRANCH   1   7
BRANCH   4  13
ATOM     13  C   UNL     1       1.882   7.827  19.570  0.00  0.00    +0.000 A 
ATOM     14  C   UNL     1       1.884   8.578  18.385  0.00  0.00    +0.000 A 
ATOM     15  C   UNL     1       1.267   9.832  18.330  0.00  0.00    +0.000 A 
ATOM     16  C   UNL     1       0.633  10.345  19.457  0.00  0.00    +0.000 A 
ATOM     17 CL   UNL     1      -0.093  11.903  19.395  0.00  0.00    +0.000 Cl
ATOM     18  C   UNL     1       0.595   9.606  20.636  0.00  0.00    +0.000 A 
ATOM     19  C   UNL     1       1.215   8.352  20.690  0.00  0.00    +0.000 A 
ENDBRANCH   4  13
TORSDOF 2
ENDMDL
MODEL 5
REMARK VINA RESULT:      -7.1      3.883      4.608
REMARK  Name = 
REMARK  2 active torsions:
REMARK  status: ('A' for Active; 'I' for Inactive)
REMARK    1  A    between atoms: C_2  and  C_3
REMARK    2  A    between atoms: C_6  and  C_7
REMARK                            x       y       z     vdW  Elec       q    Type
REMARK                         _______ _______ _______ _____ _____    ______ ____
ROOT
ATOM      1  C   UNL     1       5.411   5.084  16.404  0.00  0.00    +0.000 A 
ATOM      2  C   UNL     1       4.857   3.952  16.975  0.00  0.00    +0.000 A 
ATOM      3  C   UNL     1       3.833   4.394  17.849  0.00  0.00    +0.000 A 
ATOM      4  C   UNL     1       3.799   5.771  17.757  0.00  0.00    +0.000 A 
ATOM      5  O   UNL     1       4.766   6.184  16.889  0.00  0.00    +0.000 OA
ENDROOT
BRANCH   1   7
ATOM      6  O   UNL     1       7.465   5.901  15.627  0.00  0.00    +0.000 OA
ATOM      7  C   UNL     1       6.459   5.222  15.411  0.00  0.00    +0.000 C 
ATOM      8  N   UNL     1       6.414   4.596  14.149  0.00  0.00    +0.000 N 
ATOM      9  C   UNL     1       7.394   4.608  13.182  0.00  0.00    +0.000 A 
ATOM     10  N   UNL     1       7.003   3.941  12.121  0.00  0.00    +0.000 NA
ATOM     11  C   UNL     1       5.754   3.528  12.470  0.00  0.00    +0.000 A 
ATOM     12  N   UNL     1       5.345   3.892  13.685  0.00  0.00    +0.000 NA
ENDBRANCH   1   7
BRANCH   4  13
ATOM     13  C   UNL     1       2.959   6.820  18.330  0.00  0.00    +0.000 A 
ATOM     14  C   UNL     1       2.663   7.975  17.590  0.00  0.00    +0.000 A 
ATOM     15  C   UNL     1       1.922   9.018  18.154  0.00  0.00    +0.000 A 
ATOM     16  C   UNL     1       1.462   8.914  19.464  0.00  0.00    +0.000 A 
ATOM     17 CL   UNL     1       0.583  10.214  20.166  0.00  0.00    +0.000 Cl
ATOM     18  C   UNL     1       1.721   7.767  20.208  0.00  0.00    +0.000 A 
ATOM     19  C   UNL     1       2.464   6.725  19.642  0.00  0.00    +0.000 A 
ENDBRANCH   4  13
TORSDOF 2
ENDMDL
MODEL 6
REMARK VINA RESULT:      -7.1      3.983      4.843
REMARK  Name = 
REMARK  2 active torsions:
REMARK  status: ('A' for Active; 'I' for Inactive)
REMARK    1  A    between atoms: C_2  and  C_3
REMARK    2  A    between atoms: C_6  and  C_7
REMARK                            x       y       z     vdW  Elec       q    Type
REMARK                         _______ _______ _______ _____ _____    ______ ____
ROOT
ATOM      1  C   UNL     1       5.390   4.972  16.211  0.00  0.00    +0.000 A 
ATOM      2  C   UNL     1       4.755   3.859  16.733  0.00  0.00    +0.000 A 
ATOM      3  C   UNL     1       3.767   4.335  17.631  0.00  0.00    +0.000 A 
ATOM      4  C   UNL     1       3.835   5.713  17.601  0.00  0.00    +0.000 A 
ATOM      5  O   UNL     1       4.828   6.093  16.748  0.00  0.00    +0.000 OA
ENDROOT
BRANCH   1   7
ATOM      6  O   UNL     1       7.473   5.720  15.441  0.00  0.00    +0.000 OA
ATOM      7  C   UNL     1       6.443   5.078  15.220  0.00  0.00    +0.000 C 
ATOM      8  N   UNL     1       6.379   4.461  13.955  0.00  0.00    +0.000 N 
ATOM      9  C   UNL     1       7.360   4.443  12.990  0.00  0.00    +0.000 A 
ATOM     10  N   UNL     1       6.948   3.796  11.925  0.00  0.00    +0.000 NA
ATOM     11  C   UNL     1       5.684   3.425  12.269  0.00  0.00    +0.000 A 
ATOM     12  N   UNL     1       5.286   3.797  13.485  0.00  0.00    +0.000 NA
ENDBRANCH   1   7
BRANCH   4  13
ATOM     13  C   UNL     1       3.075   6.794  18.225  0.00  0.00    +0.000 A 
ATOM     14  C   UNL     1       2.607   6.663  19.541  0.00  0.00    +0.000 A 
ATOM     15  C   UNL     1       1.816   7.658  20.123  0.00  0.00    +0.000 A 
ATOM     16  C   UNL     1       1.490   8.800  19.397  0.00  0.00    +0.000 A 
ATOM     17 CL   UNL     1       0.487  10.005  20.104  0.00  0.00    +0.000 Cl
ATOM     18  C   UNL     1       1.965   8.964  18.099  0.00  0.00    +0.000 A 
ATOM     19  C   UNL     1       2.755   7.965  17.518  0.00  0.00    +0.000 A 
ENDBRANCH   4  13
TORSDOF 2
ENDMDL
MODEL 7
REMARK VINA RESULT:      -7.1      4.708      5.984
REMARK  Name = 
REMARK  2 active torsions:
REMARK  status: ('A' for Active; 'I' for Inactive)
REMARK    1  A    between atoms: C_2  and  C_3
REMARK    2  A    between atoms: C_6  and  C_7
REMARK                            x       y       z     vdW  Elec       q    Type
REMARK                         _______ _______ _______ _____ _____    ______ ____
ROOT
ATOM      1  C   UNL     1       5.545   5.493  15.736  0.00  0.00    +0.000 A 
ATOM      2  C   UNL     1       5.064   6.780  15.902  0.00  0.00    +0.000 A 
ATOM      3  C   UNL     1       4.166   6.742  16.999  0.00  0.00    +0.000 A 
ATOM      4  C   UNL     1       4.156   5.441  17.458  0.00  0.00    +0.000 A 
ATOM      5  O   UNL     1       4.984   4.686  16.682  0.00  0.00    +0.000 OA
ENDROOT
BRANCH   1   7
ATOM      6  O   UNL     1       7.727   5.148  14.956  0.00  0.00    +0.000 OA
ATOM      7  C   UNL     1       6.518   4.965  14.799  0.00  0.00    +0.000 C 
ATOM      8  N   UNL     1       6.165   4.206  13.665  0.00  0.00    +0.000 N 
ATOM      9  C   UNL     1       7.022   3.603  12.772  0.00  0.00    +0.000 A 
ATOM     10  N   UNL     1       6.347   3.000  11.821  0.00  0.00    +0.000 NA
ATOM     11  C   UNL     1       5.054   3.260  12.160  0.00  0.00    +0.000 A 
ATOM     12  N   UNL     1       4.883   3.983  13.265  0.00  0.00    +0.000 NA
ENDBRANCH   1   7
BRANCH   4  13
ATOM     13  C   UNL     1       3.511   4.749  18.572  0.00  0.00    +0.000 A 
ATOM     14  C   UNL     1       4.116   3.624  19.154  0.00  0.00    +0.000 A 
ATOM     15  C   UNL     1       3.475   2.910  20.170  0.00  0.00    +0.000 A 
ATOM     16  C   UNL     1       2.224   3.318  20.623  0.00  0.00    +0.000 A 
ATOM     17 CL   UNL     1       1.422   2.415  21.847  0.00  0.00    +0.000 Cl
ATOM     18  C   UNL     1       1.616   4.445  20.079  0.00  0.00    +0.000 A 
ATOM     19  C   UNL     1       2.259   5.158  19.061  0.00  0.00    +0.000 A 
ENDBRANCH   4  13
TORSDOF 2
ENDMDL
MODEL 8
REMARK VINA RESULT:      -7.1      2.549      3.384
REMARK  Name = 
REMARK  2 active torsions:
REMARK  status: ('A' for Active; 'I' for Inactive)
REMARK    1  A    between atoms: C_2  and  C_3
REMARK    2  A    between atoms: C_6  and  C_7
REMARK                            x       y       z     vdW  Elec       q    Type
REMARK                         _______ _______ _______ _____ _____    ______ ____
ROOT
ATOM      1  C   UNL     1       4.314   5.037  18.719  0.00  0.00    +0.000 A 
ATOM      2  C   UNL     1       3.224   4.219  18.965  0.00  0.00    +0.000 A 
ATOM      3  C   UNL     1       2.139   5.070  19.292  0.00  0.00    +0.000 A 
ATOM      4  C   UNL     1       2.613   6.364  19.213  0.00  0.00    +0.000 A 
ATOM      5  O   UNL     1       3.934   6.337  18.878  0.00  0.00    +0.000 OA
ENDROOT
BRANCH   1   7
ATOM      6  O   UNL     1       6.510   4.322  19.113  0.00  0.00    +0.000 OA
ATOM      7  C   UNL     1       5.664   4.709  18.304  0.00  0.00    +0.000 C 
ATOM      8  N   UNL     1       6.103   4.795  16.967  0.00  0.00    +0.000 N 
ATOM      9  C   UNL     1       7.336   4.431  16.475  0.00  0.00    +0.000 A 
ATOM     10  N   UNL     1       7.407   4.672  15.187  0.00  0.00    +0.000 NA
ATOM     11  C   UNL     1       6.183   5.200  14.912  0.00  0.00    +0.000 A 
ATOM     12  N   UNL     1       5.352   5.297  15.949  0.00  0.00    +0.000 NA
ENDBRANCH   1   7
BRANCH   4  13
ATOM     13  C   UNL     1       2.014   7.689  19.363  0.00  0.00    +0.000 A 
ATOM     14  C   UNL     1       1.452   8.079  20.587  0.00  0.00    +0.000 A 
ATOM     15  C   UNL     1       0.811   9.314  20.721  0.00  0.00    +0.000 A 
ATOM     16  C   UNL     1       0.732  10.178  19.633  0.00  0.00    +0.000 A 
ATOM     17 CL   UNL     1      -0.089  11.680  19.792  0.00  0.00    +0.000 Cl
ATOM     18  C   UNL     1       1.306   9.824  18.415  0.00  0.00    +0.000 A 
ATOM     19  C   UNL     1       1.946   8.586  18.283  0.00  0.00    +0.000 A 
ENDBRANCH   4  13
TORSDOF 2
ENDMDL
MODEL 9
REMARK VINA RESULT:      -7.0      5.153      6.182
REMARK  Name = 
REMARK  2 active torsions:
REMARK  status: ('A' for Active; 'I' for Inactive)
REMARK    1  A    between atoms: C_2  and  C_3
REMARK    2  A    between atoms: C_6  and  C_7
REMARK                            x       y       z     vdW  Elec       q    Type
REMARK                         _______ _______ _______ _____ _____    ______ ____
ROOT
ATOM      1  C   UNL     1       3.536   3.969  17.567  0.00  0.00    +0.000 A 
ATOM      2  C   UNL     1       4.230   3.272  16.593  0.00  0.00    +0.000 A 
ATOM      3  C   UNL     1       5.455   3.957  16.396  0.00  0.00    +0.000 A 
ATOM      4  C   UNL     1       5.458   5.026  17.269  0.00  0.00    +0.000 A 
ATOM      5  O   UNL     1       4.286   5.035  17.967  0.00  0.00    +0.000 OA
ENDROOT
BRANCH   1   7
ATOM      6  O   UNL     1       1.198   3.805  17.557  0.00  0.00    +0.000 OA
ATOM      7  C   UNL     1       2.253   3.696  18.186  0.00  0.00    +0.000 C 
ATOM      8  N   UNL     1       2.115   3.284  19.527  0.00  0.00    +0.000 N 
ATOM      9  C   UNL     1       0.951   2.930  20.170  0.00  0.00    +0.000 A 
ATOM     10  N   UNL     1       1.192   2.624  21.424  0.00  0.00    +0.000 NA
ATOM     11  C   UNL     1       2.536   2.809  21.525  0.00  0.00    +0.000 A 
ATOM     12  N   UNL     1       3.149   3.205  20.411  0.00  0.00    +0.000 NA
ENDBRANCH   1   7
BRANCH   4  13
ATOM     13  C   UNL     1       6.420   6.069  17.615  0.00  0.00    +0.000 A 
ATOM     14  C   UNL     1       7.428   5.819  18.559  0.00  0.00    +0.000 A 
ATOM     15  C   UNL     1       8.309   6.831  18.953  0.00  0.00    +0.000 A 
ATOM     16  C   UNL     1       8.197   8.104  18.401  0.00  0.00    +0.000 A 
ATOM     17 CL   UNL     1       9.258   9.354  18.915  0.00  0.00    +0.000 Cl
ATOM     18  C   UNL     1       7.222   8.368  17.444  0.00  0.00    +0.000 A 
ATOM     19  C   UNL     1       6.340   7.354  17.051  0.00  0.00    +0.000 A 
ENDBRANCH   4  13
TORSDOF 2
ENDMDL
