MODEL 1
REMARK VINA RESULT:      -6.7      0.000      0.000
REMARK  Name = 
REMARK  1 active torsions:
REMARK  status: ('A' for Active; 'I' for Inactive)
REMARK    1  A    between atoms: C_9  and  C_10
REMARK                            x       y       z     vdW  Elec       q    Type
REMARK                         _______ _______ _______ _____ _____    ______ ____
ROOT
ATOM      1  C   UNL     1       2.160   2.162  18.671  0.00  0.00    +0.000 A 
ATOM      2  C   UNL     1       1.409   3.255  18.239  0.00  0.00    +0.000 A 
ATOM      3  C   UNL     1       2.018   4.499  18.096  0.00  0.00    +0.000 A 
ATOM      4  C   UNL     1       3.374   4.647  18.382  0.00  0.00    +0.000 A 
ATOM      5  C   UNL     1       4.139   3.563  18.844  0.00  0.00    +0.000 A 
ATOM      6  C   UNL     1       3.515   2.318  18.975  0.00  0.00    +0.000 A 
ATOM      7  N   UNL     1       5.480   3.701  19.240  0.00  0.00    +0.000 N 
ATOM      8  C   UNL     1       5.983   5.076  19.163  0.00  0.00    +0.000 C 
ATOM      9  C   UNL     1       5.334   5.888  18.038  0.00  0.00    +0.000 C 
ATOM     10  O   UNL     1       3.907   5.887  18.124  0.00  0.00    +0.000 OA
ATOM     11  H   UNL     1       6.085   3.002  18.817  0.00  0.00    +0.000 HD
ENDROOT
BRANCH   9  12
ATOM     12  C   UNL     1       5.881   5.484  16.661  0.00  0.00    +0.000 C 
ATOM     13  N   UNL     1       6.825   4.579  16.539  0.00  0.00    +0.000 NA
ATOM     14  C   UNL     1       7.065   4.510  15.066  0.00  0.00    +0.000 C 
ATOM     15  C   UNL     1       5.859   5.181  14.406  0.00  0.00    +0.000 C 
ATOM     16  N   UNL     1       5.419   6.031  15.484  0.00  0.00    +0.000 N 
ATOM     17  H   UNL     1       4.467   6.381  15.474  0.00  0.00    +0.000 HD
ENDBRANCH   9  12
TORSDOF 1
ENDMDL
MODEL 2
REMARK VINA RESULT:      -6.4      2.203      4.924
REMARK  Name = 
REMARK  1 active torsions:
REMARK  status: ('A' for Active; 'I' for Inactive)
REMARK    1  A    between atoms: C_9  and  C_10
REMARK                            x       y       z     vdW  Elec       q    Type
REMARK                         _______ _______ _______ _____ _____    ______ ____
ROOT
ATOM      1  C   UNL     1       8.130   6.717  18.706  0.00  0.00    +0.000 A 
ATOM      2  C   UNL     1       7.608   7.471  17.656  0.00  0.00    +0.000 A 
ATOM      3  C   UNL     1       6.423   7.075  17.042  0.00  0.00    +0.000 A 
ATOM      4  C   UNL     1       5.760   5.930  17.481  0.00  0.00    +0.000 A 
ATOM      5  C   UNL     1       6.286   5.143  18.520  0.00  0.00    +0.000 A 
ATOM      6  C   UNL     1       7.474   5.558  19.131  0.00  0.00    +0.000 A 
ATOM      7  N   UNL     1       5.701   3.930  18.916  0.00  0.00    +0.000 N 
ATOM      8  C   UNL     1       4.528   3.549  18.123  0.00  0.00    +0.000 C 
ATOM      9  C   UNL     1       3.735   4.756  17.612  0.00  0.00    +0.000 C 
ATOM     10  O   UNL     1       4.553   5.670  16.878  0.00  0.00    +0.000 OA
ATOM     11  H   UNL     1       5.572   3.869  19.923  0.00  0.00    +0.000 HD
ENDROOT
BRANCH   9  12
ATOM     12  C   UNL     1       2.913   5.409  18.733  0.00  0.00    +0.000 C 
ATOM     13  N   UNL     1       2.616   4.753  19.833  0.00  0.00    +0.000 NA
ATOM     14  C   UNL     1       1.810   5.732  20.623  0.00  0.00    +0.000 C 
ATOM     15  C   UNL     1       2.065   7.102  19.993  0.00  0.00    +0.000 C 
ATOM     16  N   UNL     1       2.449   6.704  18.662  0.00  0.00    +0.000 N 
ATOM     17  H   UNL     1       2.972   7.356  18.087  0.00  0.00    +0.000 HD
ENDBRANCH   9  12
TORSDOF 1
ENDMDL
MODEL 3
REMARK VINA RESULT:      -6.4      1.762      4.755
REMARK  Name = 
REMARK  1 active torsions:
REMARK  status: ('A' for Active; 'I' for Inactive)
REMARK    1  A    between atoms: C_9  and  C_10
REMARK                            x       y       z     vdW  Elec       q    Type
REMARK                         _______ _______ _______ _____ _____    ______ ____
ROOT
ATOM      1  C   UNL     1       6.294   5.278  14.858  0.00  0.00    +0.000 A 
ATOM      2  C   UNL     1       7.345   4.685  15.556  0.00  0.00    +0.000 A 
ATOM      3  C   UNL     1       7.246   4.507  16.934  0.00  0.00    +0.000 A 
ATOM      4  C   UNL     1       6.098   4.920  17.609  0.00  0.00    +0.000 A 
ATOM      5  C   UNL     1       5.041   5.544  16.924  0.00  0.00    +0.000 A 
ATOM      6  C   UNL     1       5.152   5.708  15.540  0.00  0.00    +0.000 A 
ATOM      7  N   UNL     1       3.918   6.064  17.587  0.00  0.00    +0.000 N 
ATOM      8  C   UNL     1       3.974   5.932  19.046  0.00  0.00    +0.000 C 
ATOM      9  C   UNL     1       4.736   4.683  19.503  0.00  0.00    +0.000 C 
ATOM     10  O   UNL     1       6.053   4.621  18.949  0.00  0.00    +0.000 OA
ATOM     11  H   UNL     1       3.043   5.764  17.165  0.00  0.00    +0.000 HD
ENDROOT
BRANCH   9  12
ATOM     12  C   UNL     1       3.907   3.408  19.299  0.00  0.00    +0.000 C 
ATOM     13  N   UNL     1       2.599   3.455  19.181  0.00  0.00    +0.000 NA
ATOM     14  C   UNL     1       2.204   2.022  19.023  0.00  0.00    +0.000 C 
ATOM     15  C   UNL     1       3.484   1.265  18.663  0.00  0.00    +0.000 C 
ATOM     16  N   UNL     1       4.472   2.154  19.220  0.00  0.00    +0.000 N 
ATOM     17  H   UNL     1       5.429   2.093  18.888  0.00  0.00    +0.000 HD
ENDBRANCH   9  12
TORSDOF 1
ENDMDL
MODEL 4
REMARK VINA RESULT:      -6.3      2.058      2.639
REMARK  Name = 
REMARK  1 active torsions:
REMARK  status: ('A' for Active; 'I' for Inactive)
REMARK    1  A    between atoms: C_9  and  C_10
REMARK                            x       y       z     vdW  Elec       q    Type
REMARK                         _______ _______ _______ _____ _____    ______ ____
ROOT
ATOM      1  C   UNL     1       1.438   2.719  21.176  0.00  0.00    +0.000 A 
ATOM      2  C   UNL     1       0.989   2.290  19.928  0.00  0.00    +0.000 A 
ATOM      3  C   UNL     1       1.156   3.108  18.814  0.00  0.00    +0.000 A 
ATOM      4  C   UNL     1       1.774   4.350  18.949  0.00  0.00    +0.000 A 
ATOM      5  C   UNL     1       2.208   4.810  20.204  0.00  0.00    +0.000 A 
ATOM      6  C   UNL     1       2.040   3.973  21.312  0.00  0.00    +0.000 A 
ATOM      7  N   UNL     1       2.739   6.096  20.392  0.00  0.00    +0.000 N 
ATOM      8  C   UNL     1       2.756   6.916  19.177  0.00  0.00    +0.000 C 
ATOM      9  C   UNL     1       2.948   6.089  17.901  0.00  0.00    +0.000 C 
ATOM     10  O   UNL     1       1.977   5.046  17.782  0.00  0.00    +0.000 OA
ATOM     11  H   UNL     1       3.614   6.085  20.911  0.00  0.00    +0.000 HD
ENDROOT
BRANCH   9  12
ATOM     12  C   UNL     1       4.401   5.615  17.747  0.00  0.00    +0.000 C 
ATOM     13  N   UNL     1       5.234   5.624  18.763  0.00  0.00    +0.000 NA
ATOM     14  C   UNL     1       6.512   5.115  18.179  0.00  0.00    +0.000 C 
ATOM     15  C   UNL     1       6.141   4.457  16.849  0.00  0.00    +0.000 C 
ATOM     16  N   UNL     1       4.912   5.151  16.555  0.00  0.00    +0.000 N 
ATOM     17  H   UNL     1       4.261   4.737  15.897  0.00  0.00    +0.000 HD
ENDBRANCH   9  12
TORSDOF 1
ENDMDL
MODEL 5
REMARK VINA RESULT:      -6.3      1.586      2.187
REMARK  Name = 
REMARK  1 active torsions:
REMARK  status: ('A' for Active; 'I' for Inactive)
REMARK    1  A    between atoms: C_9  and  C_10
REMARK                            x       y       z     vdW  Elec       q    Type
REMARK                         _______ _______ _______ _____ _____    ______ ____
ROOT
ATOM      1  C   UNL     1       2.560   5.028  18.671  0.00  0.00    +0.000 A 
ATOM      2  C   UNL     1       2.575   6.333  18.180  0.00  0.00    +0.000 A 
ATOM      3  C   UNL     1       3.768   6.888  17.726  0.00  0.00    +0.000 A 
ATOM      4  C   UNL     1       4.943   6.138  17.762  0.00  0.00    +0.000 A 
ATOM      5  C   UNL     1       4.951   4.831  18.278  0.00  0.00    +0.000 A 
ATOM      6  C   UNL     1       3.743   4.285  18.723  0.00  0.00    +0.000 A 
ATOM      7  N   UNL     1       6.133   4.086  18.424  0.00  0.00    +0.000 N 
ATOM      8  C   UNL     1       7.344   4.811  18.030  0.00  0.00    +0.000 C 
ATOM      9  C   UNL     1       7.098   5.814  16.898  0.00  0.00    +0.000 C 
ATOM     10  O   UNL     1       6.050   6.735  17.210  0.00  0.00    +0.000 OA
ATOM     11  H   UNL     1       6.053   3.148  18.039  0.00  0.00    +0.000 HD
ENDROOT
BRANCH   9  12
ATOM     12  C   UNL     1       6.935   5.110  15.543  0.00  0.00    +0.000 C 
ATOM     13  N   UNL     1       6.003   4.203  15.353  0.00  0.00    +0.000 NA
ATOM     14  C   UNL     1       6.208   3.774  13.937  0.00  0.00    +0.000 C 
ATOM     15  C   UNL     1       7.084   4.848  13.289  0.00  0.00    +0.000 C 
ATOM     16  N   UNL     1       7.735   5.386  14.456  0.00  0.00    +0.000 N 
ATOM     17  H   UNL     1       8.149   6.310  14.405  0.00  0.00    +0.000 HD
ENDBRANCH   9  12
TORSDOF 1
ENDMDL
MODEL 6
REMARK VINA RESULT:      -6.3      0.894      1.091
REMARK  Name = 
REMARK  1 active torsions:
REMARK  status: ('A' for Active; 'I' for Inactive)
REMARK    1  A    between atoms: C_9  and  C_10
REMARK                            x       y       z     vdW  Elec       q    Type
REMARK                         _______ _______ _______ _____ _____    ______ ____
ROOT
ATOM      1  C   UNL     1       2.283   2.888  18.877  0.00  0.00    +0.000 A 
ATOM      2  C   UNL     1       1.627   3.995  18.342  0.00  0.00    +0.000 A 
ATOM      3  C   UNL     1       2.361   5.111  17.949  0.00  0.00    +0.000 A 
ATOM      4  C   UNL     1       3.748   5.116  18.088  0.00  0.00    +0.000 A 
ATOM      5  C   UNL     1       4.423   4.019  18.650  0.00  0.00    +0.000 A 
ATOM      6  C   UNL     1       3.672   2.903  19.033  0.00  0.00    +0.000 A 
ATOM      7  N   UNL     1       5.805   4.033  18.900  0.00  0.00    +0.000 N 
ATOM      8  C   UNL     1       6.458   5.301  18.561  0.00  0.00    +0.000 C 
ATOM      9  C   UNL     1       5.794   6.017  17.380  0.00  0.00    +0.000 C 
ATOM     10  O   UNL     1       4.394   6.221  17.589  0.00  0.00    +0.000 OA
ATOM     11  H   UNL     1       6.274   3.203  18.544  0.00  0.00    +0.000 HD
ENDROOT
BRANCH   9  12
ATOM     12  C   UNL     1       6.138   5.344  16.044  0.00  0.00    +0.000 C 
ATOM     13  N   UNL     1       5.241   4.657  15.374  0.00  0.00    +0.000 NA
ATOM     14  C   UNL     1       5.987   4.172  14.173  0.00  0.00    +0.000 C 
ATOM     15  C   UNL     1       7.257   5.022  14.089  0.00  0.00    +0.000 C 
ATOM     16  N   UNL     1       7.387   5.424  15.467  0.00  0.00    +0.000 N 
ATOM     17  H   UNL     1       7.952   6.236  15.689  0.00  0.00    +0.000 HD
ENDBRANCH   9  12
TORSDOF 1
ENDMDL
MODEL 7
REMARK VINA RESULT:      -6.1      2.064      4.990
REMARK  Name = 
REMARK  1 active torsions:
REMARK  status: ('A' for Active; 'I' for Inactive)
REMARK    1  A    between atoms: C_9  and  C_10
REMARK                            x       y       z     vdW  Elec       q    Type
REMARK                         _______ _______ _______ _____ _____    ______ ____
ROOT
ATOM      1  C   UNL     1       7.872   6.625  18.418  0.00  0.00    +0.000 A 
ATOM      2  C   UNL     1       7.171   7.410  17.505  0.00  0.00    +0.000 A 
ATOM      3  C   UNL     1       5.948   6.968  17.008  0.00  0.00    +0.000 A 
ATOM      4  C   UNL     1       5.428   5.743  17.427  0.00  0.00    +0.000 A 
ATOM      5  C   UNL     1       6.135   4.927  18.326  0.00  0.00    +0.000 A 
ATOM      6  C   UNL     1       7.358   5.390  18.822  0.00  0.00    +0.000 A 
ATOM      7  N   UNL     1       5.691   3.645  18.688  0.00  0.00    +0.000 N 
ATOM      8  C   UNL     1       4.457   3.231  18.013  0.00  0.00    +0.000 C 
ATOM      9  C   UNL     1       3.523   4.405  17.704  0.00  0.00    +0.000 C 
ATOM     10  O   UNL     1       4.176   5.433  16.955  0.00  0.00    +0.000 OA
ATOM     11  H   UNL     1       5.695   3.501  19.695  0.00  0.00    +0.000 HD
ENDROOT
BRANCH   9  12
ATOM     12  C   UNL     1       2.806   4.906  18.966  0.00  0.00    +0.000 C 
ATOM     13  N   UNL     1       2.472   6.169  19.106  0.00  0.00    +0.000 NA
ATOM     14  C   UNL     1       1.831   6.220  20.455  0.00  0.00    +0.000 C 
ATOM     15  C   UNL     1       1.502   4.773  20.825  0.00  0.00    +0.000 C 
ATOM     16  N   UNL     1       2.466   4.075  20.011  0.00  0.00    +0.000 N 
ATOM     17  H   UNL     1       2.309   3.096  19.797  0.00  0.00    +0.000 HD
ENDBRANCH   9  12
TORSDOF 1
ENDMDL
MODEL 8
REMARK VINA RESULT:      -6.1      2.176      3.265
REMARK  Name = 
REMARK  1 active torsions:
REMARK  status: ('A' for Active; 'I' for Inactive)
REMARK    1  A    between atoms: C_9  and  C_10
REMARK                            x       y       z     vdW  Elec       q    Type
REMARK                         _______ _______ _______ _____ _____    ______ ____
ROOT
ATOM      1  C   UNL     1       1.285   3.748  21.321  0.00  0.00    +0.000 A 
ATOM      2  C   UNL     1       2.191   2.750  21.679  0.00  0.00    +0.000 A 
ATOM      3  C   UNL     1       3.099   2.271  20.740  0.00  0.00    +0.000 A 
ATOM      4  C   UNL     1       3.102   2.791  19.446  0.00  0.00    +0.000 A 
ATOM      5  C   UNL     1       2.178   3.777  19.061  0.00  0.00    +0.000 A 
ATOM      6  C   UNL     1       1.277   4.254  20.018  0.00  0.00    +0.000 A 
ATOM      7  N   UNL     1       2.086   4.247  17.740  0.00  0.00    +0.000 N 
ATOM      8  C   UNL     1       3.006   3.588  16.809  0.00  0.00    +0.000 C 
ATOM      9  C   UNL     1       4.316   3.151  17.472  0.00  0.00    +0.000 C 
ATOM     10  O   UNL     1       4.093   2.323  18.617  0.00  0.00    +0.000 OA
ATOM     11  H   UNL     1       2.081   5.263  17.687  0.00  0.00    +0.000 HD
ENDROOT
BRANCH   9  12
ATOM     12  C   UNL     1       5.245   4.345  17.732  0.00  0.00    +0.000 C 
ATOM     13  N   UNL     1       4.965   5.542  17.267  0.00  0.00    +0.000 NA
ATOM     14  C   UNL     1       6.115   6.379  17.724  0.00  0.00    +0.000 C 
ATOM     15  C   UNL     1       6.817   5.576  18.821  0.00  0.00    +0.000 C 
ATOM     16  N   UNL     1       6.409   4.241  18.462  0.00  0.00    +0.000 N 
ATOM     17  H   UNL     1       6.456   3.509  19.163  0.00  0.00    +0.000 HD
ENDBRANCH   9  12
TORSDOF 1
ENDMDL
MODEL 9
REMARK VINA RESULT:      -6.1      2.093      4.455
REMARK  Name = 
REMARK  1 active torsions:
REMARK  status: ('A' for Active; 'I' for Inactive)
REMARK    1  A    between atoms: C_9  and  C_10
REMARK                            x       y       z     vdW  Elec       q    Type
REMARK                         _______ _______ _______ _____ _____    ______ ____
ROOT
ATOM      1  C   UNL     1       7.426   4.963  16.152  0.00  0.00    +0.000 A 
ATOM      2  C   UNL     1       6.480   4.792  15.143  0.00  0.00    +0.000 A 
ATOM      3  C   UNL     1       5.211   4.314  15.458  0.00  0.00    +0.000 A 
ATOM      4  C   UNL     1       4.889   4.012  16.780  0.00  0.00    +0.000 A 
ATOM      5  C   UNL     1       5.838   4.154  17.806  0.00  0.00    +0.000 A 
ATOM      6  C   UNL     1       7.107   4.641  17.475  0.00  0.00    +0.000 A 
ATOM      7  N   UNL     1       5.581   3.761  19.130  0.00  0.00    +0.000 N 
ATOM      8  C   UNL     1       4.258   3.159  19.324  0.00  0.00    +0.000 C 
ATOM      9  C   UNL     1       3.197   3.732  18.379  0.00  0.00    +0.000 C 
ATOM     10  O   UNL     1       3.587   3.636  17.006  0.00  0.00    +0.000 OA
ATOM     11  H   UNL     1       5.825   4.482  19.805  0.00  0.00    +0.000 HD
ENDROOT
BRANCH   9  12
ATOM     12  C   UNL     1       2.753   5.137  18.810  0.00  0.00    +0.000 C 
ATOM     13  N   UNL     1       2.695   5.476  20.078  0.00  0.00    +0.000 NA
ATOM     14  C   UNL     1       2.208   6.888  20.046  0.00  0.00    +0.000 C 
ATOM     15  C   UNL     1       2.411   7.377  18.611  0.00  0.00    +0.000 C 
ATOM     16  N   UNL     1       2.402   6.118  17.909  0.00  0.00    +0.000 N 
ATOM     17  H   UNL     1       2.813   6.070  16.983  0.00  0.00    +0.000 HD
ENDBRANCH   9  12
TORSDOF 1
ENDMDL
