MODEL 1
REMARK VINA RESULT:      -9.3      0.000      0.000
REMARK  Name = 
REMARK  5 active torsions:
REMARK  status: ('A' for Active; 'I' for Inactive)
REMARK    1  A    between atoms: N_8  and  C_9
REMARK    2  A    between atoms: C_9  and  C_10
REMARK    3  A    between atoms: C_15  and  C_16
REMARK    4  A    between atoms: C_16  and  N_17
REMARK    5  A    between atoms: C_20  and  C_21
REMARK                            x       y       z     vdW  Elec       q    Type
REMARK                         _______ _______ _______ _____ _____    ______ ____
ROOT
ATOM      1  C   UNL     1       2.731   4.830  18.377  0.00  0.00    +0.000 A 
ATOM      2  C   UNL     1       1.645   3.937  18.231  0.00  0.00    +0.000 A 
ATOM      3  C   UNL     1       1.761   2.583  18.540  0.00  0.00    +0.000 A 
ATOM      4  C   UNL     1       2.968   2.082  18.999  0.00  0.00    +0.000 A 
ATOM      5  C   UNL     1       4.046   2.943  19.184  0.00  0.00    +0.000 A 
ATOM      6  C   UNL     1       3.950   4.325  18.903  0.00  0.00    +0.000 A 
ENDROOT
BRANCH   1   7
ATOM      7  C   UNL     1       2.511   6.234  17.836  0.00  0.00    +0.000 C 
BRANCH   7  15
ATOM      8  N   UNL     1       0.323   9.649  23.543  0.00  0.00    +0.000 NA
ATOM      9  C   UNL     1       0.656   9.545  22.298  0.00  0.00    +0.000 C 
ATOM     10  N   UNL     1       0.357  10.538  21.435  0.00  0.00    +0.000 N 
ATOM     11  N   UNL     1       1.274   8.419  21.864  0.00  0.00    +0.000 N 
ATOM     12  C   UNL     1       1.625   8.140  20.599  0.00  0.00    +0.000 A 
ATOM     13  N   UNL     1       1.507   9.070  19.593  0.00  0.00    +0.000 NA
ATOM     14  N   UNL     1       1.861   8.480  18.472  0.00  0.00    +0.000 NA
ATOM     15  N   UNL     1       2.261   7.249  18.843  0.00  0.00    +0.000 N 
ATOM     16  N   UNL     1       2.117   6.973  20.156  0.00  0.00    +0.000 NA
ATOM     17  H   UNL     1      -0.173  10.532  23.675  0.00  0.00    +0.000 HD
ATOM     18  H   UNL     1       0.194  11.460  21.813  0.00  0.00    +0.000 HD
ATOM     19  H   UNL     1       0.887  10.556  20.567  0.00  0.00    +0.000 HD
ATOM     20  H   UNL     1       1.376   7.706  22.570  0.00  0.00    +0.000 HD
ENDBRANCH   7  15
ENDBRANCH   1   7
BRANCH   6  21
ATOM     21  C   UNL     1       5.206   5.136  19.170  0.00  0.00    +0.000 C 
BRANCH  21  22
ATOM     22  N   UNL     1       6.173   5.017  18.098  0.00  0.00    +0.000 N 
ATOM     23  N   UNL     1       7.396   4.490  18.293  0.00  0.00    +0.000 NA
ATOM     24  N   UNL     1       7.887   4.315  17.074  0.00  0.00    +0.000 NA
ATOM     25  C   UNL     1       6.933   4.776  16.199  0.00  0.00    +0.000 A 
ATOM     26  N   UNL     1       5.860   5.302  16.820  0.00  0.00    +0.000 NA
BRANCH  25  27
ATOM     27  C   UNL     1       7.042   4.668  14.746  0.00  0.00    +0.000 C 
ATOM     28  N   UNL     1       7.753   5.486  14.044  0.00  0.00    +0.000 NA
ATOM     29  N   UNL     1       6.343   3.640  14.191  0.00  0.00    +0.000 N 
ATOM     30  H   UNL     1       8.206   6.163  14.672  0.00  0.00    +0.000 HD
ATOM     31  H   UNL     1       5.543   3.321  14.732  0.00  0.00    +0.000 HD
ATOM     32  H   UNL     1       6.177   3.753  13.199  0.00  0.00    +0.000 HD
ENDBRANCH  25  27
ENDBRANCH  21  22
ENDBRANCH   6  21
TORSDOF 5
ENDMDL
MODEL 2
REMARK VINA RESULT:      -8.8      1.559      2.120
REMARK  Name = 
REMARK  5 active torsions:
REMARK  status: ('A' for Active; 'I' for Inactive)
REMARK    1  A    between atoms: N_8  and  C_9
REMARK    2  A    between atoms: C_9  and  C_10
REMARK    3  A    between atoms: C_15  and  C_16
REMARK    4  A    between atoms: C_16  and  N_17
REMARK    5  A    between atoms: C_20  and  C_21
REMARK                            x       y       z     vdW  Elec       q    Type
REMARK                         _______ _______ _______ _____ _____    ______ ____
ROOT
ATOM      1  C   UNL     1       3.023   5.779  18.333  0.00  0.00    +0.000 A 
ATOM      2  C   UNL     1       1.736   5.249  18.084  0.00  0.00    +0.000 A 
ATOM      3  C   UNL     1       1.451   3.897  18.265  0.00  0.00    +0.000 A 
ATOM      4  C   UNL     1       2.446   3.035  18.696  0.00  0.00    +0.000 A 
ATOM      5  C   UNL     1       3.714   3.533  18.980  0.00  0.00    +0.000 A 
ATOM      6  C   UNL     1       4.026   4.903  18.830  0.00  0.00    +0.000 A 
ENDROOT
BRANCH   1   7
ATOM      7  C   UNL     1       3.234   7.228  17.924  0.00  0.00    +0.000 C 
BRANCH   7  15
ATOM      8  N   UNL     1      -1.030  12.761  18.406  0.00  0.00    +0.000 NA
ATOM      9  C   UNL     1      -0.408  11.720  18.856  0.00  0.00    +0.000 C 
ATOM     10  N   UNL     1      -0.334  11.503  20.185  0.00  0.00    +0.000 N 
ATOM     11  N   UNL     1       0.195  10.874  17.985  0.00  0.00    +0.000 N 
ATOM     12  C   UNL     1       0.925   9.793  18.301  0.00  0.00    +0.000 A 
ATOM     13  N   UNL     1       1.024   9.340  19.596  0.00  0.00    +0.000 NA
ATOM     14  N   UNL     1       1.854   8.318  19.590  0.00  0.00    +0.000 NA
ATOM     15  N   UNL     1       2.160   8.133  18.292  0.00  0.00    +0.000 N 
ATOM     16  N   UNL     1       1.626   9.036  17.444  0.00  0.00    +0.000 NA
ATOM     17  H   UNL     1      -1.374  13.304  19.199  0.00  0.00    +0.000 HD
ATOM     18  H   UNL     1      -1.026  11.942  20.776  0.00  0.00    +0.000 HD
ATOM     19  H   UNL     1      -0.115  10.552  20.476  0.00  0.00    +0.000 HD
ATOM     20  H   UNL     1       0.152  11.172  17.023  0.00  0.00    +0.000 HD
ENDBRANCH   7  15
ENDBRANCH   1   7
BRANCH   6  21
ATOM     21  C   UNL     1       5.447   5.295  19.194  0.00  0.00    +0.000 C 
BRANCH  21  22
ATOM     22  N   UNL     1       6.365   5.112  18.089  0.00  0.00    +0.000 N 
ATOM     23  N   UNL     1       7.566   4.525  18.248  0.00  0.00    +0.000 NA
ATOM     24  N   UNL     1       8.002   4.309  17.014  0.00  0.00    +0.000 NA
ATOM     25  C   UNL     1       7.041   4.807  16.168  0.00  0.00    +0.000 A 
ATOM     26  N   UNL     1       6.021   5.397  16.819  0.00  0.00    +0.000 NA
BRANCH  25  27
ATOM     27  C   UNL     1       7.090   4.675  14.713  0.00  0.00    +0.000 C 
ATOM     28  N   UNL     1       7.751   5.495  13.967  0.00  0.00    +0.000 NA
ATOM     29  N   UNL     1       6.392   3.621  14.208  0.00  0.00    +0.000 N 
ATOM     30  H   UNL     1       8.215   6.194  14.563  0.00  0.00    +0.000 HD
ATOM     31  H   UNL     1       5.623   3.295  14.788  0.00  0.00    +0.000 HD
ATOM     32  H   UNL     1       6.181   3.713  13.221  0.00  0.00    +0.000 HD
ENDBRANCH  25  27
ENDBRANCH  21  22
ENDBRANCH   6  21
TORSDOF 5
ENDMDL
MODEL 3
REMARK VINA RESULT:      -8.8      0.585      1.126
REMARK  Name = 
REMARK  5 active torsions:
REMARK  status: ('A' for Active; 'I' for Inactive)
REMARK    1  A    between atoms: N_8  and  C_9
REMARK    2  A    between atoms: C_9  and  C_10
REMARK    3  A    between atoms: C_15  and  C_16
REMARK    4  A    between atoms: C_16  and  N_17
REMARK    5  A    between atoms: C_20  and  C_21
REMARK                            x       y       z     vdW  Elec       q    Type
REMARK                         _______ _______ _______ _____ _____    ______ ____
ROOT
ATOM      1  C   UNL     1       2.881   4.947  18.432  0.00  0.00    +0.000 A 
ATOM      2  C   UNL     1       1.681   4.265  18.128  0.00  0.00    +0.000 A 
ATOM      3  C   UNL     1       1.601   2.873  18.147  0.00  0.00    +0.000 A 
ATOM      4  C   UNL     1       2.722   2.124  18.465  0.00  0.00    +0.000 A 
ATOM      5  C   UNL     1       3.909   2.768  18.801  0.00  0.00    +0.000 A 
ATOM      6  C   UNL     1       4.013   4.177  18.815  0.00  0.00    +0.000 A 
ENDROOT
BRANCH   1   7
ATOM      7  C   UNL     1       2.867   6.449  18.199  0.00  0.00    +0.000 C 
BRANCH   7  15
ATOM      8  N   UNL     1       0.088  11.595  22.049  0.00  0.00    +0.000 NA
ATOM      9  C   UNL     1       0.460  10.379  21.816  0.00  0.00    +0.000 C 
ATOM     10  N   UNL     1       0.539   9.492  22.830  0.00  0.00    +0.000 N 
ATOM     11  N   UNL     1       0.802  10.016  20.556  0.00  0.00    +0.000 N 
ATOM     12  C   UNL     1       1.263   8.816  20.170  0.00  0.00    +0.000 A 
ATOM     13  N   UNL     1       1.308   7.746  21.033  0.00  0.00    +0.000 NA
ATOM     14  N   UNL     1       1.866   6.745  20.386  0.00  0.00    +0.000 NA
ATOM     15  N   UNL     1       2.061   7.209  19.138  0.00  0.00    +0.000 N 
ATOM     16  N   UNL     1       1.722   8.502  18.949  0.00  0.00    +0.000 NA
ATOM     17  H   UNL     1      -0.079  11.699  23.052  0.00  0.00    +0.000 HD
ATOM     18  H   UNL     1       0.001   9.678  23.664  0.00  0.00    +0.000 HD
ATOM     19  H   UNL     1       0.535   8.509  22.570  0.00  0.00    +0.000 HD
ATOM     20  H   UNL     1       0.789  10.773  19.890  0.00  0.00    +0.000 HD
ENDBRANCH   7  15
ENDBRANCH   1   7
BRANCH   6  21
ATOM     21  C   UNL     1       5.369   4.731  19.216  0.00  0.00    +0.000 C 
BRANCH  21  22
ATOM     22  N   UNL     1       6.293   4.775  18.102  0.00  0.00    +0.000 N 
ATOM     23  N   UNL     1       7.584   4.417  18.229  0.00  0.00    +0.000 NA
ATOM     24  N   UNL     1       8.039   4.345  16.986  0.00  0.00    +0.000 NA
ATOM     25  C   UNL     1       6.992   4.693  16.166  0.00  0.00    +0.000 A 
ATOM     26  N   UNL     1       5.887   5.050  16.848  0.00  0.00    +0.000 NA
BRANCH  25  27
ATOM     27  C   UNL     1       7.050   4.641  14.707  0.00  0.00    +0.000 C 
ATOM     28  N   UNL     1       7.740   5.482  14.012  0.00  0.00    +0.000 NA
ATOM     29  N   UNL     1       6.325   3.638  14.139  0.00  0.00    +0.000 N 
ATOM     30  H   UNL     1       8.219   6.133  14.650  0.00  0.00    +0.000 HD
ATOM     31  H   UNL     1       5.543   3.302  14.695  0.00  0.00    +0.000 HD
ATOM     32  H   UNL     1       6.125   3.791  13.158  0.00  0.00    +0.000 HD
ENDBRANCH  25  27
ENDBRANCH  21  22
ENDBRANCH   6  21
TORSDOF 5
ENDMDL
MODEL 4
REMARK VINA RESULT:      -8.5      1.632      2.267
REMARK  Name = 
REMARK  5 active torsions:
REMARK  status: ('A' for Active; 'I' for Inactive)
REMARK    1  A    between atoms: N_8  and  C_9
REMARK    2  A    between atoms: C_9  and  C_10
REMARK    3  A    between atoms: C_15  and  C_16
REMARK    4  A    between atoms: C_16  and  N_17
REMARK    5  A    between atoms: C_20  and  C_21
REMARK                            x       y       z     vdW  Elec       q    Type
REMARK                         _______ _______ _______ _____ _____    ______ ____
ROOT
ATOM      1  C   UNL     1       3.111   5.243  18.288  0.00  0.00    +0.000 A 
ATOM      2  C   UNL     1       1.723   4.982  18.231  0.00  0.00    +0.000 A 
ATOM      3  C   UNL     1       1.222   3.684  18.158  0.00  0.00    +0.000 A 
ATOM      4  C   UNL     1       2.095   2.609  18.134  0.00  0.00    +0.000 A 
ATOM      5  C   UNL     1       3.466   2.833  18.222  0.00  0.00    +0.000 A 
ATOM      6  C   UNL     1       4.002   4.136  18.323  0.00  0.00    +0.000 A 
ENDROOT
BRANCH   1   7
ATOM      7  C   UNL     1       3.515   6.705  18.185  0.00  0.00    +0.000 C 
BRANCH   7  15
ATOM      8  N   UNL     1      -0.600  12.369  18.105  0.00  0.00    +0.000 NA
ATOM      9  C   UNL     1      -0.041  11.337  18.648  0.00  0.00    +0.000 C 
ATOM     10  N   UNL     1      -0.059  11.187  19.988  0.00  0.00    +0.000 N 
ATOM     11  N   UNL     1       0.591  10.431  17.863  0.00  0.00    +0.000 N 
ATOM     12  C   UNL     1       1.266   9.348  18.280  0.00  0.00    +0.000 A 
ATOM     13  N   UNL     1       1.267   8.961  19.600  0.00  0.00    +0.000 NA
ATOM     14  N   UNL     1       2.064   7.918  19.699  0.00  0.00    +0.000 NA
ATOM     15  N   UNL     1       2.448   7.657  18.436  0.00  0.00    +0.000 N 
ATOM     16  N   UNL     1       1.998   8.529  17.510  0.00  0.00    +0.000 NA
ATOM     17  H   UNL     1      -0.978  12.963  18.846  0.00  0.00    +0.000 HD
ATOM     18  H   UNL     1      -0.774  11.675  20.509  0.00  0.00    +0.000 HD
ATOM     19  H   UNL     1       0.111  10.248  20.340  0.00  0.00    +0.000 HD
ATOM     20  H   UNL     1       0.619  10.680  16.886  0.00  0.00    +0.000 HD
ENDBRANCH   7  15
ENDBRANCH   1   7
BRANCH   6  21
ATOM     21  C   UNL     1       5.515   4.217  18.426  0.00  0.00    +0.000 C 
BRANCH  21  22
ATOM     22  N   UNL     1       6.113   4.806  17.245  0.00  0.00    +0.000 N 
ATOM     23  N   UNL     1       7.051   5.768  17.323  0.00  0.00    +0.000 NA
ATOM     24  N   UNL     1       7.530   5.874  16.091  0.00  0.00    +0.000 NA
ATOM     25  C   UNL     1       6.829   4.977  15.322  0.00  0.00    +0.000 A 
ATOM     26  N   UNL     1       5.864   4.335  16.009  0.00  0.00    +0.000 NA
BRANCH  25  27
ATOM     27  C   UNL     1       7.122   4.708  13.916  0.00  0.00    +0.000 C 
ATOM     28  N   UNL     1       6.546   3.758  13.259  0.00  0.00    +0.000 NA
ATOM     29  N   UNL     1       8.044   5.537  13.353  0.00  0.00    +0.000 N 
ATOM     30  H   UNL     1       5.876   3.280  13.877  0.00  0.00    +0.000 HD
ATOM     31  H   UNL     1       8.699   5.961  14.004  0.00  0.00    +0.000 HD
ATOM     32  H   UNL     1       8.457   5.165  12.505  0.00  0.00    +0.000 HD
ENDBRANCH  25  27
ENDBRANCH  21  22
ENDBRANCH   6  21
TORSDOF 5
ENDMDL
MODEL 5
REMARK VINA RESULT:      -8.4      0.969      1.053
REMARK  Name = 
REMARK  5 active torsions:
REMARK  status: ('A' for Active; 'I' for Inactive)
REMARK    1  A    between atoms: N_8  and  C_9
REMARK    2  A    between atoms: C_9  and  C_10
REMARK    3  A    between atoms: C_15  and  C_16
REMARK    4  A    between atoms: C_16  and  N_17
REMARK    5  A    between atoms: C_20  and  C_21
REMARK                            x       y       z     vdW  Elec       q    Type
REMARK                         _______ _______ _______ _____ _____    ______ ____
ROOT
ATOM      1  C   UNL     1       3.078   5.065  18.009  0.00  0.00    +0.000 A 
ATOM      2  C   UNL     1       1.713   4.700  17.949  0.00  0.00    +0.000 A 
ATOM      3  C   UNL     1       1.308   3.367  17.960  0.00  0.00    +0.000 A 
ATOM      4  C   UNL     1       2.257   2.359  18.025  0.00  0.00    +0.000 A 
ATOM      5  C   UNL     1       3.606   2.688  18.117  0.00  0.00    +0.000 A 
ATOM      6  C   UNL     1       4.045   4.031  18.134  0.00  0.00    +0.000 A 
ENDROOT
BRANCH   1   7
ATOM      7  C   UNL     1       3.378   6.542  17.810  0.00  0.00    +0.000 C 
BRANCH   7  15
ATOM      8  N   UNL     1      -0.599   9.158  22.944  0.00  0.00    +0.000 NA
ATOM      9  C   UNL     1      -0.046   9.162  21.775  0.00  0.00    +0.000 C 
ATOM     10  N   UNL     1      -0.460  10.038  20.837  0.00  0.00    +0.000 N 
ATOM     11  N   UNL     1       0.924   8.258  21.493  0.00  0.00    +0.000 N 
ATOM     12  C   UNL     1       1.546   8.099  20.314  0.00  0.00    +0.000 A 
ATOM     13  N   UNL     1       1.346   8.968  19.267  0.00  0.00    +0.000 NA
ATOM     14  N   UNL     1       2.033   8.510  18.243  0.00  0.00    +0.000 NA
ATOM     15  N   UNL     1       2.690   7.437  18.722  0.00  0.00    +0.000 N 
ATOM     16  N   UNL     1       2.410   7.121  20.003  0.00  0.00    +0.000 NA
ATOM     17  H   UNL     1      -1.336   9.865  22.959  0.00  0.00    +0.000 HD
ATOM     18  H   UNL     1      -0.933  10.874  21.147  0.00  0.00    +0.000 HD
ATOM     19  H   UNL     1       0.183  10.212  20.067  0.00  0.00    +0.000 HD
ATOM     20  H   UNL     1       1.100   7.596  22.233  0.00  0.00    +0.000 HD
ENDBRANCH   7  15
ENDBRANCH   1   7
BRANCH   6  21
ATOM     21  C   UNL     1       5.546   4.228  18.254  0.00  0.00    +0.000 C 
BRANCH  21  22
ATOM     22  N   UNL     1       6.117   4.816  17.059  0.00  0.00    +0.000 N 
ATOM     23  N   UNL     1       7.032   5.802  17.115  0.00  0.00    +0.000 NA
ATOM     24  N   UNL     1       7.496   5.904  15.877  0.00  0.00    +0.000 NA
ATOM     25  C   UNL     1       6.808   4.980  15.126  0.00  0.00    +0.000 A 
ATOM     26  N   UNL     1       5.867   4.324  15.831  0.00  0.00    +0.000 NA
BRANCH  25  27
ATOM     27  C   UNL     1       7.093   4.701  13.721  0.00  0.00    +0.000 C 
ATOM     28  N   UNL     1       7.897   5.428  13.020  0.00  0.00    +0.000 NA
ATOM     29  N   UNL     1       6.452   3.614  13.209  0.00  0.00    +0.000 N 
ATOM     30  H   UNL     1       8.280   6.175  13.616  0.00  0.00    +0.000 HD
ATOM     31  H   UNL     1       5.587   3.362  13.680  0.00  0.00    +0.000 HD
ATOM     32  H   UNL     1       6.410   3.609  12.197  0.00  0.00    +0.000 HD
ENDBRANCH  25  27
ENDBRANCH  21  22
ENDBRANCH   6  21
TORSDOF 5
ENDMDL
MODEL 6
REMARK VINA RESULT:      -8.4      2.117      3.338
REMARK  Name = 
REMARK  5 active torsions:
REMARK  status: ('A' for Active; 'I' for Inactive)
REMARK    1  A    between atoms: N_8  and  C_9
REMARK    2  A    between atoms: C_9  and  C_10
REMARK    3  A    between atoms: C_15  and  C_16
REMARK    4  A    between atoms: C_16  and  N_17
REMARK    5  A    between atoms: C_20  and  C_21
REMARK                            x       y       z     vdW  Elec       q    Type
REMARK                         _______ _______ _______ _____ _____    ______ ____
ROOT
ATOM      1  C   UNL     1       2.059   6.133  19.795  0.00  0.00    +0.000 A 
ATOM      2  C   UNL     1       1.386   5.113  20.507  0.00  0.00    +0.000 A 
ATOM      3  C   UNL     1       1.084   3.885  19.921  0.00  0.00    +0.000 A 
ATOM      4  C   UNL     1       1.441   3.644  18.604  0.00  0.00    +0.000 A 
ATOM      5  C   UNL     1       2.132   4.617  17.888  0.00  0.00    +0.000 A 
ATOM      6  C   UNL     1       2.475   5.861  18.464  0.00  0.00    +0.000 A 
ENDROOT
BRANCH   1   7
ATOM      7  C   UNL     1       2.162   7.476  20.501  0.00  0.00    +0.000 C 
BRANCH   7  15
ATOM      8  N   UNL     1      -0.912  13.110  17.703  0.00  0.00    +0.000 NA
ATOM      9  C   UNL     1      -0.770  12.168  18.578  0.00  0.00    +0.000 C 
ATOM     10  N   UNL     1      -1.436  12.230  19.749  0.00  0.00    +0.000 N 
ATOM     11  N   UNL     1       0.078  11.142  18.322  0.00  0.00    +0.000 N 
ATOM     12  C   UNL     1       0.377  10.129  19.151  0.00  0.00    +0.000 A 
ATOM     13  N   UNL     1      -0.283   9.953  20.345  0.00  0.00    +0.000 NA
ATOM     14  N   UNL     1       0.277   8.929  20.953  0.00  0.00    +0.000 NA
ATOM     15  N   UNL     1       1.191   8.469  20.078  0.00  0.00    +0.000 N 
ATOM     16  N   UNL     1       1.312   9.191  18.945  0.00  0.00    +0.000 NA
ATOM     17  H   UNL     1      -1.544  13.816  18.084  0.00  0.00    +0.000 HD
ATOM     18  H   UNL     1      -2.267  12.802  19.791  0.00  0.00    +0.000 HD
ATOM     19  H   UNL     1      -1.535  11.355  20.259  0.00  0.00    +0.000 HD
ATOM     20  H   UNL     1       0.588  11.234  17.457  0.00  0.00    +0.000 HD
ENDBRANCH   7  15
ENDBRANCH   1   7
BRANCH   6  21
ATOM     21  C   UNL     1       3.242   6.812  17.561  0.00  0.00    +0.000 C 
BRANCH  21  22
ATOM     22  N   UNL     1       4.592   6.352  17.305  0.00  0.00    +0.000 N 
ATOM     23  N   UNL     1       5.321   6.815  16.273  0.00  0.00    +0.000 NA
ATOM     24  N   UNL     1       6.550   6.374  16.502  0.00  0.00    +0.000 NA
ATOM     25  C   UNL     1       6.490   5.637  17.660  0.00  0.00    +0.000 A 
ATOM     26  N   UNL     1       5.242   5.537  18.157  0.00  0.00    +0.000 NA
BRANCH  25  27
ATOM     27  C   UNL     1       7.660   5.058  18.317  0.00  0.00    +0.000 C 
ATOM     28  N   UNL     1       8.340   4.094  17.792  0.00  0.00    +0.000 NA
ATOM     29  N   UNL     1       7.979   5.613  19.518  0.00  0.00    +0.000 N 
ATOM     30  H   UNL     1       7.931   3.851  16.879  0.00  0.00    +0.000 HD
ATOM     31  H   UNL     1       7.206   6.054  20.009  0.00  0.00    +0.000 HD
ATOM     32  H   UNL     1       8.575   5.026  20.089  0.00  0.00    +0.000 HD
ENDBRANCH  25  27
ENDBRANCH  21  22
ENDBRANCH   6  21
TORSDOF 5
ENDMDL
MODEL 7
REMARK VINA RESULT:      -8.4      2.472      4.507
REMARK  Name = 
REMARK  5 active torsions:
REMARK  status: ('A' for Active; 'I' for Inactive)
REMARK    1  A    between atoms: N_8  and  C_9
REMARK    2  A    between atoms: C_9  and  C_10
REMARK    3  A    between atoms: C_15  and  C_16
REMARK    4  A    between atoms: C_16  and  N_17
REMARK    5  A    between atoms: C_20  and  C_21
REMARK                            x       y       z     vdW  Elec       q    Type
REMARK                         _______ _______ _______ _____ _____    ______ ____
ROOT
ATOM      1  C   UNL     1       4.362   5.849  17.369  0.00  0.00    +0.000 A 
ATOM      2  C   UNL     1       5.105   7.050  17.329  0.00  0.00    +0.000 A 
ATOM      3  C   UNL     1       6.494   7.051  17.207  0.00  0.00    +0.000 A 
ATOM      4  C   UNL     1       7.179   5.850  17.126  0.00  0.00    +0.000 A 
ATOM      5  C   UNL     1       6.472   4.651  17.130  0.00  0.00    +0.000 A 
ATOM      6  C   UNL     1       5.062   4.620  17.228  0.00  0.00    +0.000 A 
ENDROOT
BRANCH   1   7
ATOM      7  C   UNL     1       2.881   5.996  17.682  0.00  0.00    +0.000 C 
BRANCH   7  15
ATOM      8  N   UNL     1       0.520   9.585  23.211  0.00  0.00    +0.000 NA
ATOM      9  C   UNL     1       0.821   9.421  21.964  0.00  0.00    +0.000 C 
ATOM     10  N   UNL     1       0.386  10.307  21.044  0.00  0.00    +0.000 N 
ATOM     11  N   UNL     1       1.545   8.339  21.588  0.00  0.00    +0.000 N 
ATOM     12  C   UNL     1       1.882   8.002  20.334  0.00  0.00    +0.000 A 
ATOM     13  N   UNL     1       1.629   8.834  19.268  0.00  0.00    +0.000 NA
ATOM     14  N   UNL     1       2.009   8.201  18.179  0.00  0.00    +0.000 NA
ATOM     15  N   UNL     1       2.554   7.052  18.622  0.00  0.00    +0.000 N 
ATOM     16  N   UNL     1       2.485   6.865  19.957  0.00  0.00    +0.000 NA
ATOM     17  H   UNL     1      -0.066  10.417  23.299  0.00  0.00    +0.000 HD
ATOM     18  H   UNL     1       0.135  11.232  21.360  0.00  0.00    +0.000 HD
ATOM     19  H   UNL     1       0.882  10.316  20.156  0.00  0.00    +0.000 HD
ATOM     20  H   UNL     1       1.748   7.697  22.340  0.00  0.00    +0.000 HD
ENDBRANCH   7  15
ENDBRANCH   1   7
BRANCH   6  21
ATOM     21  C   UNL     1       4.434   3.237  17.204  0.00  0.00    +0.000 C 
BRANCH  21  22
ATOM     22  N   UNL     1       3.941   2.838  18.506  0.00  0.00    +0.000 N 
ATOM     23  N   UNL     1       4.769   2.594  19.539  0.00  0.00    +0.000 NA
ATOM     24  N   UNL     1       3.973   2.509  20.597  0.00  0.00    +0.000 NA
ATOM     25  C   UNL     1       2.691   2.682  20.135  0.00  0.00    +0.000 A 
ATOM     26  N   UNL     1       2.627   2.816  18.797  0.00  0.00    +0.000 NA
BRANCH  25  27
ATOM     27  C   UNL     1       1.518   2.759  21.003  0.00  0.00    +0.000 C 
ATOM     28  N   UNL     1       1.554   2.418  22.247  0.00  0.00    +0.000 NA
ATOM     29  N   UNL     1       0.387   3.222  20.401  0.00  0.00    +0.000 N 
ATOM     30  H   UNL     1       2.511   2.122  22.486  0.00  0.00    +0.000 HD
ATOM     31  H   UNL     1       0.348   3.087  19.394  0.00  0.00    +0.000 HD
ATOM     32  H   UNL     1      -0.462   2.988  20.902  0.00  0.00    +0.000 HD
ENDBRANCH  25  27
ENDBRANCH  21  22
ENDBRANCH   6  21
TORSDOF 5
ENDMDL
MODEL 8
REMARK VINA RESULT:      -8.4      1.755      2.416
REMARK  Name = 
REMARK  5 active torsions:
REMARK  status: ('A' for Active; 'I' for Inactive)
REMARK    1  A    between atoms: N_8  and  C_9
REMARK    2  A    between atoms: C_9  and  C_10
REMARK    3  A    between atoms: C_15  and  C_16
REMARK    4  A    between atoms: C_16  and  N_17
REMARK    5  A    between atoms: C_20  and  C_21
REMARK                            x       y       z     vdW  Elec       q    Type
REMARK                         _______ _______ _______ _____ _____    ______ ____
ROOT
ATOM      1  C   UNL     1       3.385   5.391  17.775  0.00  0.00    +0.000 A 
ATOM      2  C   UNL     1       2.019   5.057  17.920  0.00  0.00    +0.000 A 
ATOM      3  C   UNL     1       1.578   3.735  17.881  0.00  0.00    +0.000 A 
ATOM      4  C   UNL     1       2.490   2.710  17.691  0.00  0.00    +0.000 A 
ATOM      5  C   UNL     1       3.845   3.005  17.578  0.00  0.00    +0.000 A 
ATOM      6  C   UNL     1       4.325   4.333  17.638  0.00  0.00    +0.000 A 
ENDROOT
BRANCH   1   7
ATOM      7  C   UNL     1       3.696   6.875  17.660  0.00  0.00    +0.000 C 
BRANCH   7  15
ATOM      8  N   UNL     1      -0.411  12.447  18.710  0.00  0.00    +0.000 NA
ATOM      9  C   UNL     1       0.155  11.333  19.040  0.00  0.00    +0.000 C 
ATOM     10  N   UNL     1       0.158  10.933  20.328  0.00  0.00    +0.000 N 
ATOM     11  N   UNL     1       0.773  10.590  18.088  0.00  0.00    +0.000 N 
ATOM     12  C   UNL     1       1.452   9.450  18.284  0.00  0.00    +0.000 A 
ATOM     13  N   UNL     1       1.474   8.821  19.508  0.00  0.00    +0.000 NA
ATOM     14  N   UNL     1       2.271   7.780  19.398  0.00  0.00    +0.000 NA
ATOM     15  N   UNL     1       2.635   7.761  18.102  0.00  0.00    +0.000 N 
ATOM     16  N   UNL     1       2.171   8.791  17.363  0.00  0.00    +0.000 NA
ATOM     17  H   UNL     1      -0.776  12.890  19.555  0.00  0.00    +0.000 HD
ATOM     18  H   UNL     1      -0.548  11.314  20.943  0.00  0.00    +0.000 HD
ATOM     19  H   UNL     1       0.332   9.945  20.495  0.00  0.00    +0.000 HD
ATOM     20  H   UNL     1       0.786  11.018  17.175  0.00  0.00    +0.000 HD
ENDBRANCH   7  15
ENDBRANCH   1   7
BRANCH   6  21
ATOM     21  C   UNL     1       5.830   4.493  17.514  0.00  0.00    +0.000 C 
BRANCH  21  22
ATOM     22  N   UNL     1       6.240   4.772  16.153  0.00  0.00    +0.000 N 
ATOM     23  N   UNL     1       7.323   5.521  15.872  0.00  0.00    +0.000 NA
ATOM     24  N   UNL     1       7.524   5.349  14.573  0.00  0.00    +0.000 NA
ATOM     25  C   UNL     1       6.524   4.517  14.130  0.00  0.00    +0.000 A 
ATOM     26  N   UNL     1       5.643   4.193  15.095  0.00  0.00    +0.000 NA
BRANCH  25  27
ATOM     27  C   UNL     1       6.444   3.997  12.767  0.00  0.00    +0.000 C 
ATOM     28  N   UNL     1       7.392   4.161  11.907  0.00  0.00    +0.000 NA
ATOM     29  N   UNL     1       5.297   3.323  12.475  0.00  0.00    +0.000 N 
ATOM     30  H   UNL     1       8.164   4.677  12.352  0.00  0.00    +0.000 HD
ATOM     31  H   UNL     1       4.491   3.577  13.041  0.00  0.00    +0.000 HD
ATOM     32  H   UNL     1       5.119   3.240  11.481  0.00  0.00    +0.000 HD
ENDBRANCH  25  27
ENDBRANCH  21  22
ENDBRANCH   6  21
TORSDOF 5
ENDMDL
MODEL 9
REMARK VINA RESULT:      -8.2      0.864      1.227
REMARK  Name = 
REMARK  5 active torsions:
REMARK  status: ('A' for Active; 'I' for Inactive)
REMARK    1  A    between atoms: N_8  and  C_9
REMARK    2  A    between atoms: C_9  and  C_10
REMARK    3  A    between atoms: C_15  and  C_16
REMARK    4  A    between atoms: C_16  and  N_17
REMARK    5  A    between atoms: C_20  and  C_21
REMARK                            x       y       z     vdW  Elec       q    Type
REMARK                         _______ _______ _______ _____ _____    ______ ____
ROOT
ATOM      1  C   UNL     1       2.566   4.370  18.448  0.00  0.00    +0.000 A 
ATOM      2  C   UNL     1       1.435   3.542  18.633  0.00  0.00    +0.000 A 
ATOM      3  C   UNL     1       1.557   2.209  19.021  0.00  0.00    +0.000 A 
ATOM      4  C   UNL     1       2.813   1.665  19.230  0.00  0.00    +0.000 A 
ATOM      5  C   UNL     1       3.944   2.464  19.088  0.00  0.00    +0.000 A 
ATOM      6  C   UNL     1       3.850   3.825  18.719  0.00  0.00    +0.000 A 
ENDROOT
BRANCH   1   7
ATOM      7  C   UNL     1       2.292   5.743  17.854  0.00  0.00    +0.000 C 
BRANCH   7  15
ATOM      8  N   UNL     1       0.671   9.680  23.412  0.00  0.00    +0.000 NA
ATOM      9  C   UNL     1       0.981   9.476  22.173  0.00  0.00    +0.000 C 
ATOM     10  N   UNL     1       0.835  10.468  21.270  0.00  0.00    +0.000 N 
ATOM     11  N   UNL     1       1.417   8.252  21.787  0.00  0.00    +0.000 N 
ATOM     12  C   UNL     1       1.717   7.872  20.536  0.00  0.00    +0.000 A 
ATOM     13  N   UNL     1       1.741   8.768  19.493  0.00  0.00    +0.000 NA
ATOM     14  N   UNL     1       1.997   8.086  18.397  0.00  0.00    +0.000 NA
ATOM     15  N   UNL     1       2.204   6.824  18.819  0.00  0.00    +0.000 N 
ATOM     16  N   UNL     1       2.022   6.627  20.141  0.00  0.00    +0.000 NA
ATOM     17  H   UNL     1       0.317  10.633  23.507  0.00  0.00    +0.000 HD
ATOM     18  H   UNL     1       0.818  11.418  21.610  0.00  0.00    +0.000 HD
ATOM     19  H   UNL     1       1.360  10.370  20.404  0.00  0.00    +0.000 HD
ATOM     20  H   UNL     1       1.410   7.561  22.521  0.00  0.00    +0.000 HD
ENDBRANCH   7  15
ENDBRANCH   1   7
BRANCH   6  21
ATOM     21  C   UNL     1       5.170   4.570  18.619  0.00  0.00    +0.000 C 
BRANCH  21  22
ATOM     22  N   UNL     1       5.454   5.000  17.265  0.00  0.00    +0.000 N 
ATOM     23  N   UNL     1       5.578   6.300  16.940  0.00  0.00    +0.000 NA
ATOM     24  N   UNL     1       6.074   6.294  15.710  0.00  0.00    +0.000 NA
ATOM     25  C   UNL     1       6.199   4.975  15.345  0.00  0.00    +0.000 A 
ATOM     26  N   UNL     1       5.739   4.124  16.283  0.00  0.00    +0.000 NA
BRANCH  25  27
ATOM     27  C   UNL     1       6.807   4.531  14.093  0.00  0.00    +0.000 C 
ATOM     28  N   UNL     1       6.359   3.520  13.427  0.00  0.00    +0.000 NA
ATOM     29  N   UNL     1       7.876   5.266  13.681  0.00  0.00    +0.000 N 
ATOM     30  H   UNL     1       5.538   3.134  13.913  0.00  0.00    +0.000 HD
ATOM     31  H   UNL     1       8.375   5.754  14.420  0.00  0.00    +0.000 HD
ATOM     32  H   UNL     1       8.460   4.786  13.007  0.00  0.00    +0.000 HD
ENDBRANCH  25  27
ENDBRANCH  21  22
ENDBRANCH   6  21
TORSDOF 5
ENDMDL
