MODEL 1
REMARK VINA RESULT:      -6.8      0.000      0.000
REMARK  Name = 
REMARK  6 active torsions:
REMARK  status: ('A' for Active; 'I' for Inactive)
REMARK    1  A    between atoms: C_1  and  N_2
REMARK    2  A    between atoms: C_4  and  C_5
REMARK    3  A    between atoms: C_5  and  C_6
REMARK    4  A    between atoms: C_6  and  C_7
REMARK    5  A    between atoms: C_7  and  N_8
REMARK    6  A    between atoms: C_9  and  C_11
REMARK                            x       y       z     vdW  Elec       q    Type
REMARK                         _______ _______ _______ _____ _____    ______ ____
ROOT
ATOM      1  C   UNL     1       2.418   7.106  19.376  0.00  0.00    +0.000 C 
ATOM      2  N   UNL     1       2.847   5.886  18.731  0.00  0.00    +0.000 N 
ATOM      3  C   UNL     1       3.806   5.813  17.757  0.00  0.00    +0.000 A 
ATOM      4  C   UNL     1       3.922   4.499  17.354  0.00  0.00    +0.000 A 
ATOM      5  C   UNL     1       2.988   3.743  18.133  0.00  0.00    +0.000 A 
ATOM      6  C   UNL     1       2.632   2.377  18.182  0.00  0.00    +0.000 A 
ATOM      7  C   UNL     1       1.650   1.948  19.082  0.00  0.00    +0.000 A 
ATOM      8  C   UNL     1       1.021   2.853  19.930  0.00  0.00    +0.000 A 
ATOM      9  C   UNL     1       1.350   4.213  19.901  0.00  0.00    +0.000 A 
ATOM     10  C   UNL     1       2.335   4.633  18.990  0.00  0.00    +0.000 A 
ENDROOT
BRANCH   4  11
ATOM     11  C   UNL     1       4.836   3.980  16.291  0.00  0.00    +0.000 C 
BRANCH  11  12
ATOM     12  C   UNL     1       5.250   5.057  15.286  0.00  0.00    +0.000 C 
BRANCH  12  13
ATOM     13  C   UNL     1       6.767   5.220  15.275  0.00  0.00    +0.000 C 
BRANCH  13  14
ATOM     14  N   UNL     1       7.296   5.317  16.619  0.00  0.00    +0.000 N 
ATOM     15  C   UNL     1       7.449   6.474  17.345  0.00  0.00    +0.000 C 
ATOM     16  N   UNL     1       7.226   7.655  16.863  0.00  0.00    +0.000 NA
ATOM     17  H   UNL     1       7.389   4.445  17.139  0.00  0.00    +0.000 HD
ATOM     18  H   UNL     1       6.906   7.583  15.898  0.00  0.00    +0.000 HD
BRANCH  15  19
ATOM     19  C   UNL     1       7.971   6.404  18.778  0.00  0.00    +0.000 C 
ATOM     20 CL   UNL     1       6.897   5.416  19.792  0.00  0.00    +0.000 Cl
ENDBRANCH  15  19
ENDBRANCH  13  14
ENDBRANCH  12  13
ENDBRANCH  11  12
ENDBRANCH   4  11
TORSDOF 5
ENDMDL
MODEL 2
REMARK VINA RESULT:      -6.6      3.650      4.473
REMARK  Name = 
REMARK  6 active torsions:
REMARK  status: ('A' for Active; 'I' for Inactive)
REMARK    1  A    between atoms: C_1  and  N_2
REMARK    2  A    between atoms: C_4  and  C_5
REMARK    3  A    between atoms: C_5  and  C_6
REMARK    4  A    between atoms: C_6  and  C_7
REMARK    5  A    between atoms: C_7  and  N_8
REMARK    6  A    between atoms: C_9  and  C_11
REMARK                            x       y       z     vdW  Elec       q    Type
REMARK                         _______ _______ _______ _____ _____    ______ ____
ROOT
ATOM      1  C   UNL     1       3.228   7.685  17.701  0.00  0.00    +0.000 C 
ATOM      2  N   UNL     1       3.803   6.387  17.433  0.00  0.00    +0.000 N 
ATOM      3  C   UNL     1       5.047   6.179  16.900  0.00  0.00    +0.000 A 
ATOM      4  C   UNL     1       5.239   4.821  16.753  0.00  0.00    +0.000 A 
ATOM      5  C   UNL     1       4.049   4.180  17.229  0.00  0.00    +0.000 A 
ATOM      6  C   UNL     1       3.634   2.835  17.329  0.00  0.00    +0.000 A 
ATOM      7  C   UNL     1       2.372   2.535  17.853  0.00  0.00    +0.000 A 
ATOM      8  C   UNL     1       1.521   3.550  18.277  0.00  0.00    +0.000 A 
ATOM      9  C   UNL     1       1.904   4.893  18.186  0.00  0.00    +0.000 A 
ATOM     10  C   UNL     1       3.172   5.182  17.654  0.00  0.00    +0.000 A 
ENDROOT
BRANCH   4  11
ATOM     11  C   UNL     1       6.452   4.159  16.183  0.00  0.00    +0.000 C 
BRANCH  11  12
ATOM     12  C   UNL     1       6.748   4.597  14.747  0.00  0.00    +0.000 C 
BRANCH  12  13
ATOM     13  C   UNL     1       5.722   4.003  13.787  0.00  0.00    +0.000 C 
BRANCH  13  14
ATOM     14  N   UNL     1       6.328   3.032  12.902  0.00  0.00    +0.000 N 
ATOM     15  C   UNL     1       5.766   2.522  11.757  0.00  0.00    +0.000 C 
ATOM     16  N   UNL     1       4.555   2.781  11.378  0.00  0.00    +0.000 NA
ATOM     17  H   UNL     1       7.323   2.850  13.034  0.00  0.00    +0.000 HD
ATOM     18  H   UNL     1       4.114   3.422  12.036  0.00  0.00    +0.000 HD
BRANCH  15  19
ATOM     19  C   UNL     1       6.560   1.542  10.896  0.00  0.00    +0.000 C 
ATOM     20 CL   UNL     1       6.115  -0.136  11.277  0.00  0.00    +0.000 Cl
ENDBRANCH  15  19
ENDBRANCH  13  14
ENDBRANCH  12  13
ENDBRANCH  11  12
ENDBRANCH   4  11
TORSDOF 5
ENDMDL
MODEL 3
REMARK VINA RESULT:      -6.6      1.785      1.918
REMARK  Name = 
REMARK  6 active torsions:
REMARK  status: ('A' for Active; 'I' for Inactive)
REMARK    1  A    between atoms: C_1  and  N_2
REMARK    2  A    between atoms: C_4  and  C_5
REMARK    3  A    between atoms: C_5  and  C_6
REMARK    4  A    between atoms: C_6  and  C_7
REMARK    5  A    between atoms: C_7  and  N_8
REMARK    6  A    between atoms: C_9  and  C_11
REMARK                            x       y       z     vdW  Elec       q    Type
REMARK                         _______ _______ _______ _____ _____    ______ ____
ROOT
ATOM      1  C   UNL     1       1.937   7.011  20.375  0.00  0.00    +0.000 C 
ATOM      2  N   UNL     1       2.445   6.025  19.448  0.00  0.00    +0.000 N 
ATOM      3  C   UNL     1       3.453   6.245  18.550  0.00  0.00    +0.000 A 
ATOM      4  C   UNL     1       3.640   5.094  17.812  0.00  0.00    +0.000 A 
ATOM      5  C   UNL     1       2.697   4.132  18.299  0.00  0.00    +0.000 A 
ATOM      6  C   UNL     1       2.392   2.797  17.952  0.00  0.00    +0.000 A 
ATOM      7  C   UNL     1       1.384   2.116  18.642  0.00  0.00    +0.000 A 
ATOM      8  C   UNL     1       0.678   2.738  19.665  0.00  0.00    +0.000 A 
ATOM      9  C   UNL     1       0.956   4.061  20.027  0.00  0.00    +0.000 A 
ATOM     10  C   UNL     1       1.969   4.737  19.325  0.00  0.00    +0.000 A 
ENDROOT
BRANCH   4  11
ATOM     11  C   UNL     1       4.626   4.908  16.704  0.00  0.00    +0.000 C 
BRANCH  11  12
ATOM     12  C   UNL     1       5.303   6.215  16.285  0.00  0.00    +0.000 C 
BRANCH  12  13
ATOM     13  C   UNL     1       6.704   6.303  16.882  0.00  0.00    +0.000 C 
BRANCH  13  14
ATOM     14  N   UNL     1       7.135   7.678  17.016  0.00  0.00    +0.000 N 
ATOM     15  C   UNL     1       8.021   8.159  17.950  0.00  0.00    +0.000 C 
ATOM     16  N   UNL     1       8.511   7.439  18.908  0.00  0.00    +0.000 NA
ATOM     17  H   UNL     1       6.910   8.306  16.245  0.00  0.00    +0.000 HD
ATOM     18  H   UNL     1       8.160   6.485  18.841  0.00  0.00    +0.000 HD
BRANCH  15  19
ATOM     19  C   UNL     1       8.419   9.633  17.926  0.00  0.00    +0.000 C 
ATOM     20 CL   UNL     1       9.271  10.081  19.419  0.00  0.00    +0.000 Cl
ENDBRANCH  15  19
ENDBRANCH  13  14
ENDBRANCH  12  13
ENDBRANCH  11  12
ENDBRANCH   4  11
TORSDOF 5
ENDMDL
MODEL 4
REMARK VINA RESULT:      -6.4      1.024      1.088
REMARK  Name = 
REMARK  6 active torsions:
REMARK  status: ('A' for Active; 'I' for Inactive)
REMARK    1  A    between atoms: C_1  and  N_2
REMARK    2  A    between atoms: C_4  and  C_5
REMARK    3  A    between atoms: C_5  and  C_6
REMARK    4  A    between atoms: C_6  and  C_7
REMARK    5  A    between atoms: C_7  and  N_8
REMARK    6  A    between atoms: C_9  and  C_11
REMARK                            x       y       z     vdW  Elec       q    Type
REMARK                         _______ _______ _______ _____ _____    ______ ____
ROOT
ATOM      1  C   UNL     1       2.497   7.933  18.393  0.00  0.00    +0.000 C 
ATOM      2  N   UNL     1       3.030   6.593  18.294  0.00  0.00    +0.000 N 
ATOM      3  C   UNL     1       3.813   6.138  17.268  0.00  0.00    +0.000 A 
ATOM      4  C   UNL     1       4.100   4.807  17.492  0.00  0.00    +0.000 A 
ATOM      5  C   UNL     1       3.459   4.447  18.722  0.00  0.00    +0.000 A 
ATOM      6  C   UNL     1       3.370   3.251  19.466  0.00  0.00    +0.000 A 
ATOM      7  C   UNL     1       2.643   3.231  20.661  0.00  0.00    +0.000 A 
ATOM      8  C   UNL     1       2.006   4.377  21.125  0.00  0.00    +0.000 A 
ATOM      9  C   UNL     1       2.074   5.575  20.406  0.00  0.00    +0.000 A 
ATOM     10  C   UNL     1       2.804   5.583  19.205  0.00  0.00    +0.000 A 
ENDROOT
BRANCH   4  11
ATOM     11  C   UNL     1       4.907   3.918  16.603  0.00  0.00    +0.000 C 
BRANCH  11  12
ATOM     12  C   UNL     1       5.412   4.632  15.348  0.00  0.00    +0.000 C 
BRANCH  12  13
ATOM     13  C   UNL     1       6.928   4.796  15.403  0.00  0.00    +0.000 C 
BRANCH  13  14
ATOM     14  N   UNL     1       7.380   5.060  16.753  0.00  0.00    +0.000 N 
ATOM     15  C   UNL     1       7.452   6.293  17.354  0.00  0.00    +0.000 C 
ATOM     16  N   UNL     1       7.212   7.405  16.735  0.00  0.00    +0.000 NA
ATOM     17  H   UNL     1       7.477   4.253  17.369  0.00  0.00    +0.000 HD
ATOM     18  H   UNL     1       6.948   7.216  15.770  0.00  0.00    +0.000 HD
BRANCH  15  19
ATOM     19  C   UNL     1       7.899   6.400  18.810  0.00  0.00    +0.000 C 
ATOM     20 CL   UNL     1       6.933   5.327  19.846  0.00  0.00    +0.000 Cl
ENDBRANCH  15  19
ENDBRANCH  13  14
ENDBRANCH  12  13
ENDBRANCH  11  12
ENDBRANCH   4  11
TORSDOF 5
ENDMDL
MODEL 5
REMARK VINA RESULT:      -6.3      1.172      1.241
REMARK  Name = 
REMARK  6 active torsions:
REMARK  status: ('A' for Active; 'I' for Inactive)
REMARK    1  A    between atoms: C_1  and  N_2
REMARK    2  A    between atoms: C_4  and  C_5
REMARK    3  A    between atoms: C_5  and  C_6
REMARK    4  A    between atoms: C_6  and  C_7
REMARK    5  A    between atoms: C_7  and  N_8
REMARK    6  A    between atoms: C_9  and  C_11
REMARK                            x       y       z     vdW  Elec       q    Type
REMARK                         _______ _______ _______ _____ _____    ______ ____
ROOT
ATOM      1  C   UNL     1       2.367   7.445  19.074  0.00  0.00    +0.000 C 
ATOM      2  N   UNL     1       2.810   6.111  18.740  0.00  0.00    +0.000 N 
ATOM      3  C   UNL     1       3.752   5.816  17.792  0.00  0.00    +0.000 A 
ATOM      4  C   UNL     1       3.890   4.445  17.722  0.00  0.00    +0.000 A 
ATOM      5  C   UNL     1       2.986   3.889  18.685  0.00  0.00    +0.000 A 
ATOM      6  C   UNL     1       2.661   2.572  19.077  0.00  0.00    +0.000 A 
ATOM      7  C   UNL     1       1.705   2.362  20.077  0.00  0.00    +0.000 A 
ATOM      8  C   UNL     1       1.072   3.437  20.690  0.00  0.00    +0.000 A 
ATOM      9  C   UNL     1       1.371   4.753  20.320  0.00  0.00    +0.000 A 
ATOM     10  C   UNL     1       2.330   4.952  19.311  0.00  0.00    +0.000 A 
ENDROOT
BRANCH   4  11
ATOM     11  C   UNL     1       4.795   3.696  16.799  0.00  0.00    +0.000 C 
BRANCH  11  12
ATOM     12  C   UNL     1       5.004   4.410  15.462  0.00  0.00    +0.000 C 
BRANCH  12  13
ATOM     13  C   UNL     1       6.467   4.808  15.295  0.00  0.00    +0.000 C 
BRANCH  13  14
ATOM     14  N   UNL     1       6.717   6.133  15.819  0.00  0.00    +0.000 N 
ATOM     15  C   UNL     1       7.339   6.428  17.008  0.00  0.00    +0.000 C 
ATOM     16  N   UNL     1       7.696   5.530  17.869  0.00  0.00    +0.000 NA
ATOM     17  H   UNL     1       6.590   6.912  15.174  0.00  0.00    +0.000 HD
ATOM     18  H   UNL     1       7.468   4.601  17.519  0.00  0.00    +0.000 HD
BRANCH  15  19
ATOM     19  C   UNL     1       7.579   7.886  17.395  0.00  0.00    +0.000 C 
ATOM     20 CL   UNL     1       8.615   7.993  18.836  0.00  0.00    +0.000 Cl
ENDBRANCH  15  19
ENDBRANCH  13  14
ENDBRANCH  12  13
ENDBRANCH  11  12
ENDBRANCH   4  11
TORSDOF 5
ENDMDL
MODEL 6
REMARK VINA RESULT:      -6.3      3.173      3.881
REMARK  Name = 
REMARK  6 active torsions:
REMARK  status: ('A' for Active; 'I' for Inactive)
REMARK    1  A    between atoms: C_1  and  N_2
REMARK    2  A    between atoms: C_4  and  C_5
REMARK    3  A    between atoms: C_5  and  C_6
REMARK    4  A    between atoms: C_6  and  C_7
REMARK    5  A    between atoms: C_7  and  N_8
REMARK    6  A    between atoms: C_9  and  C_11
REMARK                            x       y       z     vdW  Elec       q    Type
REMARK                         _______ _______ _______ _____ _____    ______ ____
ROOT
ATOM      1  C   UNL     1       2.245   7.564  19.060  0.00  0.00    +0.000 C 
ATOM      2  N   UNL     1       2.977   6.335  18.860  0.00  0.00    +0.000 N 
ATOM      3  C   UNL     1       3.876   6.116  17.850  0.00  0.00    +0.000 A 
ATOM      4  C   UNL     1       4.346   4.824  17.955  0.00  0.00    +0.000 A 
ATOM      5  C   UNL     1       3.700   4.238  19.091  0.00  0.00    +0.000 A 
ATOM      6  C   UNL     1       3.751   2.965  19.699  0.00  0.00    +0.000 A 
ATOM      7  C   UNL     1       2.970   2.705  20.830  0.00  0.00    +0.000 A 
ATOM      8  C   UNL     1       2.144   3.687  21.364  0.00  0.00    +0.000 A 
ATOM      9  C   UNL     1       2.070   4.957  20.781  0.00  0.00    +0.000 A 
ATOM     10  C   UNL     1       2.856   5.206  19.642  0.00  0.00    +0.000 A 
ENDROOT
BRANCH   4  11
ATOM     11  C   UNL     1       5.325   4.165  17.037  0.00  0.00    +0.000 C 
BRANCH  11  12
ATOM     12  C   UNL     1       5.603   4.987  15.776  0.00  0.00    +0.000 C 
BRANCH  12  13
ATOM     13  C   UNL     1       6.618   4.272  14.889  0.00  0.00    +0.000 C 
BRANCH  13  14
ATOM     14  N   UNL     1       5.963   3.511  13.847  0.00  0.00    +0.000 N 
ATOM     15  C   UNL     1       6.326   3.479  12.521  0.00  0.00    +0.000 C 
ATOM     16  N   UNL     1       7.258   4.222  12.018  0.00  0.00    +0.000 NA
ATOM     17  H   UNL     1       5.298   2.799  14.148  0.00  0.00    +0.000 HD
ATOM     18  H   UNL     1       7.678   4.796  12.747  0.00  0.00    +0.000 HD
BRANCH  15  19
ATOM     19  C   UNL     1       5.565   2.577  11.551  0.00  0.00    +0.000 C 
ATOM     20 CL   UNL     1       6.620   1.287  10.933  0.00  0.00    +0.000 Cl
ENDBRANCH  15  19
ENDBRANCH  13  14
ENDBRANCH  12  13
ENDBRANCH  11  12
ENDBRANCH   4  11
TORSDOF 5
ENDMDL
MODEL 7
REMARK VINA RESULT:      -6.3      2.066      3.279
REMARK  Name = 
REMARK  6 active torsions:
REMARK  status: ('A' for Active; 'I' for Inactive)
REMARK    1  A    between atoms: C_1  and  N_2
REMARK    2  A    between atoms: C_4  and  C_5
REMARK    3  A    between atoms: C_5  and  C_6
REMARK    4  A    between atoms: C_6  and  C_7
REMARK    5  A    between atoms: C_7  and  N_8
REMARK    6  A    between atoms: C_9  and  C_11
REMARK                            x       y       z     vdW  Elec       q    Type
REMARK                         _______ _______ _______ _____ _____    ______ ____
ROOT
ATOM      1  C   UNL     1       3.884   1.387  18.065  0.00  0.00    +0.000 C 
ATOM      2  N   UNL     1       3.629   2.808  18.129  0.00  0.00    +0.000 N 
ATOM      3  C   UNL     1       4.135   3.733  17.256  0.00  0.00    +0.000 A 
ATOM      4  C   UNL     1       3.709   4.985  17.650  0.00  0.00    +0.000 A 
ATOM      5  C   UNL     1       2.901   4.800  18.818  0.00  0.00    +0.000 A 
ATOM      6  C   UNL     1       2.202   5.678  19.675  0.00  0.00    +0.000 A 
ATOM      7  C   UNL     1       1.487   5.163  20.762  0.00  0.00    +0.000 A 
ATOM      8  C   UNL     1       1.457   3.795  21.007  0.00  0.00    +0.000 A 
ATOM      9  C   UNL     1       2.143   2.901  20.177  0.00  0.00    +0.000 A 
ATOM     10  C   UNL     1       2.861   3.430  19.090  0.00  0.00    +0.000 A 
ENDROOT
BRANCH   4  11
ATOM     11  C   UNL     1       4.054   6.280  16.989  0.00  0.00    +0.000 C 
BRANCH  11  12
ATOM     12  C   UNL     1       5.027   7.127  17.812  0.00  0.00    +0.000 C 
BRANCH  12  13
ATOM     13  C   UNL     1       6.464   6.866  17.370  0.00  0.00    +0.000 C 
BRANCH  13  14
ATOM     14  N   UNL     1       6.514   6.351  16.018  0.00  0.00    +0.000 N 
ATOM     15  C   UNL     1       7.097   5.171  15.624  0.00  0.00    +0.000 C 
ATOM     16  N   UNL     1       7.775   4.408  16.421  0.00  0.00    +0.000 NA
ATOM     17  H   UNL     1       5.910   6.805  15.333  0.00  0.00    +0.000 HD
ATOM     18  H   UNL     1       7.783   4.804  17.359  0.00  0.00    +0.000 HD
BRANCH  15  19
ATOM     19  C   UNL     1       7.016   4.738  14.162  0.00  0.00    +0.000 C 
ATOM     20 CL   UNL     1       5.468   3.932  13.828  0.00  0.00    +0.000 Cl
ENDBRANCH  15  19
ENDBRANCH  13  14
ENDBRANCH  12  13
ENDBRANCH  11  12
ENDBRANCH   4  11
TORSDOF 5
ENDMDL
MODEL 8
REMARK VINA RESULT:      -6.2      2.319      2.914
REMARK  Name = 
REMARK  6 active torsions:
REMARK  status: ('A' for Active; 'I' for Inactive)
REMARK    1  A    between atoms: C_1  and  N_2
REMARK    2  A    between atoms: C_4  and  C_5
REMARK    3  A    between atoms: C_5  and  C_6
REMARK    4  A    between atoms: C_6  and  C_7
REMARK    5  A    between atoms: C_7  and  N_8
REMARK    6  A    between atoms: C_9  and  C_11
REMARK                            x       y       z     vdW  Elec       q    Type
REMARK                         _______ _______ _______ _____ _____    ______ ____
ROOT
ATOM      1  C   UNL     1       1.893   6.871  20.281  0.00  0.00    +0.000 C 
ATOM      2  N   UNL     1       2.443   5.948  19.314  0.00  0.00    +0.000 N 
ATOM      3  C   UNL     1       3.436   6.251  18.423  0.00  0.00    +0.000 A 
ATOM      4  C   UNL     1       3.675   5.142  17.638  0.00  0.00    +0.000 A 
ATOM      5  C   UNL     1       2.781   4.117  18.088  0.00  0.00    +0.000 A 
ATOM      6  C   UNL     1       2.538   2.784  17.689  0.00  0.00    +0.000 A 
ATOM      7  C   UNL     1       1.566   2.028  18.353  0.00  0.00    +0.000 A 
ATOM      8  C   UNL     1       0.836   2.575  19.402  0.00  0.00    +0.000 A 
ATOM      9  C   UNL     1       1.052   3.893  19.817  0.00  0.00    +0.000 A 
ATOM     10  C   UNL     1       2.029   4.645  19.140  0.00  0.00    +0.000 A 
ENDROOT
BRANCH   4  11
ATOM     11  C   UNL     1       4.663   5.048  16.521  0.00  0.00    +0.000 C 
BRANCH  11  12
ATOM     12  C   UNL     1       6.028   5.636  16.885  0.00  0.00    +0.000 C 
BRANCH  12  13
ATOM     13  C   UNL     1       7.142   4.873  16.174  0.00  0.00    +0.000 C 
BRANCH  13  14
ATOM     14  N   UNL     1       6.729   4.446  14.854  0.00  0.00    +0.000 N 
ATOM     15  C   UNL     1       7.325   4.801  13.668  0.00  0.00    +0.000 C 
ATOM     16  N   UNL     1       8.288   5.661  13.581  0.00  0.00    +0.000 NA
ATOM     17  H   UNL     1       6.063   3.676  14.810  0.00  0.00    +0.000 HD
ATOM     18  H   UNL     1       8.538   6.000  14.509  0.00  0.00    +0.000 HD
BRANCH  15  19
ATOM     19  C   UNL     1       6.803   4.219  12.356  0.00  0.00    +0.000 C 
ATOM     20 CL   UNL     1       5.254   3.385  12.609  0.00  0.00    +0.000 Cl
ENDBRANCH  15  19
ENDBRANCH  13  14
ENDBRANCH  12  13
ENDBRANCH  11  12
ENDBRANCH   4  11
TORSDOF 5
ENDMDL
MODEL 9
REMARK VINA RESULT:      -6.2      2.363      3.623
REMARK  Name = 
REMARK  6 active torsions:
REMARK  status: ('A' for Active; 'I' for Inactive)
REMARK    1  A    between atoms: C_1  and  N_2
REMARK    2  A    between atoms: C_4  and  C_5
REMARK    3  A    between atoms: C_5  and  C_6
REMARK    4  A    between atoms: C_6  and  C_7
REMARK    5  A    between atoms: C_7  and  N_8
REMARK    6  A    between atoms: C_9  and  C_11
REMARK                            x       y       z     vdW  Elec       q    Type
REMARK                         _______ _______ _______ _____ _____    ______ ____
ROOT
ATOM      1  C   UNL     1       3.629   1.472  18.202  0.00  0.00    +0.000 C 
ATOM      2  N   UNL     1       3.619   2.916  18.136  0.00  0.00    +0.000 N 
ATOM      3  C   UNL     1       4.286   3.659  17.201  0.00  0.00    +0.000 A 
ATOM      4  C   UNL     1       4.076   4.996  17.472  0.00  0.00    +0.000 A 
ATOM      5  C   UNL     1       3.233   5.056  18.629  0.00  0.00    +0.000 A 
ATOM      6  C   UNL     1       2.684   6.113  19.387  0.00  0.00    +0.000 A 
ATOM      7  C   UNL     1       1.878   5.826  20.494  0.00  0.00    +0.000 A 
ATOM      8  C   UNL     1       1.611   4.511  20.856  0.00  0.00    +0.000 A 
ATOM      9  C   UNL     1       2.145   3.443  20.126  0.00  0.00    +0.000 A 
ATOM     10  C   UNL     1       2.957   3.742  19.018  0.00  0.00    +0.000 A 
ENDROOT
BRANCH   4  11
ATOM     11  C   UNL     1       4.645   6.149  16.711  0.00  0.00    +0.000 C 
BRANCH  11  12
ATOM     12  C   UNL     1       6.120   6.401  17.028  0.00  0.00    +0.000 C 
BRANCH  12  13
ATOM     13  C   UNL     1       6.969   5.211  16.590  0.00  0.00    +0.000 C 
BRANCH  13  14
ATOM     14  N   UNL     1       7.374   5.335  15.206  0.00  0.00    +0.000 N 
ATOM     15  C   UNL     1       6.957   4.537  14.167  0.00  0.00    +0.000 C 
ATOM     16  N   UNL     1       6.211   3.491  14.326  0.00  0.00    +0.000 NA
ATOM     17  H   UNL     1       7.860   6.193  14.946  0.00  0.00    +0.000 HD
ATOM     18  H   UNL     1       5.974   3.378  15.310  0.00  0.00    +0.000 HD
BRANCH  15  19
ATOM     19  C   UNL     1       7.434   4.833  12.747  0.00  0.00    +0.000 C 
ATOM     20 CL   UNL     1       8.730   6.050  12.759  0.00  0.00    +0.000 Cl
ENDBRANCH  15  19
ENDBRANCH  13  14
ENDBRANCH  12  13
ENDBRANCH  11  12
ENDBRANCH   4  11
TORSDOF 5
ENDMDL
