MODEL 1
REMARK VINA RESULT:      -6.9      0.000      0.000
REMARK  Name = 
REMARK  2 active torsions:
REMARK  status: ('A' for Active; 'I' for Inactive)
REMARK    1  A    between atoms: C_1  and  C_9
REMARK    2  A    between atoms: C_2  and  C_3
REMARK                            x       y       z     vdW  Elec       q    Type
REMARK                         _______ _______ _______ _____ _____    ______ ____
ROOT
ATOM      1  C   UNL     1       2.573   6.517  18.214  0.00  0.00    +0.000 C 
ATOM      2  C   UNL     1       3.757   6.885  17.699  0.00  0.00    +0.000 C 
ENDROOT
BRANCH   2   3
ATOM      3  C   UNL     1       4.970   6.089  17.517  0.00  0.00    +0.000 A 
ATOM      4  C   UNL     1       5.422   5.748  16.243  0.00  0.00    +0.000 A 
ATOM      5  C   UNL     1       6.523   4.904  16.108  0.00  0.00    +0.000 A 
ATOM      6  C   UNL     1       7.142   4.438  17.258  0.00  0.00    +0.000 A 
ATOM      7  N   UNL     1       6.743   4.759  18.507  0.00  0.00    +0.000 NA
ATOM      8  C   UNL     1       5.664   5.571  18.607  0.00  0.00    +0.000 A 
ENDBRANCH   2   3
BRANCH   1   9
ATOM      9  C   UNL     1       2.100   5.215  18.717  0.00  0.00    +0.000 A 
ATOM     10  C   UNL     1       1.873   5.086  20.096  0.00  0.00    +0.000 A 
ATOM     11  C   UNL     1       1.323   3.917  20.630  0.00  0.00    +0.000 A 
ATOM     12  C   UNL     1       0.989   2.859  19.789  0.00  0.00    +0.000 A 
ATOM     13  C   UNL     1       1.208   2.972  18.419  0.00  0.00    +0.000 A 
ATOM     14  C   UNL     1       1.753   4.145  17.886  0.00  0.00    +0.000 A 
ENDBRANCH   1   9
TORSDOF 2
ENDMDL
MODEL 2
REMARK VINA RESULT:      -6.8      0.922      1.354
REMARK  Name = 
REMARK  2 active torsions:
REMARK  status: ('A' for Active; 'I' for Inactive)
REMARK    1  A    between atoms: C_1  and  C_9
REMARK    2  A    between atoms: C_2  and  C_3
REMARK                            x       y       z     vdW  Elec       q    Type
REMARK                         _______ _______ _______ _____ _____    ______ ____
ROOT
ATOM      1  C   UNL     1       2.583   6.676  18.364  0.00  0.00    +0.000 C 
ATOM      2  C   UNL     1       3.694   7.046  17.706  0.00  0.00    +0.000 C 
ENDROOT
BRANCH   2   3
ATOM      3  C   UNL     1       4.811   6.220  17.251  0.00  0.00    +0.000 A 
ATOM      4  C   UNL     1       5.564   5.468  18.152  0.00  0.00    +0.000 A 
ATOM      5  C   UNL     1       6.684   4.772  17.699  0.00  0.00    +0.000 A 
ATOM      6  C   UNL     1       7.005   4.845  16.353  0.00  0.00    +0.000 A 
ATOM      7  N   UNL     1       6.292   5.550  15.448  0.00  0.00    +0.000 NA
ATOM      8  C   UNL     1       5.217   6.224  15.920  0.00  0.00    +0.000 A 
ENDBRANCH   2   3
BRANCH   1   9
ATOM      9  C   UNL     1       2.114   5.350  18.801  0.00  0.00    +0.000 A 
ATOM     10  C   UNL     1       1.887   5.151  20.172  0.00  0.00    +0.000 A 
ATOM     11  C   UNL     1       1.340   3.956  20.647  0.00  0.00    +0.000 A 
ATOM     12  C   UNL     1       1.009   2.940  19.754  0.00  0.00    +0.000 A 
ATOM     13  C   UNL     1       1.229   3.122  18.391  0.00  0.00    +0.000 A 
ATOM     14  C   UNL     1       1.771   4.322  17.917  0.00  0.00    +0.000 A 
ENDBRANCH   1   9
TORSDOF 2
ENDMDL
MODEL 3
REMARK VINA RESULT:      -6.7      0.188      1.297
REMARK  Name = 
REMARK  2 active torsions:
REMARK  status: ('A' for Active; 'I' for Inactive)
REMARK    1  A    between atoms: C_1  and  C_9
REMARK    2  A    between atoms: C_2  and  C_3
REMARK                            x       y       z     vdW  Elec       q    Type
REMARK                         _______ _______ _______ _____ _____    ______ ____
ROOT
ATOM      1  C   UNL     1       2.523   6.544  18.260  0.00  0.00    +0.000 C 
ATOM      2  C   UNL     1       3.698   6.892  17.710  0.00  0.00    +0.000 C 
ENDROOT
BRANCH   2   3
ATOM      3  C   UNL     1       4.895   6.077  17.504  0.00  0.00    +0.000 A 
ATOM      4  C   UNL     1       5.301   5.708  16.222  0.00  0.00    +0.000 A 
ATOM      5  C   UNL     1       6.388   4.848  16.067  0.00  0.00    +0.000 A 
ATOM      6  C   UNL     1       7.038   4.396  17.205  0.00  0.00    +0.000 A 
ATOM      7  N   UNL     1       6.684   4.744  18.460  0.00  0.00    +0.000 NA
ATOM      8  C   UNL     1       5.618   5.571  18.579  0.00  0.00    +0.000 A 
ENDBRANCH   2   3
BRANCH   1   9
ATOM      9  C   UNL     1       2.047   5.254  18.787  0.00  0.00    +0.000 A 
ATOM     10  C   UNL     1       1.795   4.221  17.871  0.00  0.00    +0.000 A 
ATOM     11  C   UNL     1       1.445   2.940  18.305  0.00  0.00    +0.000 A 
ATOM     12  C   UNL     1       1.345   2.671  19.667  0.00  0.00    +0.000 A 
ATOM     13  C   UNL     1       1.592   3.685  20.589  0.00  0.00    +0.000 A 
ATOM     14  C   UNL     1       1.948   4.965  20.152  0.00  0.00    +0.000 A 
ENDBRANCH   1   9
TORSDOF 2
ENDMDL
MODEL 4
REMARK VINA RESULT:      -6.6      0.916      1.859
REMARK  Name = 
REMARK  2 active torsions:
REMARK  status: ('A' for Active; 'I' for Inactive)
REMARK    1  A    between atoms: C_1  and  C_9
REMARK    2  A    between atoms: C_2  and  C_3
REMARK                            x       y       z     vdW  Elec       q    Type
REMARK                         _______ _______ _______ _____ _____    ______ ____
ROOT
ATOM      1  C   UNL     1       2.557   6.802  18.319  0.00  0.00    +0.000 C 
ATOM      2  C   UNL     1       3.690   7.116  17.670  0.00  0.00    +0.000 C 
ENDROOT
BRANCH   2   3
ATOM      3  C   UNL     1       4.803   6.248  17.288  0.00  0.00    +0.000 A 
ATOM      4  C   UNL     1       5.483   5.490  18.240  0.00  0.00    +0.000 A 
ATOM      5  C   UNL     1       6.602   4.752  17.858  0.00  0.00    +0.000 A 
ATOM      6  C   UNL     1       6.995   4.790  16.530  0.00  0.00    +0.000 A 
ATOM      7  N   UNL     1       6.353   5.499  15.577  0.00  0.00    +0.000 NA
ATOM      8  C   UNL     1       5.277   6.215  15.980  0.00  0.00    +0.000 A 
ENDBRANCH   2   3
BRANCH   1   9
ATOM      9  C   UNL     1       2.053   5.509  18.814  0.00  0.00    +0.000 A 
ATOM     10  C   UNL     1       1.780   4.505  17.873  0.00  0.00    +0.000 A 
ATOM     11  C   UNL     1       1.403   3.221  18.276  0.00  0.00    +0.000 A 
ATOM     12  C   UNL     1       1.296   2.922  19.631  0.00  0.00    +0.000 A 
ATOM     13  C   UNL     1       1.564   3.907  20.578  0.00  0.00    +0.000 A 
ATOM     14  C   UNL     1       1.947   5.190  20.172  0.00  0.00    +0.000 A 
ENDBRANCH   1   9
TORSDOF 2
ENDMDL
MODEL 5
REMARK VINA RESULT:      -6.6      1.574      5.177
REMARK  Name = 
REMARK  2 active torsions:
REMARK  status: ('A' for Active; 'I' for Inactive)
REMARK    1  A    between atoms: C_1  and  C_9
REMARK    2  A    between atoms: C_2  and  C_3
REMARK                            x       y       z     vdW  Elec       q    Type
REMARK                         _______ _______ _______ _____ _____    ______ ____
ROOT
ATOM      1  C   UNL     1       3.723   6.826  17.778  0.00  0.00    +0.000 C 
ATOM      2  C   UNL     1       2.523   6.517  18.297  0.00  0.00    +0.000 C 
ENDROOT
BRANCH   2   3
ATOM      3  C   UNL     1       1.995   5.208  18.677  0.00  0.00    +0.000 A 
ATOM      4  C   UNL     1       1.782   4.880  20.016  0.00  0.00    +0.000 A 
ATOM      5  C   UNL     1       1.373   3.589  20.349  0.00  0.00    +0.000 A 
ATOM      6  C   UNL     1       1.179   2.674  19.326  0.00  0.00    +0.000 A 
ATOM      7  N   UNL     1       1.359   2.960  18.019  0.00  0.00    +0.000 NA
ATOM      8  C   UNL     1       1.768   4.217  17.727  0.00  0.00    +0.000 A 
ENDBRANCH   2   3
BRANCH   1   9
ATOM      9  C   UNL     1       4.887   5.980  17.462  0.00  0.00    +0.000 A 
ATOM     10  C   UNL     1       5.129   5.671  16.115  0.00  0.00    +0.000 A 
ATOM     11  C   UNL     1       6.273   4.964  15.731  0.00  0.00    +0.000 A 
ATOM     12  C   UNL     1       7.194   4.559  16.692  0.00  0.00    +0.000 A 
ATOM     13  C   UNL     1       6.967   4.858  18.034  0.00  0.00    +0.000 A 
ATOM     14  C   UNL     1       5.825   5.570  18.415  0.00  0.00    +0.000 A 
ENDBRANCH   1   9
TORSDOF 2
ENDMDL
MODEL 6
REMARK VINA RESULT:      -6.5      1.604      5.100
REMARK  Name = 
REMARK  2 active torsions:
REMARK  status: ('A' for Active; 'I' for Inactive)
REMARK    1  A    between atoms: C_1  and  C_9
REMARK    2  A    between atoms: C_2  and  C_3
REMARK                            x       y       z     vdW  Elec       q    Type
REMARK                         _______ _______ _______ _____ _____    ______ ____
ROOT
ATOM      1  C   UNL     1       3.840   6.923  17.599  0.00  0.00    +0.000 C 
ATOM      2  C   UNL     1       2.670   6.678  18.211  0.00  0.00    +0.000 C 
ENDROOT
BRANCH   2   3
ATOM      3  C   UNL     1       2.165   5.421  18.761  0.00  0.00    +0.000 A 
ATOM      4  C   UNL     1       1.783   4.372  17.925  0.00  0.00    +0.000 A 
ATOM      5  C   UNL     1       1.212   3.226  18.479  0.00  0.00    +0.000 A 
ATOM      6  C   UNL     1       1.053   3.168  19.854  0.00  0.00    +0.000 A 
ATOM      7  N   UNL     1       1.424   4.156  20.696  0.00  0.00    +0.000 NA
ATOM      8  C   UNL     1       1.965   5.260  20.129  0.00  0.00    +0.000 A 
ENDBRANCH   2   3
BRANCH   1   9
ATOM      9  C   UNL     1       4.988   6.043  17.321  0.00  0.00    +0.000 A 
ATOM     10  C   UNL     1       5.255   5.713  15.982  0.00  0.00    +0.000 A 
ATOM     11  C   UNL     1       6.389   4.973  15.634  0.00  0.00    +0.000 A 
ATOM     12  C   UNL     1       7.275   4.554  16.621  0.00  0.00    +0.000 A 
ATOM     13  C   UNL     1       7.024   4.873  17.954  0.00  0.00    +0.000 A 
ATOM     14  C   UNL     1       5.892   5.619  18.300  0.00  0.00    +0.000 A 
ENDBRANCH   1   9
TORSDOF 2
ENDMDL
MODEL 7
REMARK VINA RESULT:      -6.5      1.589      4.861
REMARK  Name = 
REMARK  2 active torsions:
REMARK  status: ('A' for Active; 'I' for Inactive)
REMARK    1  A    between atoms: C_1  and  C_9
REMARK    2  A    between atoms: C_2  and  C_3
REMARK                            x       y       z     vdW  Elec       q    Type
REMARK                         _______ _______ _______ _____ _____    ______ ____
ROOT
ATOM      1  C   UNL     1       3.972   7.208  17.485  0.00  0.00    +0.000 C 
ATOM      2  C   UNL     1       2.841   6.948  18.161  0.00  0.00    +0.000 C 
ENDROOT
BRANCH   2   3
ATOM      3  C   UNL     1       2.351   5.671  18.677  0.00  0.00    +0.000 A 
ATOM      4  C   UNL     1       1.945   4.654  17.813  0.00  0.00    +0.000 A 
ATOM      5  C   UNL     1       1.389   3.488  18.338  0.00  0.00    +0.000 A 
ATOM      6  C   UNL     1       1.268   3.377  19.715  0.00  0.00    +0.000 A 
ATOM      7  N   UNL     1       1.664   4.333  20.583  0.00  0.00    +0.000 NA
ATOM      8  C   UNL     1       2.189   5.458  20.043  0.00  0.00    +0.000 A 
ENDBRANCH   2   3
BRANCH   1   9
ATOM      9  C   UNL     1       5.083   6.328  17.083  0.00  0.00    +0.000 A 
ATOM     10  C   UNL     1       5.978   5.903  18.078  0.00  0.00    +0.000 A 
ATOM     11  C   UNL     1       6.991   4.983  17.792  0.00  0.00    +0.000 A 
ATOM     12  C   UNL     1       7.121   4.471  16.504  0.00  0.00    +0.000 A 
ATOM     13  C   UNL     1       6.240   4.883  15.507  0.00  0.00    +0.000 A 
ATOM     14  C   UNL     1       5.224   5.799  15.796  0.00  0.00    +0.000 A 
ENDBRANCH   1   9
TORSDOF 2
ENDMDL
MODEL 8
REMARK VINA RESULT:      -6.5      1.097      1.134
REMARK  Name = 
REMARK  2 active torsions:
REMARK  status: ('A' for Active; 'I' for Inactive)
REMARK    1  A    between atoms: C_1  and  C_9
REMARK    2  A    between atoms: C_2  and  C_3
REMARK                            x       y       z     vdW  Elec       q    Type
REMARK                         _______ _______ _______ _____ _____    ______ ____
ROOT
ATOM      1  C   UNL     1       2.779   6.391  18.305  0.00  0.00    +0.000 C 
ATOM      2  C   UNL     1       3.798   6.873  17.575  0.00  0.00    +0.000 C 
ENDROOT
BRANCH   2   3
ATOM      3  C   UNL     1       4.903   6.150  16.949  0.00  0.00    +0.000 A 
ATOM      4  C   UNL     1       4.690   4.937  16.293  0.00  0.00    +0.000 A 
ATOM      5  C   UNL     1       5.781   4.225  15.795  0.00  0.00    +0.000 A 
ATOM      6  C   UNL     1       7.049   4.759  15.962  0.00  0.00    +0.000 A 
ATOM      7  N   UNL     1       7.293   5.936  16.576  0.00  0.00    +0.000 NA
ATOM      8  C   UNL     1       6.215   6.599  17.059  0.00  0.00    +0.000 A 
ENDBRANCH   2   3
BRANCH   1   9
ATOM      9  C   UNL     1       2.422   5.011  18.675  0.00  0.00    +0.000 A 
ATOM     10  C   UNL     1       2.923   4.504  19.885  0.00  0.00    +0.000 A 
ATOM     11  C   UNL     1       2.541   3.244  20.352  0.00  0.00    +0.000 A 
ATOM     12  C   UNL     1       1.647   2.472  19.617  0.00  0.00    +0.000 A 
ATOM     13  C   UNL     1       1.141   2.960  18.415  0.00  0.00    +0.000 A 
ATOM     14  C   UNL     1       1.520   4.224  17.951  0.00  0.00    +0.000 A 
ENDBRANCH   1   9
TORSDOF 2
ENDMDL
MODEL 9
REMARK VINA RESULT:      -6.5      1.530      2.098
REMARK  Name = 
REMARK  2 active torsions:
REMARK  status: ('A' for Active; 'I' for Inactive)
REMARK    1  A    between atoms: C_1  and  C_9
REMARK    2  A    between atoms: C_2  and  C_3
REMARK                            x       y       z     vdW  Elec       q    Type
REMARK                         _______ _______ _______ _____ _____    ______ ____
ROOT
ATOM      1  C   UNL     1       4.554   5.302  19.446  0.00  0.00    +0.000 C 
ATOM      2  C   UNL     1       5.546   5.860  18.734  0.00  0.00    +0.000 C 
ENDROOT
BRANCH   2   3
ATOM      3  C   UNL     1       6.017   5.525  17.392  0.00  0.00    +0.000 A 
ATOM      4  C   UNL     1       5.204   5.717  16.275  0.00  0.00    +0.000 A 
ATOM      5  C   UNL     1       5.646   5.293  15.022  0.00  0.00    +0.000 A 
ATOM      6  C   UNL     1       6.895   4.700  14.930  0.00  0.00    +0.000 A 
ATOM      7  N   UNL     1       7.717   4.511  15.985  0.00  0.00    +0.000 NA
ATOM      8  C   UNL     1       7.255   4.923  17.190  0.00  0.00    +0.000 A 
ENDBRANCH   2   3
BRANCH   1   9
ATOM      9  C   UNL     1       3.610   4.222  19.108  0.00  0.00    +0.000 A 
ATOM     10  C   UNL     1       2.334   4.584  18.648  0.00  0.00    +0.000 A 
ATOM     11  C   UNL     1       1.426   3.618  18.207  0.00  0.00    +0.000 A 
ATOM     12  C   UNL     1       1.782   2.273  18.217  0.00  0.00    +0.000 A 
ATOM     13  C   UNL     1       3.044   1.897  18.670  0.00  0.00    +0.000 A 
ATOM     14  C   UNL     1       3.954   2.867  19.106  0.00  0.00    +0.000 A 
ENDBRANCH   1   9
TORSDOF 2
ENDMDL
