MODEL 1
REMARK VINA RESULT:      -7.8      0.000      0.000
REMARK  Name = 
REMARK  4 active torsions:
REMARK  status: ('A' for Active; 'I' for Inactive)
REMARK    1  A    between atoms: C_1  and  C_2
REMARK    2  A    between atoms: C_5  and  C_6
REMARK    3  A    between atoms: N_7  and  N_8
REMARK    4  A    between atoms: C_9  and  C_11
REMARK                            x       y       z     vdW  Elec       q    Type
REMARK                         _______ _______ _______ _____ _____    ______ ____
ROOT
ATOM      1  N   UNL     1       7.167   7.164  17.970  0.00  0.00    +0.000 N 
ATOM      2  C   UNL     1       7.067   5.991  18.708  0.00  0.00    +0.000 C 
ATOM      3  O   UNL     1       7.901   5.603  19.524  0.00  0.00    +0.000 OA
ATOM      4  H   UNL     1       6.413   7.404  17.332  0.00  0.00    +0.000 HD
ENDROOT
BRANCH   2   5
ATOM      5  C   UNL     1       5.857   5.236  18.444  0.00  0.00    +0.000 A 
ATOM      6  N   UNL     1       4.663   5.744  18.181  0.00  0.00    +0.000 NA
ATOM      7  C   UNL     1       3.835   4.652  18.028  0.00  0.00    +0.000 A 
ATOM      8  C   UNL     1       2.462   4.598  17.744  0.00  0.00    +0.000 A 
ATOM      9  C   UNL     1       1.840   3.343  17.658  0.00  0.00    +0.000 A 
ATOM     10  C   UNL     1       2.570   2.167  17.845  0.00  0.00    +0.000 A 
ATOM     11  C   UNL     1       3.942   2.199  18.119  0.00  0.00    +0.000 A 
ATOM     12  C   UNL     1       4.534   3.462  18.203  0.00  0.00    +0.000 A 
ATOM     13  N   UNL     1       5.819   3.862  18.452  0.00  0.00    +0.000 N 
ATOM     14  H   UNL     1       6.618   3.272  18.633  0.00  0.00    +0.000 HD
ENDBRANCH   2   5
BRANCH   1  16
ATOM     15  C   UNL     1       7.995   9.214  18.480  0.00  0.00    +0.000 C 
ATOM     16  N   UNL     1       8.239   7.985  18.156  0.00  0.00    +0.000 NA
BRANCH  15  21
ATOM     17  C   UNL     1      12.333  12.944  19.386  0.00  0.00    +0.000 C 
ATOM     18  C   UNL     1      11.209  11.977  19.155  0.00  0.00    +0.000 A 
ATOM     19  C   UNL     1      10.526  11.407  20.234  0.00  0.00    +0.000 A 
ATOM     20  C   UNL     1       9.481  10.507  20.015  0.00  0.00    +0.000 A 
ATOM     21  C   UNL     1       9.108  10.166  18.711  0.00  0.00    +0.000 A 
ATOM     22  C   UNL     1       9.784  10.726  17.625  0.00  0.00    +0.000 A 
ATOM     23  C   UNL     1      10.831  11.628  17.850  0.00  0.00    +0.000 A 
ENDBRANCH  15  21
ENDBRANCH   1  16
TORSDOF 3
ENDMDL
MODEL 2
REMARK VINA RESULT:      -7.7      0.995      1.792
REMARK  Name = 
REMARK  4 active torsions:
REMARK  status: ('A' for Active; 'I' for Inactive)
REMARK    1  A    between atoms: C_1  and  C_2
REMARK    2  A    between atoms: C_5  and  C_6
REMARK    3  A    between atoms: N_7  and  N_8
REMARK    4  A    between atoms: C_9  and  C_11
REMARK                            x       y       z     vdW  Elec       q    Type
REMARK                         _______ _______ _______ _____ _____    ______ ____
ROOT
ATOM      1  N   UNL     1       7.103   7.846  17.389  0.00  0.00    +0.000 N 
ATOM      2  C   UNL     1       7.164   6.668  18.124  0.00  0.00    +0.000 C 
ATOM      3  O   UNL     1       8.112   6.330  18.830  0.00  0.00    +0.000 OA
ATOM      4  H   UNL     1       6.264   8.040  16.849  0.00  0.00    +0.000 HD
ENDROOT
BRANCH   2   5
ATOM      5  C   UNL     1       5.977   5.841  18.002  0.00  0.00    +0.000 A 
ATOM      6  N   UNL     1       5.957   4.541  17.753  0.00  0.00    +0.000 NA
ATOM      7  C   UNL     1       4.620   4.207  17.705  0.00  0.00    +0.000 A 
ATOM      8  C   UNL     1       4.011   2.966  17.468  0.00  0.00    +0.000 A 
ATOM      9  C   UNL     1       2.610   2.893  17.451  0.00  0.00    +0.000 A 
ATOM     10  C   UNL     1       1.831   4.032  17.670  0.00  0.00    +0.000 A 
ATOM     11  C   UNL     1       2.418   5.278  17.918  0.00  0.00    +0.000 A 
ATOM     12  C   UNL     1       3.815   5.321  17.925  0.00  0.00    +0.000 A 
ATOM     13  N   UNL     1       4.704   6.342  18.125  0.00  0.00    +0.000 N 
ATOM     14  H   UNL     1       4.489   7.311  18.314  0.00  0.00    +0.000 HD
ENDBRANCH   2   5
BRANCH   1  16
ATOM     15  C   UNL     1       7.932   9.843  18.077  0.00  0.00    +0.000 C 
ATOM     16  N   UNL     1       8.139   8.729  17.450  0.00  0.00    +0.000 NA
BRANCH  15  21
ATOM     17  C   UNL     1      12.160  13.775  18.529  0.00  0.00    +0.000 C 
ATOM     18  C   UNL     1      11.062  12.759  18.410  0.00  0.00    +0.000 A 
ATOM     19  C   UNL     1       9.888  13.056  17.712  0.00  0.00    +0.000 A 
ATOM     20  C   UNL     1       8.869  12.109  17.604  0.00  0.00    +0.000 A 
ATOM     21  C   UNL     1       9.013  10.849  18.197  0.00  0.00    +0.000 A 
ATOM     22  C   UNL     1      10.179  10.541  18.900  0.00  0.00    +0.000 A 
ATOM     23  C   UNL     1      11.199  11.496  19.005  0.00  0.00    +0.000 A 
ENDBRANCH  15  21
ENDBRANCH   1  16
TORSDOF 3
ENDMDL
MODEL 3
REMARK VINA RESULT:      -7.6      0.834      1.200
REMARK  Name = 
REMARK  4 active torsions:
REMARK  status: ('A' for Active; 'I' for Inactive)
REMARK    1  A    between atoms: C_1  and  C_2
REMARK    2  A    between atoms: C_5  and  C_6
REMARK    3  A    between atoms: N_7  and  N_8
REMARK    4  A    between atoms: C_9  and  C_11
REMARK                            x       y       z     vdW  Elec       q    Type
REMARK                         _______ _______ _______ _____ _____    ______ ____
ROOT
ATOM      1  N   UNL     1       7.009   7.731  17.382  0.00  0.00    +0.000 N 
ATOM      2  C   UNL     1       7.061   6.546  18.106  0.00  0.00    +0.000 C 
ATOM      3  O   UNL     1       8.007   6.194  18.808  0.00  0.00    +0.000 OA
ATOM      4  H   UNL     1       6.171   7.937  16.845  0.00  0.00    +0.000 HD
ENDROOT
BRANCH   2   5
ATOM      5  C   UNL     1       5.867   5.731  17.980  0.00  0.00    +0.000 A 
ATOM      6  N   UNL     1       4.621   6.174  17.953  0.00  0.00    +0.000 NA
ATOM      7  C   UNL     1       3.840   5.043  17.848  0.00  0.00    +0.000 A 
ATOM      8  C   UNL     1       2.444   4.915  17.785  0.00  0.00    +0.000 A 
ATOM      9  C   UNL     1       1.887   3.631  17.699  0.00  0.00    +0.000 A 
ATOM     10  C   UNL     1       2.702   2.497  17.672  0.00  0.00    +0.000 A 
ATOM     11  C   UNL     1       4.096   2.602  17.725  0.00  0.00    +0.000 A 
ATOM     12  C   UNL     1       4.623   3.893  17.813  0.00  0.00    +0.000 A 
ATOM     13  N   UNL     1       5.907   4.361  17.885  0.00  0.00    +0.000 N 
ATOM     14  H   UNL     1       6.757   3.815  17.888  0.00  0.00    +0.000 HD
ENDBRANCH   2   5
BRANCH   1  16
ATOM     15  C   UNL     1       7.864   9.705  18.104  0.00  0.00    +0.000 C 
ATOM     16  N   UNL     1       8.053   8.605  17.448  0.00  0.00    +0.000 NA
BRANCH  15  21
ATOM     17  C   UNL     1      12.131  13.592  18.586  0.00  0.00    +0.000 C 
ATOM     18  C   UNL     1      11.023  12.587  18.459  0.00  0.00    +0.000 A 
ATOM     19  C   UNL     1       9.915  12.846  17.646  0.00  0.00    +0.000 A 
ATOM     20  C   UNL     1       8.886  11.910  17.532  0.00  0.00    +0.000 A 
ATOM     21  C   UNL     1       8.954  10.700  18.232  0.00  0.00    +0.000 A 
ATOM     22  C   UNL     1      10.054  10.431  19.049  0.00  0.00    +0.000 A 
ATOM     23  C   UNL     1      11.083  11.374  19.161  0.00  0.00    +0.000 A 
ENDBRANCH  15  21
ENDBRANCH   1  16
TORSDOF 3
ENDMDL
MODEL 4
REMARK VINA RESULT:      -7.6      0.774      1.317
REMARK  Name = 
REMARK  4 active torsions:
REMARK  status: ('A' for Active; 'I' for Inactive)
REMARK    1  A    between atoms: C_1  and  C_2
REMARK    2  A    between atoms: C_5  and  C_6
REMARK    3  A    between atoms: N_7  and  N_8
REMARK    4  A    between atoms: C_9  and  C_11
REMARK                            x       y       z     vdW  Elec       q    Type
REMARK                         _______ _______ _______ _____ _____    ______ ____
ROOT
ATOM      1  N   UNL     1       7.379   7.500  17.660  0.00  0.00    +0.000 N 
ATOM      2  C   UNL     1       7.467   6.370  18.464  0.00  0.00    +0.000 C 
ATOM      3  O   UNL     1       8.386   6.136  19.246  0.00  0.00    +0.000 OA
ATOM      4  H   UNL     1       6.568   7.608  17.058  0.00  0.00    +0.000 HD
ENDROOT
BRANCH   2   5
ATOM      5  C   UNL     1       6.347   5.459  18.315  0.00  0.00    +0.000 A 
ATOM      6  N   UNL     1       5.484   5.443  17.312  0.00  0.00    +0.000 NA
ATOM      7  C   UNL     1       4.597   4.433  17.619  0.00  0.00    +0.000 A 
ATOM      8  C   UNL     1       3.474   3.977  16.912  0.00  0.00    +0.000 A 
ATOM      9  C   UNL     1       2.714   2.931  17.456  0.00  0.00    +0.000 A 
ATOM     10  C   UNL     1       3.066   2.348  18.675  0.00  0.00    +0.000 A 
ATOM     11  C   UNL     1       4.187   2.781  19.391  0.00  0.00    +0.000 A 
ATOM     12  C   UNL     1       4.924   3.826  18.828  0.00  0.00    +0.000 A 
ATOM     13  N   UNL     1       6.048   4.488  19.241  0.00  0.00    +0.000 N 
ATOM     14  H   UNL     1       6.577   4.326  20.086  0.00  0.00    +0.000 HD
ENDBRANCH   2   5
BRANCH   1  16
ATOM     15  C   UNL     1       8.296   9.277  18.734  0.00  0.00    +0.000 C 
ATOM     16  N   UNL     1       8.349   8.455  17.736  0.00  0.00    +0.000 NA
BRANCH  15  21
ATOM     17  C   UNL     1      12.315  13.401  19.350  0.00  0.00    +0.000 C 
ATOM     18  C   UNL     1      11.274  12.333  19.186  0.00  0.00    +0.000 A 
ATOM     19  C   UNL     1      10.926  11.864  17.915  0.00  0.00    +0.000 A 
ATOM     20  C   UNL     1       9.957  10.871  17.768  0.00  0.00    +0.000 A 
ATOM     21  C   UNL     1       9.321  10.335  18.893  0.00  0.00    +0.000 A 
ATOM     22  C   UNL     1       9.657  10.796  20.167  0.00  0.00    +0.000 A 
ATOM     23  C   UNL     1      10.630  11.793  20.310  0.00  0.00    +0.000 A 
ENDBRANCH  15  21
ENDBRANCH   1  16
TORSDOF 3
ENDMDL
MODEL 5
REMARK VINA RESULT:      -7.4      0.732      1.640
REMARK  Name = 
REMARK  4 active torsions:
REMARK  status: ('A' for Active; 'I' for Inactive)
REMARK    1  A    between atoms: C_1  and  C_2
REMARK    2  A    between atoms: C_5  and  C_6
REMARK    3  A    between atoms: N_7  and  N_8
REMARK    4  A    between atoms: C_9  and  C_11
REMARK                            x       y       z     vdW  Elec       q    Type
REMARK                         _______ _______ _______ _____ _____    ______ ____
ROOT
ATOM      1  N   UNL     1       7.399   7.423  17.795  0.00  0.00    +0.000 N 
ATOM      2  C   UNL     1       7.494   6.289  18.593  0.00  0.00    +0.000 C 
ATOM      3  O   UNL     1       8.432   6.038  19.346  0.00  0.00    +0.000 OA
ATOM      4  H   UNL     1       6.572   7.545  17.218  0.00  0.00    +0.000 HD
ENDROOT
BRANCH   2   5
ATOM      5  C   UNL     1       6.356   5.396  18.475  0.00  0.00    +0.000 A 
ATOM      6  N   UNL     1       6.050   4.412  19.306  0.00  0.00    +0.000 NA
ATOM      7  C   UNL     1       4.915   3.835  18.776  0.00  0.00    +0.000 A 
ATOM      8  C   UNL     1       4.159   2.748  19.239  0.00  0.00    +0.000 A 
ATOM      9  C   UNL     1       3.042   2.339  18.496  0.00  0.00    +0.000 A 
ATOM     10  C   UNL     1       2.682   3.000  17.320  0.00  0.00    +0.000 A 
ATOM     11  C   UNL     1       3.418   4.092  16.846  0.00  0.00    +0.000 A 
ATOM     12  C   UNL     1       4.526   4.476  17.604  0.00  0.00    +0.000 A 
ATOM     13  N   UNL     1       5.451   5.472  17.444  0.00  0.00    +0.000 N 
ATOM     14  H   UNL     1       5.497   6.150  16.696  0.00  0.00    +0.000 HD
ENDBRANCH   2   5
BRANCH   1  16
ATOM     15  C   UNL     1       8.266   9.303  18.726  0.00  0.00    +0.000 C 
ATOM     16  N   UNL     1       8.386   8.362  17.844  0.00  0.00    +0.000 NA
BRANCH  15  21
ATOM     17  C   UNL     1      12.332  13.400  19.202  0.00  0.00    +0.000 C 
ATOM     18  C   UNL     1      11.278  12.339  19.075  0.00  0.00    +0.000 A 
ATOM     19  C   UNL     1      10.873  11.884  17.816  0.00  0.00    +0.000 A 
ATOM     20  C   UNL     1       9.893  10.897  17.702  0.00  0.00    +0.000 A 
ATOM     21  C   UNL     1       9.303  10.354  18.849  0.00  0.00    +0.000 A 
ATOM     22  C   UNL     1       9.697  10.802  20.111  0.00  0.00    +0.000 A 
ATOM     23  C   UNL     1      10.681  11.792  20.221  0.00  0.00    +0.000 A 
ENDBRANCH  15  21
ENDBRANCH   1  16
TORSDOF 3
ENDMDL
MODEL 6
REMARK VINA RESULT:      -7.2      5.926      8.212
REMARK  Name = 
REMARK  4 active torsions:
REMARK  status: ('A' for Active; 'I' for Inactive)
REMARK    1  A    between atoms: C_1  and  C_2
REMARK    2  A    between atoms: C_5  and  C_6
REMARK    3  A    between atoms: N_7  and  N_8
REMARK    4  A    between atoms: C_9  and  C_11
REMARK                            x       y       z     vdW  Elec       q    Type
REMARK                         _______ _______ _______ _____ _____    ______ ____
ROOT
ATOM      1  N   UNL     1       2.051   8.031  19.559  0.00  0.00    +0.000 N 
ATOM      2  C   UNL     1       2.284   6.668  19.693  0.00  0.00    +0.000 C 
ATOM      3  O   UNL     1       1.834   5.965  20.596  0.00  0.00    +0.000 OA
ATOM      4  H   UNL     1       2.457   8.519  18.765  0.00  0.00    +0.000 HD
ENDROOT
BRANCH   2   5
ATOM      5  C   UNL     1       3.119   6.111  18.644  0.00  0.00    +0.000 A 
ATOM      6  N   UNL     1       3.406   4.830  18.476  0.00  0.00    +0.000 NA
ATOM      7  C   UNL     1       4.241   4.792  17.379  0.00  0.00    +0.000 A 
ATOM      8  C   UNL     1       4.857   3.696  16.756  0.00  0.00    +0.000 A 
ATOM      9  C   UNL     1       5.689   3.929  15.650  0.00  0.00    +0.000 A 
ATOM     10  C   UNL     1       5.899   5.224  15.172  0.00  0.00    +0.000 A 
ATOM     11  C   UNL     1       5.287   6.330  15.773  0.00  0.00    +0.000 A 
ATOM     12  C   UNL     1       4.467   6.069  16.874  0.00  0.00    +0.000 A 
ATOM     13  N   UNL     1       3.731   6.886  17.688  0.00  0.00    +0.000 N 
ATOM     14  H   UNL     1       3.647   7.891  17.632  0.00  0.00    +0.000 HD
ENDBRANCH   2   5
BRANCH   1  16
ATOM     15  C   UNL     1       0.607   9.712  20.045  0.00  0.00    +0.000 C 
ATOM     16  N   UNL     1       1.248   8.667  20.458  0.00  0.00    +0.000 NA
BRANCH  15  21
ATOM     17  C   UNL     1      -2.906  12.613  23.621  0.00  0.00    +0.000 C 
ATOM     18  C   UNL     1      -1.997  11.864  22.691  0.00  0.00    +0.000 A 
ATOM     19  C   UNL     1      -1.898  12.227  21.344  0.00  0.00    +0.000 A 
ATOM     20  C   UNL     1      -1.052  11.527  20.483  0.00  0.00    +0.000 A 
ATOM     21  C   UNL     1      -0.295  10.451  20.960  0.00  0.00    +0.000 A 
ATOM     22  C   UNL     1      -0.388  10.076  22.301  0.00  0.00    +0.000 A 
ATOM     23  C   UNL     1      -1.238  10.782  23.162  0.00  0.00    +0.000 A 
ENDBRANCH  15  21
ENDBRANCH   1  16
TORSDOF 3
ENDMDL
MODEL 7
REMARK VINA RESULT:      -7.1      1.440      1.802
REMARK  Name = 
REMARK  4 active torsions:
REMARK  status: ('A' for Active; 'I' for Inactive)
REMARK    1  A    between atoms: C_1  and  C_2
REMARK    2  A    between atoms: C_5  and  C_6
REMARK    3  A    between atoms: N_7  and  N_8
REMARK    4  A    between atoms: C_9  and  C_11
REMARK                            x       y       z     vdW  Elec       q    Type
REMARK                         _______ _______ _______ _____ _____    ______ ____
ROOT
ATOM      1  N   UNL     1       7.060   7.949  17.843  0.00  0.00    +0.000 N 
ATOM      2  C   UNL     1       7.131   6.778  17.099  0.00  0.00    +0.000 C 
ATOM      3  O   UNL     1       7.924   6.578  16.181  0.00  0.00    +0.000 OA
ATOM      4  H   UNL     1       6.378   8.008  18.594  0.00  0.00    +0.000 HD
ENDROOT
BRANCH   2   5
ATOM      5  C   UNL     1       6.174   5.767  17.507  0.00  0.00    +0.000 A 
ATOM      6  N   UNL     1       6.209   5.070  18.631  0.00  0.00    +0.000 NA
ATOM      7  C   UNL     1       5.121   4.225  18.564  0.00  0.00    +0.000 A 
ATOM      8  C   UNL     1       4.672   3.261  19.478  0.00  0.00    +0.000 A 
ATOM      9  C   UNL     1       3.532   2.508  19.161  0.00  0.00    +0.000 A 
ATOM     10  C   UNL     1       2.850   2.714  17.960  0.00  0.00    +0.000 A 
ATOM     11  C   UNL     1       3.274   3.677  17.038  0.00  0.00    +0.000 A 
ATOM     12  C   UNL     1       4.414   4.410  17.379  0.00  0.00    +0.000 A 
ATOM     13  N   UNL     1       5.097   5.404  16.734  0.00  0.00    +0.000 N 
ATOM     14  H   UNL     1       4.881   5.809  15.834  0.00  0.00    +0.000 HD
ENDBRANCH   2   5
BRANCH   1  16
ATOM     15  C   UNL     1       8.339   9.667  18.593  0.00  0.00    +0.000 C 
ATOM     16  N   UNL     1       7.934   8.962  17.586  0.00  0.00    +0.000 NA
BRANCH  15  21
ATOM     17  C   UNL     1      12.087  14.018  17.839  0.00  0.00    +0.000 C 
ATOM     18  C   UNL     1      11.118  12.888  18.036  0.00  0.00    +0.000 A 
ATOM     19  C   UNL     1      11.490  11.748  18.755  0.00  0.00    +0.000 A 
ATOM     20  C   UNL     1      10.587  10.699  18.935  0.00  0.00    +0.000 A 
ATOM     21  C   UNL     1       9.298  10.779  18.396  0.00  0.00    +0.000 A 
ATOM     22  C   UNL     1       8.916  11.911  17.674  0.00  0.00    +0.000 A 
ATOM     23  C   UNL     1       9.826  12.961  17.495  0.00  0.00    +0.000 A 
ENDBRANCH  15  21
ENDBRANCH   1  16
TORSDOF 3
ENDMDL
MODEL 8
REMARK VINA RESULT:      -7.1      5.690      8.037
REMARK  Name = 
REMARK  4 active torsions:
REMARK  status: ('A' for Active; 'I' for Inactive)
REMARK    1  A    between atoms: C_1  and  C_2
REMARK    2  A    between atoms: C_5  and  C_6
REMARK    3  A    between atoms: N_7  and  N_8
REMARK    4  A    between atoms: C_9  and  C_11
REMARK                            x       y       z     vdW  Elec       q    Type
REMARK                         _______ _______ _______ _____ _____    ______ ____
ROOT
ATOM      1  N   UNL     1       2.318   7.668  19.720  0.00  0.00    +0.000 N 
ATOM      2  C   UNL     1       2.555   6.305  19.851  0.00  0.00    +0.000 C 
ATOM      3  O   UNL     1       1.937   5.555  20.604  0.00  0.00    +0.000 OA
ATOM      4  H   UNL     1       2.875   8.198  19.056  0.00  0.00    +0.000 HD
ENDROOT
BRANCH   2   5
ATOM      5  C   UNL     1       3.616   5.811  18.994  0.00  0.00    +0.000 A 
ATOM      6  N   UNL     1       4.861   5.557  19.365  0.00  0.00    +0.000 NA
ATOM      7  C   UNL     1       5.498   5.138  18.216  0.00  0.00    +0.000 A 
ATOM      8  C   UNL     1       6.830   4.744  18.018  0.00  0.00    +0.000 A 
ATOM      9  C   UNL     1       7.241   4.376  16.729  0.00  0.00    +0.000 A 
ATOM     10  C   UNL     1       6.344   4.395  15.659  0.00  0.00    +0.000 A 
ATOM     11  C   UNL     1       5.009   4.775  15.835  0.00  0.00    +0.000 A 
ATOM     12  C   UNL     1       4.629   5.140  17.129  0.00  0.00    +0.000 A 
ATOM     13  N   UNL     1       3.437   5.558  17.655  0.00  0.00    +0.000 N 
ATOM     14  H   UNL     1       2.564   5.687  17.164  0.00  0.00    +0.000 HD
ENDBRANCH   2   5
BRANCH   1  16
ATOM     15  C   UNL     1       1.256   9.541  20.438  0.00  0.00    +0.000 C 
ATOM     16  N   UNL     1       1.318   8.248  20.442  0.00  0.00    +0.000 NA
BRANCH  15  21
ATOM     17  C   UNL     1      -2.899  12.308  23.375  0.00  0.00    +0.000 C 
ATOM     18  C   UNL     1      -1.823  11.593  22.611  0.00  0.00    +0.000 A 
ATOM     19  C   UNL     1      -1.527  11.951  21.292  0.00  0.00    +0.000 A 
ATOM     20  C   UNL     1      -0.527  11.283  20.584  0.00  0.00    +0.000 A 
ATOM     21  C   UNL     1       0.191  10.245  21.189  0.00  0.00    +0.000 A 
ATOM     22  C   UNL     1      -0.097   9.876  22.504  0.00  0.00    +0.000 A 
ATOM     23  C   UNL     1      -1.102  10.549  23.210  0.00  0.00    +0.000 A 
ENDBRANCH  15  21
ENDBRANCH   1  16
TORSDOF 3
ENDMDL
MODEL 9
REMARK VINA RESULT:      -7.0      6.460      9.025
REMARK  Name = 
REMARK  4 active torsions:
REMARK  status: ('A' for Active; 'I' for Inactive)
REMARK    1  A    between atoms: C_1  and  C_2
REMARK    2  A    between atoms: C_5  and  C_6
REMARK    3  A    between atoms: N_7  and  N_8
REMARK    4  A    between atoms: C_9  and  C_11
REMARK                            x       y       z     vdW  Elec       q    Type
REMARK                         _______ _______ _______ _____ _____    ______ ____
ROOT
ATOM      1  N   UNL     1       1.488   8.696  19.039  0.00  0.00    +0.000 N 
ATOM      2  C   UNL     1       1.326  10.073  18.943  0.00  0.00    +0.000 C 
ATOM      3  O   UNL     1       1.899  10.791  18.126  0.00  0.00    +0.000 OA
ATOM      4  H   UNL     1       0.954   8.191  19.741  0.00  0.00    +0.000 HD
ENDROOT
BRANCH   2   5
ATOM      5  C   UNL     1       0.388  10.620  19.905  0.00  0.00    +0.000 A 
ATOM      6  N   UNL     1       0.364  10.361  21.203  0.00  0.00    +0.000 NA
ATOM      7  C   UNL     1      -0.706  11.081  21.692  0.00  0.00    +0.000 A 
ATOM      8  C   UNL     1      -1.202  11.178  23.000  0.00  0.00    +0.000 A 
ATOM      9  C   UNL     1      -2.332  11.974  23.236  0.00  0.00    +0.000 A 
ATOM     10  C   UNL     1      -2.953  12.665  22.193  0.00  0.00    +0.000 A 
ATOM     11  C   UNL     1      -2.468  12.590  20.882  0.00  0.00    +0.000 A 
ATOM     12  C   UNL     1      -1.344  11.787  20.676  0.00  0.00    +0.000 A 
ATOM     13  N   UNL     1      -0.619  11.486  19.554  0.00  0.00    +0.000 N 
ATOM     14  H   UNL     1      -0.785  11.815  18.614  0.00  0.00    +0.000 HD
ENDBRANCH   2   5
BRANCH   1  16
ATOM     15  C   UNL     1       2.744   6.883  18.506  0.00  0.00    +0.000 C 
ATOM     16  N   UNL     1       2.313   8.054  18.164  0.00  0.00    +0.000 NA
BRANCH  15  21
ATOM     17  C   UNL     1       6.236   3.883  14.992  0.00  0.00    +0.000 C 
ATOM     18  C   UNL     1       5.329   4.657  15.903  0.00  0.00    +0.000 A 
ATOM     19  C   UNL     1       4.385   3.998  16.698  0.00  0.00    +0.000 A 
ATOM     20  C   UNL     1       3.543   4.722  17.544  0.00  0.00    +0.000 A 
ATOM     21  C   UNL     1       3.635   6.116  17.604  0.00  0.00    +0.000 A 
ATOM     22  C   UNL     1       4.571   6.786  16.813  0.00  0.00    +0.000 A 
ATOM     23  C   UNL     1       5.413   6.056  15.965  0.00  0.00    +0.000 A 
ENDBRANCH  15  21
ENDBRANCH   1  16
TORSDOF 3
ENDMDL
