MODEL 1
REMARK VINA RESULT:      -8.1      0.000      0.000
REMARK  Name = 
REMARK  8 active torsions:
REMARK  status: ('A' for Active; 'I' for Inactive)
REMARK    1  A    between atoms: C_1  and  C_2
REMARK    2  A    between atoms: C_3  and  C_4
REMARK    3  A    between atoms: C_4  and  C_5
REMARK    4  A    between atoms: C_8  and  C_9
REMARK    5  A    between atoms: N_11  and  C_12
REMARK    6  A    between atoms: N_11  and  C_13
REMARK    7  A    between atoms: C_13  and  C_14
REMARK    8  A    between atoms: N_18  and  C_19
REMARK                            x       y       z     vdW  Elec       q    Type
REMARK                         _______ _______ _______ _____ _____    ______ ____
ROOT
ATOM      1  C   UNL     1       6.432   4.367  17.253  0.00  0.00    +0.000 C 
ATOM      2  O   UNL     1       7.331   4.476  18.081  0.00  0.00    +0.000 OA
ATOM      3  N   UNL     1       5.123   4.040  17.698  0.00  0.00    +0.000 N 
ATOM      4  C   UNL     1       3.947   3.841  16.855  0.00  0.00    +0.000 C 
ENDROOT
BRANCH   1   8
ATOM      5  C   UNL     1       6.746   4.139  13.726  0.00  0.00    +0.000 A 
ATOM      6  N   UNL     1       7.325   5.310  13.889  0.00  0.00    +0.000 NA
ATOM      7  N   UNL     1       7.293   5.565  15.241  0.00  0.00    +0.000 NA
ATOM      8  C   UNL     1       6.690   4.560  15.817  0.00  0.00    +0.000 A 
ATOM      9  O   UNL     1       6.330   3.583  14.911  0.00  0.00    +0.000 OA
BRANCH   5  10
ATOM     10  C   UNL     1       6.476   3.367  12.480  0.00  0.00    +0.000 C 
BRANCH  10  13
ATOM     11  C   UNL     1       3.161   3.575  10.418  0.00  0.00    +0.000 C 
ATOM     12  C   UNL     1       4.302   3.057  11.230  0.00  0.00    +0.000 C 
ATOM     13  C   UNL     1       5.291   3.849  11.677  0.00  0.00    +0.000 C 
ENDBRANCH  10  13
ENDBRANCH   5  10
ENDBRANCH   1   8
BRANCH   3  14
ATOM     14  C   UNL     1       4.934   3.824  19.150  0.00  0.00    +0.000 C 
BRANCH  14  15
ATOM     15  C   UNL     1       3.456   3.798  19.629  0.00  0.00    +0.000 C 
ATOM     16  C   UNL     1       3.144   2.708  20.657  0.00  0.00    +0.000 C 
ATOM     17  C   UNL     1       1.916   3.223  21.403  0.00  0.00    +0.000 C 
ATOM     18  C   UNL     1       1.690   4.639  20.885  0.00  0.00    +0.000 C 
ATOM     19  N   UNL     1       3.005   5.018  20.342  0.00  0.00    +0.000 NA
ATOM     20  C   UNL     1       2.899   6.169  19.445  0.00  0.00    +0.000 C 
ENDBRANCH  14  15
ENDBRANCH   3  14
TORSDOF 5
ENDMDL
MODEL 2
REMARK VINA RESULT:      -7.9      1.741      2.147
REMARK  Name = 
REMARK  8 active torsions:
REMARK  status: ('A' for Active; 'I' for Inactive)
REMARK    1  A    between atoms: C_1  and  C_2
REMARK    2  A    between atoms: C_3  and  C_4
REMARK    3  A    between atoms: C_4  and  C_5
REMARK    4  A    between atoms: C_8  and  C_9
REMARK    5  A    between atoms: N_11  and  C_12
REMARK    6  A    between atoms: N_11  and  C_13
REMARK    7  A    between atoms: C_13  and  C_14
REMARK    8  A    between atoms: N_18  and  C_19
REMARK                            x       y       z     vdW  Elec       q    Type
REMARK                         _______ _______ _______ _____ _____    ______ ____
ROOT
ATOM      1  C   UNL     1       4.669   6.011  17.372  0.00  0.00    +0.000 C 
ATOM      2  O   UNL     1       4.001   7.038  17.297  0.00  0.00    +0.000 OA
ATOM      3  N   UNL     1       4.495   5.157  18.494  0.00  0.00    +0.000 N 
ATOM      4  C   UNL     1       5.222   3.919  18.760  0.00  0.00    +0.000 C 
ENDROOT
BRANCH   1   8
ATOM      5  C   UNL     1       6.456   4.721  14.591  0.00  0.00    +0.000 A 
ATOM      6  N   UNL     1       7.423   5.445  15.114  0.00  0.00    +0.000 NA
ATOM      7  N   UNL     1       6.893   6.034  16.239  0.00  0.00    +0.000 NA
ATOM      8  C   UNL     1       5.644   5.657  16.328  0.00  0.00    +0.000 A 
ATOM      9  O   UNL     1       5.292   4.786  15.316  0.00  0.00    +0.000 OA
BRANCH   5  10
ATOM     10  C   UNL     1       6.443   3.885  13.358  0.00  0.00    +0.000 C 
BRANCH  10  13
ATOM     11  C   UNL     1       3.548   3.084  10.855  0.00  0.00    +0.000 C 
ATOM     12  C   UNL     1       4.886   3.127  11.518  0.00  0.00    +0.000 C 
ATOM     13  C   UNL     1       5.104   3.793  12.664  0.00  0.00    +0.000 C 
ENDBRANCH  10  13
ENDBRANCH   5  10
ENDBRANCH   1   8
BRANCH   3  14
ATOM     14  C   UNL     1       3.525   5.584  19.527  0.00  0.00    +0.000 C 
BRANCH  14  15
ATOM     15  C   UNL     1       2.181   4.804  19.535  0.00  0.00    +0.000 C 
ATOM     16  C   UNL     1       1.697   4.367  18.150  0.00  0.00    +0.000 C 
ATOM     17  C   UNL     1       0.784   3.173  18.422  0.00  0.00    +0.000 C 
ATOM     18  C   UNL     1       0.922   2.887  19.912  0.00  0.00    +0.000 C 
ATOM     19  N   UNL     1       2.207   3.513  20.263  0.00  0.00    +0.000 NA
ATOM     20  C   UNL     1       2.332   3.701  21.709  0.00  0.00    +0.000 C 
ENDBRANCH  14  15
ENDBRANCH   3  14
TORSDOF 5
ENDMDL
MODEL 3
REMARK VINA RESULT:      -7.9      1.462      1.915
REMARK  Name = 
REMARK  8 active torsions:
REMARK  status: ('A' for Active; 'I' for Inactive)
REMARK    1  A    between atoms: C_1  and  C_2
REMARK    2  A    between atoms: C_3  and  C_4
REMARK    3  A    between atoms: C_4  and  C_5
REMARK    4  A    between atoms: C_8  and  C_9
REMARK    5  A    between atoms: N_11  and  C_12
REMARK    6  A    between atoms: N_11  and  C_13
REMARK    7  A    between atoms: C_13  and  C_14
REMARK    8  A    between atoms: N_18  and  C_19
REMARK                            x       y       z     vdW  Elec       q    Type
REMARK                         _______ _______ _______ _____ _____    ______ ____
ROOT
ATOM      1  C   UNL     1       5.539   4.742  18.054  0.00  0.00    +0.000 C 
ATOM      2  O   UNL     1       5.872   3.898  18.882  0.00  0.00    +0.000 OA
ATOM      3  N   UNL     1       4.437   5.591  18.342  0.00  0.00    +0.000 N 
ATOM      4  C   UNL     1       3.888   6.622  17.466  0.00  0.00    +0.000 C 
ENDROOT
BRANCH   1   8
ATOM      5  C   UNL     1       6.808   4.505  14.749  0.00  0.00    +0.000 A 
ATOM      6  N   UNL     1       7.617   5.444  15.192  0.00  0.00    +0.000 NA
ATOM      7  N   UNL     1       7.259   5.668  16.501  0.00  0.00    +0.000 NA
ATOM      8  C   UNL     1       6.254   4.879  16.776  0.00  0.00    +0.000 A 
ATOM      9  O   UNL     1       5.920   4.075  15.704  0.00  0.00    +0.000 OA
BRANCH   5  10
ATOM     10  C   UNL     1       6.713   3.877  13.401  0.00  0.00    +0.000 C 
BRANCH  10  13
ATOM     11  C   UNL     1       3.606   3.160  11.139  0.00  0.00    +0.000 C 
ATOM     12  C   UNL     1       5.008   3.248  11.645  0.00  0.00    +0.000 C 
ATOM     13  C   UNL     1       5.310   3.745  12.856  0.00  0.00    +0.000 C 
ENDBRANCH  10  13
ENDBRANCH   5  10
ENDBRANCH   1   8
BRANCH   3  14
ATOM     14  C   UNL     1       3.737   5.381  19.629  0.00  0.00    +0.000 C 
BRANCH  14  15
ATOM     15  C   UNL     1       2.380   4.631  19.529  0.00  0.00    +0.000 C 
ATOM     16  C   UNL     1       2.030   4.143  18.121  0.00  0.00    +0.000 C 
ATOM     17  C   UNL     1       1.064   2.983  18.345  0.00  0.00    +0.000 C 
ATOM     18  C   UNL     1       1.040   2.760  19.853  0.00  0.00    +0.000 C 
ATOM     19  N   UNL     1       2.298   3.373  20.309  0.00  0.00    +0.000 NA
ATOM     20  C   UNL     1       2.277   3.622  21.751  0.00  0.00    +0.000 C 
ENDBRANCH  14  15
ENDBRANCH   3  14
TORSDOF 5
ENDMDL
MODEL 4
REMARK VINA RESULT:      -7.8      1.369      1.550
REMARK  Name = 
REMARK  8 active torsions:
REMARK  status: ('A' for Active; 'I' for Inactive)
REMARK    1  A    between atoms: C_1  and  C_2
REMARK    2  A    between atoms: C_3  and  C_4
REMARK    3  A    between atoms: C_4  and  C_5
REMARK    4  A    between atoms: C_8  and  C_9
REMARK    5  A    between atoms: N_11  and  C_12
REMARK    6  A    between atoms: N_11  and  C_13
REMARK    7  A    between atoms: C_13  and  C_14
REMARK    8  A    between atoms: N_18  and  C_19
REMARK                            x       y       z     vdW  Elec       q    Type
REMARK                         _______ _______ _______ _____ _____    ______ ____
ROOT
ATOM      1  C   UNL     1       5.463   4.733  17.935  0.00  0.00    +0.000 C 
ATOM      2  O   UNL     1       5.804   3.878  18.747  0.00  0.00    +0.000 OA
ATOM      3  N   UNL     1       4.400   5.615  18.270  0.00  0.00    +0.000 N 
ATOM      4  C   UNL     1       3.846   6.664  17.419  0.00  0.00    +0.000 C 
ENDROOT
BRANCH   1   8
ATOM      5  C   UNL     1       6.647   4.412  14.605  0.00  0.00    +0.000 A 
ATOM      6  N   UNL     1       7.400   5.428  14.974  0.00  0.00    +0.000 NA
ATOM      7  N   UNL     1       7.066   5.694  16.282  0.00  0.00    +0.000 NA
ATOM      8  C   UNL     1       6.128   4.853  16.628  0.00  0.00    +0.000 A 
ATOM      9  O   UNL     1       5.820   3.972  15.610  0.00  0.00    +0.000 OA
BRANCH   5  10
ATOM     10  C   UNL     1       6.557   3.710  13.294  0.00  0.00    +0.000 C 
BRANCH  10  13
ATOM     11  C   UNL     1       3.505   3.256  10.892  0.00  0.00    +0.000 C 
ATOM     12  C   UNL     1       4.816   3.061  11.581  0.00  0.00    +0.000 C 
ATOM     13  C   UNL     1       5.231   3.853  12.584  0.00  0.00    +0.000 C 
ENDBRANCH  10  13
ENDBRANCH   5  10
ENDBRANCH   1   8
BRANCH   3  14
ATOM     14  C   UNL     1       3.748   5.422  19.584  0.00  0.00    +0.000 C 
BRANCH  14  15
ATOM     15  C   UNL     1       2.895   4.130  19.717  0.00  0.00    +0.000 C 
ATOM     16  C   UNL     1       2.629   3.694  21.159  0.00  0.00    +0.000 C 
ATOM     17  C   UNL     1       1.356   2.855  21.079  0.00  0.00    +0.000 C 
ATOM     18  C   UNL     1       0.871   2.989  19.640  0.00  0.00    +0.000 C 
ATOM     19  N   UNL     1       1.517   4.228  19.176  0.00  0.00    +0.000 NA
ATOM     20  C   UNL     1       1.507   4.319  17.716  0.00  0.00    +0.000 C 
ENDBRANCH  14  15
ENDBRANCH   3  14
TORSDOF 5
ENDMDL
MODEL 5
REMARK VINA RESULT:      -7.6      1.618      1.911
REMARK  Name = 
REMARK  8 active torsions:
REMARK  status: ('A' for Active; 'I' for Inactive)
REMARK    1  A    between atoms: C_1  and  C_2
REMARK    2  A    between atoms: C_3  and  C_4
REMARK    3  A    between atoms: C_4  and  C_5
REMARK    4  A    between atoms: C_8  and  C_9
REMARK    5  A    between atoms: N_11  and  C_12
REMARK    6  A    between atoms: N_11  and  C_13
REMARK    7  A    between atoms: C_13  and  C_14
REMARK    8  A    between atoms: N_18  and  C_19
REMARK                            x       y       z     vdW  Elec       q    Type
REMARK                         _______ _______ _______ _____ _____    ______ ____
ROOT
ATOM      1  C   UNL     1       4.572   5.660  16.751  0.00  0.00    +0.000 C 
ATOM      2  O   UNL     1       4.247   6.807  17.046  0.00  0.00    +0.000 OA
ATOM      3  N   UNL     1       3.861   4.574  17.327  0.00  0.00    +0.000 N 
ATOM      4  C   UNL     1       4.130   3.154  17.115  0.00  0.00    +0.000 C 
ENDROOT
BRANCH   1   8
ATOM      5  C   UNL     1       6.719   4.672  14.105  0.00  0.00    +0.000 A 
ATOM      6  N   UNL     1       7.622   5.245  14.873  0.00  0.00    +0.000 NA
ATOM      7  N   UNL     1       6.946   5.698  15.982  0.00  0.00    +0.000 NA
ATOM      8  C   UNL     1       5.684   5.398  15.824  0.00  0.00    +0.000 A 
ATOM      9  O   UNL     1       5.459   4.708  14.649  0.00  0.00    +0.000 OA
BRANCH   5  10
ATOM     10  C   UNL     1       6.865   4.025  12.770  0.00  0.00    +0.000 C 
BRANCH  10  13
ATOM     11  C   UNL     1       3.564   2.919  10.991  0.00  0.00    +0.000 C 
ATOM     12  C   UNL     1       4.761   3.710  11.407  0.00  0.00    +0.000 C 
ATOM     13  C   UNL     1       5.654   3.253  12.300  0.00  0.00    +0.000 C 
ENDBRANCH  10  13
ENDBRANCH   5  10
ENDBRANCH   1   8
BRANCH   3  14
ATOM     14  C   UNL     1       2.776   4.902  18.279  0.00  0.00    +0.000 C 
BRANCH  14  15
ATOM     15  C   UNL     1       2.611   3.907  19.462  0.00  0.00    +0.000 C 
ATOM     16  C   UNL     1       2.905   4.510  20.838  0.00  0.00    +0.000 C 
ATOM     17  C   UNL     1       2.130   3.630  21.816  0.00  0.00    +0.000 C 
ATOM     18  C   UNL     1       1.309   2.683  20.948  0.00  0.00    +0.000 C 
ATOM     19  N   UNL     1       1.238   3.381  19.654  0.00  0.00    +0.000 NA
ATOM     20  C   UNL     1       0.845   2.470  18.579  0.00  0.00    +0.000 C 
ENDBRANCH  14  15
ENDBRANCH   3  14
TORSDOF 5
ENDMDL
MODEL 6
REMARK VINA RESULT:      -7.4      1.107      1.323
REMARK  Name = 
REMARK  8 active torsions:
REMARK  status: ('A' for Active; 'I' for Inactive)
REMARK    1  A    between atoms: C_1  and  C_2
REMARK    2  A    between atoms: C_3  and  C_4
REMARK    3  A    between atoms: C_4  and  C_5
REMARK    4  A    between atoms: C_8  and  C_9
REMARK    5  A    between atoms: N_11  and  C_12
REMARK    6  A    between atoms: N_11  and  C_13
REMARK    7  A    between atoms: C_13  and  C_14
REMARK    8  A    between atoms: N_18  and  C_19
REMARK                            x       y       z     vdW  Elec       q    Type
REMARK                         _______ _______ _______ _____ _____    ______ ____
ROOT
ATOM      1  C   UNL     1       6.299   4.638  17.575  0.00  0.00    +0.000 C 
ATOM      2  O   UNL     1       7.182   4.358  18.382  0.00  0.00    +0.000 OA
ATOM      3  N   UNL     1       4.968   4.808  18.043  0.00  0.00    +0.000 N 
ATOM      4  C   UNL     1       3.796   5.109  17.226  0.00  0.00    +0.000 C 
ENDROOT
BRANCH   1   8
ATOM      5  C   UNL     1       6.434   4.522  14.031  0.00  0.00    +0.000 A 
ATOM      6  N   UNL     1       7.470   5.309  14.232  0.00  0.00    +0.000 NA
ATOM      7  N   UNL     1       7.572   5.465  15.595  0.00  0.00    +0.000 NA
ATOM      8  C   UNL     1       6.596   4.790  16.142  0.00  0.00    +0.000 A 
ATOM      9  O   UNL     1       5.831   4.129  15.202  0.00  0.00    +0.000 OA
BRANCH   5  10
ATOM     10  C   UNL     1       5.835   4.028  12.759  0.00  0.00    +0.000 C 
BRANCH  10  13
ATOM     11  C   UNL     1       6.232   0.545  11.026  0.00  0.00    +0.000 C 
ATOM     12  C   UNL     1       5.696   1.877  11.440  0.00  0.00    +0.000 C 
ATOM     13  C   UNL     1       6.347   2.685  12.294  0.00  0.00    +0.000 C 
ENDBRANCH  10  13
ENDBRANCH   5  10
ENDBRANCH   1   8
BRANCH   3  14
ATOM     14  C   UNL     1       4.727   4.607  19.490  0.00  0.00    +0.000 C 
BRANCH  14  15
ATOM     15  C   UNL     1       3.361   3.959  19.849  0.00  0.00    +0.000 C 
ATOM     16  C   UNL     1       3.470   2.593  20.529  0.00  0.00    +0.000 C 
ATOM     17  C   UNL     1       2.163   2.445  21.305  0.00  0.00    +0.000 C 
ATOM     18  C   UNL     1       1.454   3.787  21.167  0.00  0.00    +0.000 C 
ATOM     19  N   UNL     1       2.544   4.716  20.829  0.00  0.00    +0.000 NA
ATOM     20  C   UNL     1       2.027   5.962  20.264  0.00  0.00    +0.000 C 
ENDBRANCH  14  15
ENDBRANCH   3  14
TORSDOF 5
ENDMDL
MODEL 7
REMARK VINA RESULT:      -7.3      1.489      1.666
REMARK  Name = 
REMARK  8 active torsions:
REMARK  status: ('A' for Active; 'I' for Inactive)
REMARK    1  A    between atoms: C_1  and  C_2
REMARK    2  A    between atoms: C_3  and  C_4
REMARK    3  A    between atoms: C_4  and  C_5
REMARK    4  A    between atoms: C_8  and  C_9
REMARK    5  A    between atoms: N_11  and  C_12
REMARK    6  A    between atoms: N_11  and  C_13
REMARK    7  A    between atoms: C_13  and  C_14
REMARK    8  A    between atoms: N_18  and  C_19
REMARK                            x       y       z     vdW  Elec       q    Type
REMARK                         _______ _______ _______ _____ _____    ______ ____
ROOT
ATOM      1  C   UNL     1       5.022   6.005  17.017  0.00  0.00    +0.000 C 
ATOM      2  O   UNL     1       4.290   6.984  16.914  0.00  0.00    +0.000 OA
ATOM      3  N   UNL     1       5.005   5.257  18.225  0.00  0.00    +0.000 N 
ATOM      4  C   UNL     1       5.827   4.090  18.532  0.00  0.00    +0.000 C 
ENDROOT
BRANCH   1   8
ATOM      5  C   UNL     1       6.576   4.624  14.141  0.00  0.00    +0.000 A 
ATOM      6  N   UNL     1       7.608   5.297  14.605  0.00  0.00    +0.000 NA
ATOM      7  N   UNL     1       7.174   5.913  15.757  0.00  0.00    +0.000 NA
ATOM      8  C   UNL     1       5.916   5.601  15.920  0.00  0.00    +0.000 A 
ATOM      9  O   UNL     1       5.461   4.749  14.933  0.00  0.00    +0.000 OA
BRANCH   5  10
ATOM     10  C   UNL     1       6.448   3.788  12.914  0.00  0.00    +0.000 C 
BRANCH  10  13
ATOM     11  C   UNL     1       3.289   3.018  10.742  0.00  0.00    +0.000 C 
ATOM     12  C   UNL     1       4.706   3.182  11.187  0.00  0.00    +0.000 C 
ATOM     13  C   UNL     1       5.033   3.584  12.427  0.00  0.00    +0.000 C 
ENDBRANCH  10  13
ENDBRANCH   5  10
ENDBRANCH   1   8
BRANCH   3  14
ATOM     14  C   UNL     1       4.112   5.733  19.305  0.00  0.00    +0.000 C 
BRANCH  14  15
ATOM     15  C   UNL     1       2.702   5.080  19.333  0.00  0.00    +0.000 C 
ATOM     16  C   UNL     1       2.708   3.558  19.174  0.00  0.00    +0.000 C 
ATOM     17  C   UNL     1       1.402   3.098  19.817  0.00  0.00    +0.000 C 
ATOM     18  C   UNL     1       0.801   4.347  20.452  0.00  0.00    +0.000 C 
ATOM     19  N   UNL     1       1.959   5.243  20.606  0.00  0.00    +0.000 NA
ATOM     20  C   UNL     1       1.536   6.627  20.820  0.00  0.00    +0.000 C 
ENDBRANCH  14  15
ENDBRANCH   3  14
TORSDOF 5
ENDMDL
MODEL 8
REMARK VINA RESULT:      -7.3      1.577      1.940
REMARK  Name = 
REMARK  8 active torsions:
REMARK  status: ('A' for Active; 'I' for Inactive)
REMARK    1  A    between atoms: C_1  and  C_2
REMARK    2  A    between atoms: C_3  and  C_4
REMARK    3  A    between atoms: C_4  and  C_5
REMARK    4  A    between atoms: C_8  and  C_9
REMARK    5  A    between atoms: N_11  and  C_12
REMARK    6  A    between atoms: N_11  and  C_13
REMARK    7  A    between atoms: C_13  and  C_14
REMARK    8  A    between atoms: N_18  and  C_19
REMARK                            x       y       z     vdW  Elec       q    Type
REMARK                         _______ _______ _______ _____ _____    ______ ____
ROOT
ATOM      1  C   UNL     1       5.322   4.474  18.029  0.00  0.00    +0.000 C 
ATOM      2  O   UNL     1       5.555   3.562  18.818  0.00  0.00    +0.000 OA
ATOM      3  N   UNL     1       4.387   5.479  18.396  0.00  0.00    +0.000 N 
ATOM      4  C   UNL     1       3.968   6.612  17.575  0.00  0.00    +0.000 C 
ENDROOT
BRANCH   1   8
ATOM      5  C   UNL     1       6.233   4.443  14.600  0.00  0.00    +0.000 A 
ATOM      6  N   UNL     1       7.423   4.694  15.107  0.00  0.00    +0.000 NA
ATOM      7  N   UNL     1       7.253   4.739  16.471  0.00  0.00    +0.000 NA
ATOM      8  C   UNL     1       5.986   4.535  16.718  0.00  0.00    +0.000 A 
ATOM      9  O   UNL     1       5.264   4.309  15.563  0.00  0.00    +0.000 OA
BRANCH   5  10
ATOM     10  C   UNL     1       5.805   4.307  13.179  0.00  0.00    +0.000 C 
BRANCH  10  13
ATOM     11  C   UNL     1       6.482   1.128  11.006  0.00  0.00    +0.000 C 
ATOM     12  C   UNL     1       5.792   2.244  11.720  0.00  0.00    +0.000 C 
ATOM     13  C   UNL     1       6.459   3.175  12.422  0.00  0.00    +0.000 C 
ENDBRANCH  10  13
ENDBRANCH   5  10
ENDBRANCH   1   8
BRANCH   3  14
ATOM     14  C   UNL     1       3.726   5.343  19.713  0.00  0.00    +0.000 C 
BRANCH  14  15
ATOM     15  C   UNL     1       2.860   4.065  19.890  0.00  0.00    +0.000 C 
ATOM     16  C   UNL     1       2.555   3.705  21.346  0.00  0.00    +0.000 C 
ATOM     17  C   UNL     1       1.278   2.872  21.277  0.00  0.00    +0.000 C 
ATOM     18  C   UNL     1       0.829   2.936  19.822  0.00  0.00    +0.000 C 
ATOM     19  N   UNL     1       1.497   4.144  19.311  0.00  0.00    +0.000 NA
ATOM     20  C   UNL     1       1.523   4.161  17.848  0.00  0.00    +0.000 C 
ENDBRANCH  14  15
ENDBRANCH   3  14
TORSDOF 5
ENDMDL
MODEL 9
REMARK VINA RESULT:      -7.2      0.805      1.559
REMARK  Name = 
REMARK  8 active torsions:
REMARK  status: ('A' for Active; 'I' for Inactive)
REMARK    1  A    between atoms: C_1  and  C_2
REMARK    2  A    between atoms: C_3  and  C_4
REMARK    3  A    between atoms: C_4  and  C_5
REMARK    4  A    between atoms: C_8  and  C_9
REMARK    5  A    between atoms: N_11  and  C_12
REMARK    6  A    between atoms: N_11  and  C_13
REMARK    7  A    between atoms: C_13  and  C_14
REMARK    8  A    between atoms: N_18  and  C_19
REMARK                            x       y       z     vdW  Elec       q    Type
REMARK                         _______ _______ _______ _____ _____    ______ ____
ROOT
ATOM      1  C   UNL     1       5.717   4.215  17.497  0.00  0.00    +0.000 C 
ATOM      2  O   UNL     1       6.594   4.359  18.345  0.00  0.00    +0.000 OA
ATOM      3  N   UNL     1       4.430   3.774  17.906  0.00  0.00    +0.000 N 
ATOM      4  C   UNL     1       3.285   3.521  17.036  0.00  0.00    +0.000 C 
ENDROOT
BRANCH   1   8
ATOM      5  C   UNL     1       6.333   4.107  14.004  0.00  0.00    +0.000 A 
ATOM      6  N   UNL     1       6.416   5.411  14.168  0.00  0.00    +0.000 NA
ATOM      7  N   UNL     1       6.199   5.641  15.507  0.00  0.00    +0.000 NA
ATOM      8  C   UNL     1       5.980   4.485  16.075  0.00  0.00    +0.000 A 
ATOM      9  O   UNL     1       6.077   3.440  15.177  0.00  0.00    +0.000 OA
BRANCH   5  10
ATOM     10  C   UNL     1       6.458   3.285  12.768  0.00  0.00    +0.000 C 
BRANCH  10  13
ATOM     11  C   UNL     1       3.329   3.546  10.438  0.00  0.00    +0.000 C 
ATOM     12  C   UNL     1       4.239   3.178  11.564  0.00  0.00    +0.000 C 
ATOM     13  C   UNL     1       5.494   3.647  11.662  0.00  0.00    +0.000 C 
ENDBRANCH  10  13
ENDBRANCH   5  10
ENDBRANCH   1   8
BRANCH   3  14
ATOM     14  C   UNL     1       4.237   3.486  19.345  0.00  0.00    +0.000 C 
BRANCH  14  15
ATOM     15  C   UNL     1       3.408   4.543  20.126  0.00  0.00    +0.000 C 
ATOM     16  C   UNL     1       3.426   5.943  19.508  0.00  0.00    +0.000 C 
ATOM     17  C   UNL     1       2.150   6.606  20.020  0.00  0.00    +0.000 C 
ATOM     18  C   UNL     1       1.391   5.511  20.759  0.00  0.00    +0.000 C 
ATOM     19  N   UNL     1       1.952   4.270  20.200  0.00  0.00    +0.000 NA
ATOM     20  C   UNL     1       1.653   3.119  21.053  0.00  0.00    +0.000 C 
ENDBRANCH  14  15
ENDBRANCH   3  14
TORSDOF 5
ENDMDL
