MODEL 1
REMARK VINA RESULT:      -8.0      0.000      0.000
REMARK  Name = 
REMARK  6 active torsions:
REMARK  status: ('A' for Active; 'I' for Inactive)
REMARK    1  A    between atoms: C_1  and  O_2
REMARK    2  A    between atoms: O_2  and  C_3
REMARK    3  A    between atoms: C_5  and  C_6
REMARK    4  A    between atoms: C_18  and  O_19
REMARK    5  A    between atoms: O_19  and  C_20
REMARK    6  A    between atoms: C_20  and  C_21
REMARK                            x       y       z     vdW  Elec       q    Type
REMARK                         _______ _______ _______ _____ _____    ______ ____
ROOT
ATOM      1  C   UNL     1       4.741   6.578  16.653  0.00  0.00    +0.000 C 
ATOM      2  O   UNL     1       3.918   7.413  17.526  0.00  0.00    +0.000 OA
ATOM      3  C   UNL     1       3.193   6.657  18.503  0.00  0.00    +0.000 C 
ATOM      4  C   UNL     1       2.545   5.413  17.872  0.00  0.00    +0.000 C 
ATOM      5  O   UNL     1       2.012   4.676  18.950  0.00  0.00    +0.000 OA
ATOM      6  C   UNL     1       2.468   3.335  18.855  0.00  0.00    +0.000 C 
ATOM      7  C   UNL     1       1.173   2.500  18.897  0.00  0.00    +0.000 C 
ATOM      8  C   UNL     1       0.407   2.785  20.215  0.00  0.00    +0.000 C 
ATOM      9  C   UNL     1       1.276   2.568  21.459  0.00  0.00    +0.000 C 
ATOM     10  C   UNL     1       2.627   3.271  21.375  0.00  0.00    +0.000 C 
ATOM     11  C   UNL     1       3.327   2.972  20.065  0.00  0.00    +0.000 C 
ATOM     12  O   UNL     1       3.327   3.179  17.723  0.00  0.00    +0.000 OA
ATOM     13  C   UNL     1       3.586   4.482  17.186  0.00  0.00    +0.000 C 
ATOM     14  C   UNL     1       4.988   5.166  17.356  0.00  0.00    +0.000 C 
ENDROOT
BRANCH   1  16
ATOM     15  C   UNL     1       6.828   7.596  17.180  0.00  0.00    +0.000 C 
ATOM     16  O   UNL     1       5.918   7.210  16.170  0.00  0.00    +0.000 OA
ENDBRANCH   1  16
BRANCH   3  17
ATOM     17  C   UNL     1       2.439   7.436  19.575  0.00  0.00    +0.000 C 
ATOM     18 BR   UNL     1       1.531   9.009  18.961  0.00  0.00    +0.000 Br
ENDBRANCH   3  17
BRANCH  14  19
ATOM     19  O   UNL     1       6.293   4.529  17.163  0.00  0.00    +0.000 OA
BRANCH  19  20
ATOM     20  C   UNL     1       6.244   3.701  15.951  0.00  0.00    +0.000 C 
BRANCH  20  21
ATOM     21  C   UNL     1       6.622   4.140  14.539  0.00  0.00    +0.000 A 
ATOM     22  C   UNL     1       7.585   5.080  14.188  0.00  0.00    +0.000 A 
ATOM     23  C   UNL     1       7.889   5.302  12.824  0.00  0.00    +0.000 A 
ATOM     24  C   UNL     1       7.266   4.580  11.799  0.00  0.00    +0.000 A 
ATOM     25  C   UNL     1       6.313   3.631  12.139  0.00  0.00    +0.000 A 
ATOM     26  C   UNL     1       6.002   3.411  13.484  0.00  0.00    +0.000 A 
ENDBRANCH  20  21
ENDBRANCH  19  20
ENDBRANCH  14  19
TORSDOF 5
ENDMDL
MODEL 2
REMARK VINA RESULT:      -7.4      2.620      5.900
REMARK  Name = 
REMARK  6 active torsions:
REMARK  status: ('A' for Active; 'I' for Inactive)
REMARK    1  A    between atoms: C_1  and  O_2
REMARK    2  A    between atoms: O_2  and  C_3
REMARK    3  A    between atoms: C_5  and  C_6
REMARK    4  A    between atoms: C_18  and  O_19
REMARK    5  A    between atoms: O_19  and  C_20
REMARK    6  A    between atoms: C_20  and  C_21
REMARK                            x       y       z     vdW  Elec       q    Type
REMARK                         _______ _______ _______ _____ _____    ______ ____
ROOT
ATOM      1  C   UNL     1       6.559   6.740  17.380  0.00  0.00    +0.000 C 
ATOM      2  O   UNL     1       6.696   5.551  16.540  0.00  0.00    +0.000 OA
ATOM      3  C   UNL     1       5.646   4.598  16.743  0.00  0.00    +0.000 C 
ATOM      4  C   UNL     1       5.364   4.396  18.242  0.00  0.00    +0.000 C 
ATOM      5  O   UNL     1       4.218   3.576  18.304  0.00  0.00    +0.000 OA
ATOM      6  C   UNL     1       3.268   4.187  19.164  0.00  0.00    +0.000 C 
ATOM      7  C   UNL     1       2.933   3.084  20.187  0.00  0.00    +0.000 C 
ATOM      8  C   UNL     1       2.370   1.839  19.452  0.00  0.00    +0.000 C 
ATOM      9  C   UNL     1       1.175   2.177  18.554  0.00  0.00    +0.000 C 
ATOM     10  C   UNL     1       1.437   3.363  17.631  0.00  0.00    +0.000 C 
ATOM     11  C   UNL     1       1.998   4.545  18.394  0.00  0.00    +0.000 C 
ATOM     12  O   UNL     1       3.771   5.428  19.661  0.00  0.00    +0.000 OA
ATOM     13  C   UNL     1       4.987   5.722  18.961  0.00  0.00    +0.000 C 
ATOM     14  C   UNL     1       5.048   6.859  17.881  0.00  0.00    +0.000 C 
ENDROOT
BRANCH   1  16
ATOM     15  C   UNL     1       7.917   8.673  17.677  0.00  0.00    +0.000 C 
ATOM     16  O   UNL     1       7.085   7.929  16.809  0.00  0.00    +0.000 OA
ENDBRANCH   1  16
BRANCH   3  17
ATOM     17  C   UNL     1       5.592   3.402  15.799  0.00  0.00    +0.000 C 
ATOM     18 BR   UNL     1       6.046   3.776  13.975  0.00  0.00    +0.000 Br
ENDBRANCH   3  17
BRANCH  14  19
ATOM     19  O   UNL     1       4.474   8.201  18.001  0.00  0.00    +0.000 OA
BRANCH  19  20
ATOM     20  C   UNL     1       3.031   8.127  17.739  0.00  0.00    +0.000 C 
BRANCH  20  21
ATOM     21  C   UNL     1       1.917   8.591  18.673  0.00  0.00    +0.000 A 
ATOM     22  C   UNL     1       1.746   8.235  20.007  0.00  0.00    +0.000 A 
ATOM     23  C   UNL     1       0.714   8.835  20.769  0.00  0.00    +0.000 A 
ATOM     24  C   UNL     1      -0.136   9.807  20.229  0.00  0.00    +0.000 A 
ATOM     25  C   UNL     1       0.034  10.178  18.904  0.00  0.00    +0.000 A 
ATOM     26  C   UNL     1       1.046   9.586  18.142  0.00  0.00    +0.000 A 
ENDBRANCH  20  21
ENDBRANCH  19  20
ENDBRANCH  14  19
TORSDOF 5
ENDMDL
MODEL 3
REMARK VINA RESULT:      -7.0      0.540      1.058
REMARK  Name = 
REMARK  6 active torsions:
REMARK  status: ('A' for Active; 'I' for Inactive)
REMARK    1  A    between atoms: C_1  and  O_2
REMARK    2  A    between atoms: O_2  and  C_3
REMARK    3  A    between atoms: C_5  and  C_6
REMARK    4  A    between atoms: C_18  and  O_19
REMARK    5  A    between atoms: O_19  and  C_20
REMARK    6  A    between atoms: C_20  and  C_21
REMARK                            x       y       z     vdW  Elec       q    Type
REMARK                         _______ _______ _______ _____ _____    ______ ____
ROOT
ATOM      1  C   UNL     1       5.175   6.591  16.748  0.00  0.00    +0.000 C 
ATOM      2  O   UNL     1       4.242   7.413  17.517  0.00  0.00    +0.000 OA
ATOM      3  C   UNL     1       3.422   6.646  18.407  0.00  0.00    +0.000 C 
ATOM      4  C   UNL     1       2.872   5.391  17.710  0.00  0.00    +0.000 C 
ATOM      5  O   UNL     1       2.230   4.647  18.721  0.00  0.00    +0.000 OA
ATOM      6  C   UNL     1       2.716   3.313  18.685  0.00  0.00    +0.000 C 
ATOM      7  C   UNL     1       1.439   2.457  18.579  0.00  0.00    +0.000 C 
ATOM      8  C   UNL     1       0.521   2.731  19.800  0.00  0.00    +0.000 C 
ATOM      9  C   UNL     1       1.244   2.531  21.136  0.00  0.00    +0.000 C 
ATOM     10  C   UNL     1       2.584   3.256  21.206  0.00  0.00    +0.000 C 
ATOM     11  C   UNL     1       3.435   2.967  19.987  0.00  0.00    +0.000 C 
ATOM     12  O   UNL     1       3.702   3.170  17.660  0.00  0.00    +0.000 OA
ATOM     13  C   UNL     1       4.000   4.477  17.152  0.00  0.00    +0.000 C 
ATOM     14  C   UNL     1       5.362   5.184  17.480  0.00  0.00    +0.000 C 
ENDROOT
BRANCH   1  16
ATOM     15  C   UNL     1       6.980   7.971  17.458  0.00  0.00    +0.000 C 
ATOM     16  O   UNL     1       6.388   7.241  16.403  0.00  0.00    +0.000 OA
ENDBRANCH   1  16
BRANCH   3  17
ATOM     17  C   UNL     1       2.536   7.414  19.382  0.00  0.00    +0.000 C 
ATOM     18 BR   UNL     1       1.648   8.948  18.651  0.00  0.00    +0.000 Br
ENDBRANCH   3  17
BRANCH  14  19
ATOM     19  O   UNL     1       6.691   4.569  17.441  0.00  0.00    +0.000 OA
BRANCH  19  20
ATOM     20  C   UNL     1       7.359   4.958  16.192  0.00  0.00    +0.000 C 
BRANCH  20  21
ATOM     21  C   UNL     1       7.002   4.479  14.788  0.00  0.00    +0.000 A 
ATOM     22  C   UNL     1       5.964   3.621  14.439  0.00  0.00    +0.000 A 
ATOM     23  C   UNL     1       5.701   3.353  13.074  0.00  0.00    +0.000 A 
ATOM     24  C   UNL     1       6.439   3.951  12.046  0.00  0.00    +0.000 A 
ATOM     25  C   UNL     1       7.467   4.818  12.383  0.00  0.00    +0.000 A 
ATOM     26  C   UNL     1       7.739   5.082  13.729  0.00  0.00    +0.000 A 
ENDBRANCH  20  21
ENDBRANCH  19  20
ENDBRANCH  14  19
TORSDOF 5
ENDMDL
MODEL 4
REMARK VINA RESULT:      -6.6      2.751      7.595
REMARK  Name = 
REMARK  6 active torsions:
REMARK  status: ('A' for Active; 'I' for Inactive)
REMARK    1  A    between atoms: C_1  and  O_2
REMARK    2  A    between atoms: O_2  and  C_3
REMARK    3  A    between atoms: C_5  and  C_6
REMARK    4  A    between atoms: C_18  and  O_19
REMARK    5  A    between atoms: O_19  and  C_20
REMARK    6  A    between atoms: C_20  and  C_21
REMARK                            x       y       z     vdW  Elec       q    Type
REMARK                         _______ _______ _______ _____ _____    ______ ____
ROOT
ATOM      1  C   UNL     1       1.475   3.973  19.511  0.00  0.00    +0.000 C 
ATOM      2  O   UNL     1       2.043   2.676  19.147  0.00  0.00    +0.000 OA
ATOM      3  C   UNL     1       3.261   2.789  18.401  0.00  0.00    +0.000 C 
ATOM      4  C   UNL     1       3.142   3.860  17.304  0.00  0.00    +0.000 C 
ATOM      5  O   UNL     1       4.437   3.990  16.760  0.00  0.00    +0.000 OA
ATOM      6  C   UNL     1       4.794   5.365  16.757  0.00  0.00    +0.000 C 
ATOM      7  C   UNL     1       5.195   5.639  15.295  0.00  0.00    +0.000 C 
ATOM      8  C   UNL     1       6.370   4.710  14.890  0.00  0.00    +0.000 C 
ATOM      9  C   UNL     1       7.562   4.818  15.848  0.00  0.00    +0.000 C 
ATOM     10  C   UNL     1       7.163   4.693  17.315  0.00  0.00    +0.000 C 
ATOM     11  C   UNL     1       6.005   5.608  17.654  0.00  0.00    +0.000 C 
ATOM     12  O   UNL     1       3.743   6.153  17.320  0.00  0.00    +0.000 OA
ATOM     13  C   UNL     1       2.770   5.258  17.874  0.00  0.00    +0.000 C 
ATOM     14  C   UNL     1       2.613   5.089  19.426  0.00  0.00    +0.000 C 
ENDROOT
BRANCH   1  16
ATOM     15  C   UNL     1       1.187   3.034  21.680  0.00  0.00    +0.000 C 
ATOM     16  O   UNL     1       0.738   3.974  20.725  0.00  0.00    +0.000 OA
ENDBRANCH   1  16
BRANCH   3  17
ATOM     17  C   UNL     1       4.032   1.504  18.118  0.00  0.00    +0.000 C 
ATOM     18 BR   UNL     1       4.824   0.668  19.651  0.00  0.00    +0.000 Br
ENDBRANCH   3  17
BRANCH  14  19
ATOM     19  O   UNL     1       2.584   6.167  20.418  0.00  0.00    +0.000 OA
BRANCH  19  20
ATOM     20  C   UNL     1       2.142   7.404  19.763  0.00  0.00    +0.000 C 
BRANCH  20  21
ATOM     21  C   UNL     1       1.332   8.528  20.404  0.00  0.00    +0.000 A 
ATOM     22  C   UNL     1       0.666   9.556  19.745  0.00  0.00    +0.000 A 
ATOM     23  C   UNL     1      -0.129  10.466  20.482  0.00  0.00    +0.000 A 
ATOM     24  C   UNL     1      -0.296  10.352  21.867  0.00  0.00    +0.000 A 
ATOM     25  C   UNL     1       0.354   9.323  22.532  0.00  0.00    +0.000 A 
ATOM     26  C   UNL     1       1.148   8.424  21.813  0.00  0.00    +0.000 A 
ENDBRANCH  20  21
ENDBRANCH  19  20
ENDBRANCH  14  19
TORSDOF 5
ENDMDL
MODEL 5
REMARK VINA RESULT:      -6.6      2.705      5.881
REMARK  Name = 
REMARK  6 active torsions:
REMARK  status: ('A' for Active; 'I' for Inactive)
REMARK    1  A    between atoms: C_1  and  O_2
REMARK    2  A    between atoms: O_2  and  C_3
REMARK    3  A    between atoms: C_5  and  C_6
REMARK    4  A    between atoms: C_18  and  O_19
REMARK    5  A    between atoms: O_19  and  C_20
REMARK    6  A    between atoms: C_20  and  C_21
REMARK                            x       y       z     vdW  Elec       q    Type
REMARK                         _______ _______ _______ _____ _____    ______ ____
ROOT
ATOM      1  C   UNL     1       6.418   6.840  17.431  0.00  0.00    +0.000 C 
ATOM      2  O   UNL     1       6.570   5.637  16.615  0.00  0.00    +0.000 OA
ATOM      3  C   UNL     1       5.517   4.686  16.818  0.00  0.00    +0.000 C 
ATOM      4  C   UNL     1       5.211   4.510  18.314  0.00  0.00    +0.000 C 
ATOM      5  O   UNL     1       4.064   3.691  18.372  0.00  0.00    +0.000 OA
ATOM      6  C   UNL     1       3.099   4.315  19.205  0.00  0.00    +0.000 C 
ATOM      7  C   UNL     1       2.748   3.230  20.242  0.00  0.00    +0.000 C 
ATOM      8  C   UNL     1       2.198   1.972  19.519  0.00  0.00    +0.000 C 
ATOM      9  C   UNL     1       1.018   2.293  18.596  0.00  0.00    +0.000 C 
ATOM     10  C   UNL     1       1.295   3.463  17.657  0.00  0.00    +0.000 C 
ATOM     11  C   UNL     1       1.842   4.659  18.408  0.00  0.00    +0.000 C 
ATOM     12  O   UNL     1       3.593   5.566  19.688  0.00  0.00    +0.000 OA
ATOM     13  C   UNL     1       4.820   5.848  19.004  0.00  0.00    +0.000 C 
ATOM     14  C   UNL     1       4.899   6.966  17.905  0.00  0.00    +0.000 C 
ENDROOT
BRANCH   1  16
ATOM     15  C   UNL     1       7.886   8.699  17.663  0.00  0.00    +0.000 C 
ATOM     16  O   UNL     1       6.953   8.019  16.849  0.00  0.00    +0.000 OA
ENDBRANCH   1  16
BRANCH   3  17
ATOM     17  C   UNL     1       5.479   3.474  15.894  0.00  0.00    +0.000 C 
ATOM     18 BR   UNL     1       6.048   3.797  14.092  0.00  0.00    +0.000 Br
ENDBRANCH   3  17
BRANCH  14  19
ATOM     19  O   UNL     1       4.322   8.309  17.992  0.00  0.00    +0.000 OA
BRANCH  19  20
ATOM     20  C   UNL     1       2.892   8.235  17.669  0.00  0.00    +0.000 C 
BRANCH  20  21
ATOM     21  C   UNL     1       1.847   9.316  17.934  0.00  0.00    +0.000 A 
ATOM     22  C   UNL     1       0.470   9.138  18.030  0.00  0.00    +0.000 A 
ATOM     23  C   UNL     1      -0.358  10.230  18.382  0.00  0.00    +0.000 A 
ATOM     24  C   UNL     1       0.167  11.496  18.670  0.00  0.00    +0.000 A 
ATOM     25  C   UNL     1       1.539  11.680  18.590  0.00  0.00    +0.000 A 
ATOM     26  C   UNL     1       2.364  10.609  18.235  0.00  0.00    +0.000 A 
ENDBRANCH  20  21
ENDBRANCH  19  20
ENDBRANCH  14  19
TORSDOF 5
ENDMDL
MODEL 6
REMARK VINA RESULT:      -6.3      2.614      7.072
REMARK  Name = 
REMARK  6 active torsions:
REMARK  status: ('A' for Active; 'I' for Inactive)
REMARK    1  A    between atoms: C_1  and  O_2
REMARK    2  A    between atoms: O_2  and  C_3
REMARK    3  A    between atoms: C_5  and  C_6
REMARK    4  A    between atoms: C_18  and  O_19
REMARK    5  A    between atoms: O_19  and  C_20
REMARK    6  A    between atoms: C_20  and  C_21
REMARK                            x       y       z     vdW  Elec       q    Type
REMARK                         _______ _______ _______ _____ _____    ______ ____
ROOT
ATOM      1  C   UNL     1       1.565   3.981  19.588  0.00  0.00    +0.000 C 
ATOM      2  O   UNL     1       2.092   2.681  19.177  0.00  0.00    +0.000 OA
ATOM      3  C   UNL     1       3.284   2.783  18.390  0.00  0.00    +0.000 C 
ATOM      4  C   UNL     1       3.150   3.879  17.319  0.00  0.00    +0.000 C 
ATOM      5  O   UNL     1       4.427   3.993  16.733  0.00  0.00    +0.000 OA
ATOM      6  C   UNL     1       4.814   5.359  16.744  0.00  0.00    +0.000 C 
ATOM      7  C   UNL     1       5.169   5.655  15.274  0.00  0.00    +0.000 C 
ATOM      8  C   UNL     1       6.308   4.710  14.809  0.00  0.00    +0.000 C 
ATOM      9  C   UNL     1       7.535   4.773  15.725  0.00  0.00    +0.000 C 
ATOM     10  C   UNL     1       7.186   4.625  17.202  0.00  0.00    +0.000 C 
ATOM     11  C   UNL     1       6.062   5.558  17.602  0.00  0.00    +0.000 C 
ATOM     12  O   UNL     1       3.801   6.158  17.360  0.00  0.00    +0.000 OA
ATOM     13  C   UNL     1       2.829   5.272  17.930  0.00  0.00    +0.000 C 
ATOM     14  C   UNL     1       2.724   5.074  19.484  0.00  0.00    +0.000 C 
ENDROOT
BRANCH   1  16
ATOM     15  C   UNL     1       1.288   2.959  21.720  0.00  0.00    +0.000 C 
ATOM     16  O   UNL     1       0.872   3.973  20.827  0.00  0.00    +0.000 OA
ENDBRANCH   1  16
BRANCH   3  17
ATOM     17  C   UNL     1       4.016   1.488  18.054  0.00  0.00    +0.000 C 
ATOM     18 BR   UNL     1       4.802   0.578  19.546  0.00  0.00    +0.000 Br
ENDBRANCH   3  17
BRANCH  14  19
ATOM     19  O   UNL     1       2.754   6.131  20.497  0.00  0.00    +0.000 OA
BRANCH  19  20
ATOM     20  C   UNL     1       1.567   6.980  20.336  0.00  0.00    +0.000 C 
BRANCH  20  21
ATOM     21  C   UNL     1       1.533   8.385  19.742  0.00  0.00    +0.000 A 
ATOM     22  C   UNL     1       1.937   8.760  18.464  0.00  0.00    +0.000 A 
ATOM     23  C   UNL     1       1.746  10.093  18.028  0.00  0.00    +0.000 A 
ATOM     24  C   UNL     1       1.132  11.057  18.836  0.00  0.00    +0.000 A 
ATOM     25  C   UNL     1       0.715  10.690  20.107  0.00  0.00    +0.000 A 
ATOM     26  C   UNL     1       0.906   9.378  20.549  0.00  0.00    +0.000 A 
ENDBRANCH  20  21
ENDBRANCH  19  20
ENDBRANCH  14  19
TORSDOF 5
ENDMDL
MODEL 7
REMARK VINA RESULT:      -6.3      8.016     10.878
REMARK  Name = 
REMARK  6 active torsions:
REMARK  status: ('A' for Active; 'I' for Inactive)
REMARK    1  A    between atoms: C_1  and  O_2
REMARK    2  A    between atoms: O_2  and  C_3
REMARK    3  A    between atoms: C_5  and  C_6
REMARK    4  A    between atoms: C_18  and  O_19
REMARK    5  A    between atoms: O_19  and  C_20
REMARK    6  A    between atoms: C_20  and  C_21
REMARK                            x       y       z     vdW  Elec       q    Type
REMARK                         _______ _______ _______ _____ _____    ______ ____
ROOT
ATOM      1  C   UNL     1      -1.077  14.250  23.399  0.00  0.00    +0.000 C 
ATOM      2  O   UNL     1      -1.307  12.859  23.788  0.00  0.00    +0.000 OA
ATOM      3  C   UNL     1      -1.069  11.933  22.722  0.00  0.00    +0.000 C 
ATOM      4  C   UNL     1      -1.695  12.428  21.407  0.00  0.00    +0.000 C 
ATOM      5  O   UNL     1      -1.254  11.527  20.415  0.00  0.00    +0.000 OA
ATOM      6  C   UNL     1      -0.698  12.270  19.340  0.00  0.00    +0.000 C 
ATOM      7  C   UNL     1      -1.463  11.758  18.104  0.00  0.00    +0.000 C 
ATOM      8  C   UNL     1      -1.253  10.228  17.953  0.00  0.00    +0.000 C 
ATOM      9  C   UNL     1       0.229   9.838  17.920  0.00  0.00    +0.000 C 
ATOM     10  C   UNL     1       1.035  10.454  19.058  0.00  0.00    +0.000 C 
ATOM     11  C   UNL     1       0.785  11.944  19.172  0.00  0.00    +0.000 C 
ATOM     12  O   UNL     1      -0.748  13.670  19.623  0.00  0.00    +0.000 OA
ATOM     13  C   UNL     1      -1.165  13.828  20.985  0.00  0.00    +0.000 C 
ATOM     14  C   UNL     1      -0.155  14.286  22.096  0.00  0.00    +0.000 C 
ENDROOT
BRANCH   1  16
ATOM     15  C   UNL     1      -1.683  15.647  25.229  0.00  0.00    +0.000 C 
ATOM     16  O   UNL     1      -0.639  15.093  24.454  0.00  0.00    +0.000 OA
ENDBRANCH   1  16
BRANCH   3  17
ATOM     17  C   UNL     1      -1.109  10.447  23.061  0.00  0.00    +0.000 C 
ATOM     18 BR   UNL     1       0.498   9.474  22.678  0.00  0.00    +0.000 Br
ENDBRANCH   3  17
BRANCH  14  19
ATOM     19  O   UNL     1       0.824  15.369  21.986  0.00  0.00    +0.000 OA
BRANCH  19  20
ATOM     20  C   UNL     1       2.078  14.825  21.451  0.00  0.00    +0.000 C 
BRANCH  20  21
ATOM     21  C   UNL     1       2.673  15.105  20.074  0.00  0.00    +0.000 A 
ATOM     22  C   UNL     1       3.654  14.363  19.423  0.00  0.00    +0.000 A 
ATOM     23  C   UNL     1       4.027  14.697  18.100  0.00  0.00    +0.000 A 
ATOM     24  C   UNL     1       3.417  15.744  17.399  0.00  0.00    +0.000 A 
ATOM     25  C   UNL     1       2.429  16.482  18.035  0.00  0.00    +0.000 A 
ATOM     26  C   UNL     1       2.059  16.164  19.345  0.00  0.00    +0.000 A 
ENDBRANCH  20  21
ENDBRANCH  19  20
ENDBRANCH  14  19
TORSDOF 5
ENDMDL
MODEL 8
REMARK VINA RESULT:      -6.3      2.666      6.965
REMARK  Name = 
REMARK  6 active torsions:
REMARK  status: ('A' for Active; 'I' for Inactive)
REMARK    1  A    between atoms: C_1  and  O_2
REMARK    2  A    between atoms: O_2  and  C_3
REMARK    3  A    between atoms: C_5  and  C_6
REMARK    4  A    between atoms: C_18  and  O_19
REMARK    5  A    between atoms: O_19  and  C_20
REMARK    6  A    between atoms: C_20  and  C_21
REMARK                            x       y       z     vdW  Elec       q    Type
REMARK                         _______ _______ _______ _____ _____    ______ ____
ROOT
ATOM      1  C   UNL     1       1.430   2.972  19.803  0.00  0.00    +0.000 C 
ATOM      2  O   UNL     1       2.389   1.868  19.792  0.00  0.00    +0.000 OA
ATOM      3  C   UNL     1       3.621   2.203  19.142  0.00  0.00    +0.000 C 
ATOM      4  C   UNL     1       3.365   2.951  17.822  0.00  0.00    +0.000 C 
ATOM      5  O   UNL     1       4.635   3.366  17.370  0.00  0.00    +0.000 OA
ATOM      6  C   UNL     1       4.585   4.755  17.082  0.00  0.00    +0.000 C 
ATOM      7  C   UNL     1       5.102   4.850  15.633  0.00  0.00    +0.000 C 
ATOM      8  C   UNL     1       6.537   4.268  15.548  0.00  0.00    +0.000 C 
ATOM      9  C   UNL     1       7.497   4.921  16.549  0.00  0.00    +0.000 C 
ATOM     10  C   UNL     1       6.941   4.966  17.968  0.00  0.00    +0.000 C 
ATOM     11  C   UNL     1       5.534   5.529  17.995  0.00  0.00    +0.000 C 
ATOM     12  O   UNL     1       3.284   5.275  17.362  0.00  0.00    +0.000 OA
ATOM     13  C   UNL     1       2.534   4.249  18.025  0.00  0.00    +0.000 C 
ATOM     14  C   UNL     1       2.206   4.345  19.557  0.00  0.00    +0.000 C 
ENDROOT
BRANCH   1  16
ATOM     15  C   UNL     1       1.161   2.602  22.139  0.00  0.00    +0.000 C 
ATOM     16  O   UNL     1       0.555   2.982  20.920  0.00  0.00    +0.000 OA
ENDBRANCH   1  16
BRANCH   3  17
ATOM     17  C   UNL     1       4.756   1.188  19.224  0.00  0.00    +0.000 C 
ATOM     18 BR   UNL     1       5.356   0.770  20.996  0.00  0.00    +0.000 Br
ENDBRANCH   3  17
BRANCH  14  19
ATOM     19  O   UNL     1       1.730   5.532  20.270  0.00  0.00    +0.000 OA
BRANCH  19  20
ATOM     20  C   UNL     1       2.465   6.707  19.784  0.00  0.00    +0.000 C 
BRANCH  20  21
ATOM     21  C   UNL     1       1.877   8.082  19.482  0.00  0.00    +0.000 A 
ATOM     22  C   UNL     1       1.195   8.910  20.368  0.00  0.00    +0.000 A 
ATOM     23  C   UNL     1       0.799  10.205  19.959  0.00  0.00    +0.000 A 
ATOM     24  C   UNL     1       1.096  10.704  18.685  0.00  0.00    +0.000 A 
ATOM     25  C   UNL     1       1.785   9.891  17.798  0.00  0.00    +0.000 A 
ATOM     26  C   UNL     1       2.174   8.607  18.191  0.00  0.00    +0.000 A 
ENDBRANCH  20  21
ENDBRANCH  19  20
ENDBRANCH  14  19
TORSDOF 5
ENDMDL
MODEL 9
REMARK VINA RESULT:      -6.1      3.380      6.130
REMARK  Name = 
REMARK  6 active torsions:
REMARK  status: ('A' for Active; 'I' for Inactive)
REMARK    1  A    between atoms: C_1  and  O_2
REMARK    2  A    between atoms: O_2  and  C_3
REMARK    3  A    between atoms: C_5  and  C_6
REMARK    4  A    between atoms: C_18  and  O_19
REMARK    5  A    between atoms: O_19  and  C_20
REMARK    6  A    between atoms: C_20  and  C_21
REMARK                            x       y       z     vdW  Elec       q    Type
REMARK                         _______ _______ _______ _____ _____    ______ ____
ROOT
ATOM      1  C   UNL     1       2.567   6.882  20.228  0.00  0.00    +0.000 C 
ATOM      2  O   UNL     1       1.584   7.116  21.285  0.00  0.00    +0.000 OA
ATOM      3  C   UNL     1       0.603   8.097  20.929  0.00  0.00    +0.000 C 
ATOM      4  C   UNL     1       1.258   9.321  20.267  0.00  0.00    +0.000 C 
ATOM      5  O   UNL     1       0.190  10.126  19.819  0.00  0.00    +0.000 OA
ATOM      6  C   UNL     1       0.402  10.444  18.452  0.00  0.00    +0.000 C 
ATOM      7  C   UNL     1       0.313  11.982  18.412  0.00  0.00    +0.000 C 
ATOM      8  C   UNL     1      -1.075  12.441  18.930  0.00  0.00    +0.000 C 
ATOM      9  C   UNL     1      -2.233  11.775  18.180  0.00  0.00    +0.000 C 
ATOM     10  C   UNL     1      -2.090  10.260  18.083  0.00  0.00    +0.000 C 
ATOM     11  C   UNL     1      -0.715   9.864  17.585  0.00  0.00    +0.000 C 
ATOM     12  O   UNL     1       1.603   9.832  17.978  0.00  0.00    +0.000 OA
ATOM     13  C   UNL     1       2.077   8.946  19.000  0.00  0.00    +0.000 C 
ATOM     14  C   UNL     1       1.973   7.389  18.835  0.00  0.00    +0.000 C 
ENDROOT
BRANCH   1  16
ATOM     15  C   UNL     1       2.296   4.598  20.845  0.00  0.00    +0.000 C 
ATOM     16  O   UNL     1       3.098   5.565  20.198  0.00  0.00    +0.000 OA
ENDBRANCH   1  16
BRANCH   3  17
ATOM     17  C   UNL     1      -0.569   8.296  21.884  0.00  0.00    +0.000 C 
ATOM     18 BR   UNL     1      -0.352   9.700  23.170  0.00  0.00    +0.000 Br
ENDBRANCH   3  17
BRANCH  14  19
ATOM     19  O   UNL     1       2.304   6.619  17.634  0.00  0.00    +0.000 OA
BRANCH  19  20
ATOM     20  C   UNL     1       3.659   6.979  17.196  0.00  0.00    +0.000 C 
BRANCH  20  21
ATOM     21  C   UNL     1       4.851   6.034  17.072  0.00  0.00    +0.000 A 
ATOM     22  C   UNL     1       5.095   5.132  16.042  0.00  0.00    +0.000 A 
ATOM     23  C   UNL     1       6.304   4.396  16.022  0.00  0.00    +0.000 A 
ATOM     24  C   UNL     1       7.291   4.565  17.001  0.00  0.00    +0.000 A 
ATOM     25  C   UNL     1       7.062   5.471  18.026  0.00  0.00    +0.000 A 
ATOM     26  C   UNL     1       5.867   6.197  18.057  0.00  0.00    +0.000 A 
ENDBRANCH  20  21
ENDBRANCH  19  20
ENDBRANCH  14  19
TORSDOF 5
ENDMDL
