MODEL 1
REMARK VINA RESULT:      -7.6      0.000      0.000
REMARK  Name = 
REMARK  9 active torsions:
REMARK  status: ('A' for Active; 'I' for Inactive)
REMARK    1  A    between atoms: C_1  and  C_2
REMARK    2  A    between atoms: C_2  and  C_3
REMARK    3  A    between atoms: C_2  and  N_4
REMARK    4  A    between atoms: N_4  and  C_21
REMARK    5  A    between atoms: C_5  and  C_7
REMARK    6  A    between atoms: C_7  and  O_8
REMARK    7  A    between atoms: O_8  and  C_9
REMARK    8  A    between atoms: C_9  and  C_11
REMARK    9  A    between atoms: C_11  and  N_12
REMARK                            x       y       z     vdW  Elec       q    Type
REMARK                         _______ _______ _______ _____ _____    ______ ____
ROOT
ATOM      1  C   UNL     1       5.989   5.933  19.166  0.00  0.00    +0.000 C 
ENDROOT
BRANCH   1   3
ATOM      2  N   UNL     1       3.524   5.389  19.347  0.00  0.00    +0.000 N 
ATOM      3  C   UNL     1       4.854   4.919  19.335  0.00  0.00    +0.000 C 
ATOM      4  O   UNL     1       5.153   3.724  19.469  0.00  0.00    +0.000 OA
BRANCH   2   5
ATOM      5  C   UNL     1       2.481   4.412  19.534  0.00  0.00    +0.000 A 
ATOM      6  C   UNL     1       2.134   3.982  20.824  0.00  0.00    +0.000 A 
ATOM      7  C   UNL     1       1.168   2.991  21.010  0.00  0.00    +0.000 A 
ATOM      8  C   UNL     1       0.507   2.444  19.913  0.00  0.00    +0.000 A 
ATOM      9  C   UNL     1       0.815   2.888  18.629  0.00  0.00    +0.000 A 
ATOM     10  C   UNL     1       1.806   3.858  18.439  0.00  0.00    +0.000 A 
ENDBRANCH   2   5
BRANCH   2  12
ATOM     11  C   UNL     1       2.771   7.301  17.833  0.00  0.00    +0.000 C 
ATOM     12  C   UNL     1       3.058   6.809  19.257  0.00  0.00    +0.000 C 
ATOM     13  C   UNL     1       1.920   7.149  20.229  0.00  0.00    +0.000 C 
ENDBRANCH   2  12
ENDBRANCH   1   3
BRANCH   1  14
ATOM     14  O   UNL     1       7.307   5.372  19.184  0.00  0.00    +0.000 OA
BRANCH  14  15
ATOM     15  C   UNL     1       7.793   4.975  17.980  0.00  0.00    +0.000 C 
ATOM     16  O   UNL     1       8.531   4.013  17.793  0.00  0.00    +0.000 OA
BRANCH  15  17
ATOM     17  C   UNL     1       7.165   5.762  16.862  0.00  0.00    +0.000 C 
BRANCH  17  18
ATOM     18  N   UNL     1       6.645   4.858  15.856  0.00  0.00    +0.000 N 
ATOM     19  C   UNL     1       5.681   3.913  16.073  0.00  0.00    +0.000 A 
ATOM     20  N   UNL     1       5.360   3.284  14.965  0.00  0.00    +0.000 NA
ATOM     21  C   UNL     1       6.144   3.845  13.989  0.00  0.00    +0.000 A 
ATOM     22  C   UNL     1       6.200   3.563  12.618  0.00  0.00    +0.000 A 
ATOM     23  C   UNL     1       7.089   4.286  11.814  0.00  0.00    +0.000 A 
ATOM     24  C   UNL     1       7.904   5.277  12.367  0.00  0.00    +0.000 A 
ATOM     25  C   UNL     1       7.859   5.578  13.734  0.00  0.00    +0.000 A 
ATOM     26  C   UNL     1       6.968   4.842  14.520  0.00  0.00    +0.000 A 
ENDBRANCH  17  18
ENDBRANCH  15  17
ENDBRANCH  14  15
ENDBRANCH   1  14
TORSDOF 7
ENDMDL
MODEL 2
REMARK VINA RESULT:      -7.2      4.145      8.391
REMARK  Name = 
REMARK  9 active torsions:
REMARK  status: ('A' for Active; 'I' for Inactive)
REMARK    1  A    between atoms: C_1  and  C_2
REMARK    2  A    between atoms: C_2  and  C_3
REMARK    3  A    between atoms: C_2  and  N_4
REMARK    4  A    between atoms: N_4  and  C_21
REMARK    5  A    between atoms: C_5  and  C_7
REMARK    6  A    between atoms: C_7  and  O_8
REMARK    7  A    between atoms: O_8  and  C_9
REMARK    8  A    between atoms: C_9  and  C_11
REMARK    9  A    between atoms: C_11  and  N_12
REMARK                            x       y       z     vdW  Elec       q    Type
REMARK                         _______ _______ _______ _____ _____    ______ ____
ROOT
ATOM      1  C   UNL     1       2.941   7.931  17.749  0.00  0.00    +0.000 C 
ENDROOT
BRANCH   1   3
ATOM      2  N   UNL     1       3.914   5.596  17.695  0.00  0.00    +0.000 N 
ATOM      3  C   UNL     1       2.898   6.457  18.161  0.00  0.00    +0.000 C 
ATOM      4  O   UNL     1       1.961   6.077  18.876  0.00  0.00    +0.000 OA
BRANCH   2   5
ATOM      5  C   UNL     1       3.830   4.208  18.079  0.00  0.00    +0.000 A 
ATOM      6  C   UNL     1       3.004   3.325  17.368  0.00  0.00    +0.000 A 
ATOM      7  C   UNL     1       2.870   1.994  17.771  0.00  0.00    +0.000 A 
ATOM      8  C   UNL     1       3.586   1.519  18.866  0.00  0.00    +0.000 A 
ATOM      9  C   UNL     1       4.438   2.376  19.558  0.00  0.00    +0.000 A 
ATOM     10  C   UNL     1       4.550   3.718  19.175  0.00  0.00    +0.000 A 
ENDBRANCH   2   5
BRANCH   2  12
ATOM     11  C   UNL     1       6.344   6.351  17.492  0.00  0.00    +0.000 C 
ATOM     12  C   UNL     1       5.050   5.935  16.781  0.00  0.00    +0.000 C 
ATOM     13  C   UNL     1       5.298   4.887  15.688  0.00  0.00    +0.000 C 
ENDBRANCH   2  12
ENDBRANCH   1   3
BRANCH   1  14
ATOM     14  O   UNL     1       2.285   8.829  18.652  0.00  0.00    +0.000 OA
BRANCH  14  15
ATOM     15  C   UNL     1       1.749   9.943  18.088  0.00  0.00    +0.000 C 
ATOM     16  O   UNL     1       2.379  10.813  17.496  0.00  0.00    +0.000 OA
BRANCH  15  17
ATOM     17  C   UNL     1       0.247   9.891  18.122  0.00  0.00    +0.000 C 
BRANCH  17  18
ATOM     18  N   UNL     1      -0.250  10.730  19.193  0.00  0.00    +0.000 N 
ATOM     19  C   UNL     1      -0.748  11.994  19.035  0.00  0.00    +0.000 A 
ATOM     20  N   UNL     1      -1.185  12.489  20.170  0.00  0.00    +0.000 NA
ATOM     21  C   UNL     1      -0.966  11.508  21.103  0.00  0.00    +0.000 A 
ATOM     22  C   UNL     1      -1.256  11.499  22.473  0.00  0.00    +0.000 A 
ATOM     23  C   UNL     1      -0.941  10.361  23.224  0.00  0.00    +0.000 A 
ATOM     24  C   UNL     1      -0.349   9.250  22.619  0.00  0.00    +0.000 A 
ATOM     25  C   UNL     1      -0.055   9.237  21.250  0.00  0.00    +0.000 A 
ATOM     26  C   UNL     1      -0.375  10.384  20.518  0.00  0.00    +0.000 A 
ENDBRANCH  17  18
ENDBRANCH  15  17
ENDBRANCH  14  15
ENDBRANCH   1  14
TORSDOF 7
ENDMDL
MODEL 3
REMARK VINA RESULT:      -7.1      4.086      8.271
REMARK  Name = 
REMARK  9 active torsions:
REMARK  status: ('A' for Active; 'I' for Inactive)
REMARK    1  A    between atoms: C_1  and  C_2
REMARK    2  A    between atoms: C_2  and  C_3
REMARK    3  A    between atoms: C_2  and  N_4
REMARK    4  A    between atoms: N_4  and  C_21
REMARK    5  A    between atoms: C_5  and  C_7
REMARK    6  A    between atoms: C_7  and  O_8
REMARK    7  A    between atoms: O_8  and  C_9
REMARK    8  A    between atoms: C_9  and  C_11
REMARK    9  A    between atoms: C_11  and  N_12
REMARK                            x       y       z     vdW  Elec       q    Type
REMARK                         _______ _______ _______ _____ _____    ______ ____
ROOT
ATOM      1  C   UNL     1       2.839   7.847  18.133  0.00  0.00    +0.000 C 
ENDROOT
BRANCH   1   3
ATOM      2  N   UNL     1       2.777   5.398  18.767  0.00  0.00    +0.000 N 
ATOM      3  C   UNL     1       2.530   6.736  19.140  0.00  0.00    +0.000 C 
ATOM      4  O   UNL     1       2.060   7.058  20.240  0.00  0.00    +0.000 OA
BRANCH   2   5
ATOM      5  C   UNL     1       2.450   4.374  19.729  0.00  0.00    +0.000 A 
ATOM      6  C   UNL     1       3.469   3.681  20.400  0.00  0.00    +0.000 A 
ATOM      7  C   UNL     1       3.162   2.646  21.287  0.00  0.00    +0.000 A 
ATOM      8  C   UNL     1       1.834   2.315  21.543  0.00  0.00    +0.000 A 
ATOM      9  C   UNL     1       0.812   3.020  20.912  0.00  0.00    +0.000 A 
ATOM     10  C   UNL     1       1.119   4.036  19.999  0.00  0.00    +0.000 A 
ENDBRANCH   2   5
BRANCH   2  12
ATOM     11  C   UNL     1       4.805   4.931  17.289  0.00  0.00    +0.000 C 
ATOM     12  C   UNL     1       3.280   4.896  17.449  0.00  0.00    +0.000 C 
ATOM     13  C   UNL     1       2.682   3.546  17.033  0.00  0.00    +0.000 C 
ENDBRANCH   2  12
ENDBRANCH   1   3
BRANCH   1  14
ATOM     14  O   UNL     1       1.688   8.453  17.532  0.00  0.00    +0.000 OA
BRANCH  14  15
ATOM     15  C   UNL     1       1.414   9.721  17.935  0.00  0.00    +0.000 C 
ATOM     16  O   UNL     1       2.236  10.622  18.056  0.00  0.00    +0.000 OA
BRANCH  15  17
ATOM     17  C   UNL     1      -0.070   9.938  18.046  0.00  0.00    +0.000 C 
BRANCH  17  18
ATOM     18  N   UNL     1      -0.360  10.780  19.189  0.00  0.00    +0.000 N 
ATOM     19  C   UNL     1      -0.683  12.107  19.124  0.00  0.00    +0.000 A 
ATOM     20  N   UNL     1      -0.958  12.598  20.311  0.00  0.00    +0.000 NA
ATOM     21  C   UNL     1      -0.811  11.547  21.181  0.00  0.00    +0.000 A 
ATOM     22  C   UNL     1      -0.995  11.506  22.569  0.00  0.00    +0.000 A 
ATOM     23  C   UNL     1      -0.790  10.298  23.244  0.00  0.00    +0.000 A 
ATOM     24  C   UNL     1      -0.410   9.148  22.546  0.00  0.00    +0.000 A 
ATOM     25  C   UNL     1      -0.225   9.167  21.158  0.00  0.00    +0.000 A 
ATOM     26  C   UNL     1      -0.433  10.385  20.503  0.00  0.00    +0.000 A 
ENDBRANCH  17  18
ENDBRANCH  15  17
ENDBRANCH  14  15
ENDBRANCH   1  14
TORSDOF 7
ENDMDL
MODEL 4
REMARK VINA RESULT:      -7.1      4.116      8.490
REMARK  Name = 
REMARK  9 active torsions:
REMARK  status: ('A' for Active; 'I' for Inactive)
REMARK    1  A    between atoms: C_1  and  C_2
REMARK    2  A    between atoms: C_2  and  C_3
REMARK    3  A    between atoms: C_2  and  N_4
REMARK    4  A    between atoms: N_4  and  C_21
REMARK    5  A    between atoms: C_5  and  C_7
REMARK    6  A    between atoms: C_7  and  O_8
REMARK    7  A    between atoms: O_8  and  C_9
REMARK    8  A    between atoms: C_9  and  C_11
REMARK    9  A    between atoms: C_11  and  N_12
REMARK                            x       y       z     vdW  Elec       q    Type
REMARK                         _______ _______ _______ _____ _____    ______ ____
ROOT
ATOM      1  C   UNL     1       3.026   8.091  17.793  0.00  0.00    +0.000 C 
ENDROOT
BRANCH   1   3
ATOM      2  N   UNL     1       3.928   5.731  17.649  0.00  0.00    +0.000 N 
ATOM      3  C   UNL     1       2.948   6.607  18.163  0.00  0.00    +0.000 C 
ATOM      4  O   UNL     1       2.017   6.233  18.888  0.00  0.00    +0.000 OA
BRANCH   2   5
ATOM      5  C   UNL     1       3.811   4.336  17.995  0.00  0.00    +0.000 A 
ATOM      6  C   UNL     1       2.947   3.497  17.275  0.00  0.00    +0.000 A 
ATOM      7  C   UNL     1       2.782   2.159  17.642  0.00  0.00    +0.000 A 
ATOM      8  C   UNL     1       3.505   1.633  18.708  0.00  0.00    +0.000 A 
ATOM      9  C   UNL     1       4.395   2.445  19.408  0.00  0.00    +0.000 A 
ATOM     10  C   UNL     1       4.538   3.793  19.061  0.00  0.00    +0.000 A 
ENDBRANCH   2   5
BRANCH   2  12
ATOM     11  C   UNL     1       6.347   6.509  17.410  0.00  0.00    +0.000 C 
ATOM     12  C   UNL     1       5.052   6.064  16.719  0.00  0.00    +0.000 C 
ATOM     13  C   UNL     1       5.303   4.997  15.646  0.00  0.00    +0.000 C 
ENDBRANCH   2  12
ENDBRANCH   1   3
BRANCH   1  14
ATOM     14  O   UNL     1       1.766   8.706  17.500  0.00  0.00    +0.000 OA
BRANCH  14  15
ATOM     15  C   UNL     1       1.581   9.946  18.024  0.00  0.00    +0.000 C 
ATOM     16  O   UNL     1       2.414  10.846  18.031  0.00  0.00    +0.000 OA
BRANCH  15  17
ATOM     17  C   UNL     1       0.150  10.143  18.442  0.00  0.00    +0.000 C 
BRANCH  17  18
ATOM     18  N   UNL     1       0.036  10.010  19.880  0.00  0.00    +0.000 N 
ATOM     19  C   UNL     1       0.722   9.105  20.642  0.00  0.00    +0.000 A 
ATOM     20  N   UNL     1       0.468   9.256  21.922  0.00  0.00    +0.000 NA
ATOM     21  C   UNL     1      -0.415  10.303  21.996  0.00  0.00    +0.000 A 
ATOM     22  C   UNL     1      -1.004  10.895  23.120  0.00  0.00    +0.000 A 
ATOM     23  C   UNL     1      -1.879  11.971  22.938  0.00  0.00    +0.000 A 
ATOM     24  C   UNL     1      -2.161  12.451  21.656  0.00  0.00    +0.000 A 
ATOM     25  C   UNL     1      -1.579  11.876  20.519  0.00  0.00    +0.000 A 
ATOM     26  C   UNL     1      -0.709  10.800  20.723  0.00  0.00    +0.000 A 
ENDBRANCH  17  18
ENDBRANCH  15  17
ENDBRANCH  14  15
ENDBRANCH   1  14
TORSDOF 7
ENDMDL
MODEL 5
REMARK VINA RESULT:      -7.1      0.393      1.226
REMARK  Name = 
REMARK  9 active torsions:
REMARK  status: ('A' for Active; 'I' for Inactive)
REMARK    1  A    between atoms: C_1  and  C_2
REMARK    2  A    between atoms: C_2  and  C_3
REMARK    3  A    between atoms: C_2  and  N_4
REMARK    4  A    between atoms: N_4  and  C_21
REMARK    5  A    between atoms: C_5  and  C_7
REMARK    6  A    between atoms: C_7  and  O_8
REMARK    7  A    between atoms: O_8  and  C_9
REMARK    8  A    between atoms: C_9  and  C_11
REMARK    9  A    between atoms: C_11  and  N_12
REMARK                            x       y       z     vdW  Elec       q    Type
REMARK                         _______ _______ _______ _____ _____    ______ ____
ROOT
ATOM      1  C   UNL     1       5.867   6.054  18.991  0.00  0.00    +0.000 C 
ENDROOT
BRANCH   1   3
ATOM      2  N   UNL     1       3.469   5.247  18.994  0.00  0.00    +0.000 N 
ATOM      3  C   UNL     1       4.825   4.967  19.264  0.00  0.00    +0.000 C 
ATOM      4  O   UNL     1       5.215   3.886  19.726  0.00  0.00    +0.000 OA
BRANCH   2   5
ATOM      5  C   UNL     1       2.510   4.211  19.287  0.00  0.00    +0.000 A 
ATOM      6  C   UNL     1       2.007   3.399  18.260  0.00  0.00    +0.000 A 
ATOM      7  C   UNL     1       1.033   2.434  18.526  0.00  0.00    +0.000 A 
ATOM      8  C   UNL     1       0.575   2.242  19.827  0.00  0.00    +0.000 A 
ATOM      9  C   UNL     1       1.093   3.017  20.863  0.00  0.00    +0.000 A 
ATOM     10  C   UNL     1       2.047   4.005  20.593  0.00  0.00    +0.000 A 
ENDBRANCH   2   5
BRANCH   2  12
ATOM     11  C   UNL     1       2.367   7.469  19.597  0.00  0.00    +0.000 C 
ATOM     12  C   UNL     1       2.885   6.533  18.498  0.00  0.00    +0.000 C 
ATOM     13  C   UNL     1       3.773   7.265  17.483  0.00  0.00    +0.000 C 
ENDBRANCH   2  12
ENDBRANCH   1   3
BRANCH   1  14
ATOM     14  O   UNL     1       7.229   5.612  19.042  0.00  0.00    +0.000 OA
BRANCH  14  15
ATOM     15  C   UNL     1       7.725   5.101  17.885  0.00  0.00    +0.000 C 
ATOM     16  O   UNL     1       8.403   4.084  17.790  0.00  0.00    +0.000 OA
BRANCH  15  17
ATOM     17  C   UNL     1       7.185   5.846  16.695  0.00  0.00    +0.000 C 
BRANCH  17  18
ATOM     18  N   UNL     1       6.622   4.911  15.743  0.00  0.00    +0.000 N 
ATOM     19  C   UNL     1       5.637   4.005  16.021  0.00  0.00    +0.000 A 
ATOM     20  N   UNL     1       5.278   3.333  14.951  0.00  0.00    +0.000 NA
ATOM     21  C   UNL     1       6.058   3.826  13.935  0.00  0.00    +0.000 A 
ATOM     22  C   UNL     1       6.080   3.477  12.579  0.00  0.00    +0.000 A 
ATOM     23  C   UNL     1       6.972   4.137  11.725  0.00  0.00    +0.000 A 
ATOM     24  C   UNL     1       7.824   5.129  12.215  0.00  0.00    +0.000 A 
ATOM     25  C   UNL     1       7.814   5.496  13.567  0.00  0.00    +0.000 A 
ATOM     26  C   UNL     1       6.918   4.823  14.403  0.00  0.00    +0.000 A 
ENDBRANCH  17  18
ENDBRANCH  15  17
ENDBRANCH  14  15
ENDBRANCH   1  14
TORSDOF 7
ENDMDL
MODEL 6
REMARK VINA RESULT:      -7.1      4.662      8.141
REMARK  Name = 
REMARK  9 active torsions:
REMARK  status: ('A' for Active; 'I' for Inactive)
REMARK    1  A    between atoms: C_1  and  C_2
REMARK    2  A    between atoms: C_2  and  C_3
REMARK    3  A    between atoms: C_2  and  N_4
REMARK    4  A    between atoms: N_4  and  C_21
REMARK    5  A    between atoms: C_5  and  C_7
REMARK    6  A    between atoms: C_7  and  O_8
REMARK    7  A    between atoms: O_8  and  C_9
REMARK    8  A    between atoms: C_9  and  C_11
REMARK    9  A    between atoms: C_11  and  N_12
REMARK                            x       y       z     vdW  Elec       q    Type
REMARK                         _______ _______ _______ _____ _____    ______ ____
ROOT
ATOM      1  C   UNL     1       3.099   8.294  17.802  0.00  0.00    +0.000 C 
ENDROOT
BRANCH   1   3
ATOM      2  N   UNL     1       4.070   5.957  17.807  0.00  0.00    +0.000 N 
ATOM      3  C   UNL     1       3.004   6.810  18.165  0.00  0.00    +0.000 C 
ATOM      4  O   UNL     1       1.985   6.414  18.747  0.00  0.00    +0.000 OA
BRANCH   2   5
ATOM      5  C   UNL     1       3.937   4.561  18.140  0.00  0.00    +0.000 A 
ATOM      6  C   UNL     1       3.267   3.685  17.272  0.00  0.00    +0.000 A 
ATOM      7  C   UNL     1       3.081   2.344  17.616  0.00  0.00    +0.000 A 
ATOM      8  C   UNL     1       3.594   1.851  18.813  0.00  0.00    +0.000 A 
ATOM      9  C   UNL     1       4.294   2.701  19.666  0.00  0.00    +0.000 A 
ATOM     10  C   UNL     1       4.454   4.052  19.338  0.00  0.00    +0.000 A 
ENDBRANCH   2   5
BRANCH   2  12
ATOM     11  C   UNL     1       6.619   5.872  17.716  0.00  0.00    +0.000 C 
ATOM     12  C   UNL     1       5.311   6.316  17.050  0.00  0.00    +0.000 C 
ATOM     13  C   UNL     1       5.258   5.942  15.563  0.00  0.00    +0.000 C 
ENDBRANCH   2  12
ENDBRANCH   1   3
BRANCH   1  14
ATOM     14  O   UNL     1       1.840   8.947  17.595  0.00  0.00    +0.000 OA
BRANCH  14  15
ATOM     15  C   UNL     1       1.597  10.020  18.391  0.00  0.00    +0.000 C 
ATOM     16  O   UNL     1       1.981  11.165  18.179  0.00  0.00    +0.000 OA
BRANCH  15  17
ATOM     17  C   UNL     1       0.634   9.664  19.491  0.00  0.00    +0.000 C 
BRANCH  17  18
ATOM     18  N   UNL     1      -0.556  10.482  19.386  0.00  0.00    +0.000 N 
ATOM     19  C   UNL     1      -0.909  11.472  20.261  0.00  0.00    +0.000 A 
ATOM     20  N   UNL     1      -2.003  12.090  19.880  0.00  0.00    +0.000 NA
ATOM     21  C   UNL     1      -2.376  11.481  18.709  0.00  0.00    +0.000 A 
ATOM     22  C   UNL     1      -3.462  11.752  17.868  0.00  0.00    +0.000 A 
ATOM     23  C   UNL     1      -3.629  10.987  16.708  0.00  0.00    +0.000 A 
ATOM     24  C   UNL     1      -2.725   9.971  16.390  0.00  0.00    +0.000 A 
ATOM     25  C   UNL     1      -1.629   9.687  17.214  0.00  0.00    +0.000 A 
ATOM     26  C   UNL     1      -1.482  10.460  18.370  0.00  0.00    +0.000 A 
ENDBRANCH  17  18
ENDBRANCH  15  17
ENDBRANCH  14  15
ENDBRANCH   1  14
TORSDOF 7
ENDMDL
MODEL 7
REMARK VINA RESULT:      -6.9      4.166      8.352
REMARK  Name = 
REMARK  9 active torsions:
REMARK  status: ('A' for Active; 'I' for Inactive)
REMARK    1  A    between atoms: C_1  and  C_2
REMARK    2  A    between atoms: C_2  and  C_3
REMARK    3  A    between atoms: C_2  and  N_4
REMARK    4  A    between atoms: N_4  and  C_21
REMARK    5  A    between atoms: C_5  and  C_7
REMARK    6  A    between atoms: C_7  and  O_8
REMARK    7  A    between atoms: O_8  and  C_9
REMARK    8  A    between atoms: C_9  and  C_11
REMARK    9  A    between atoms: C_11  and  N_12
REMARK                            x       y       z     vdW  Elec       q    Type
REMARK                         _______ _______ _______ _____ _____    ______ ____
ROOT
ATOM      1  C   UNL     1       3.017   7.883  18.026  0.00  0.00    +0.000 C 
ENDROOT
BRANCH   1   3
ATOM      2  N   UNL     1       4.015   5.558  17.993  0.00  0.00    +0.000 N 
ATOM      3  C   UNL     1       2.928   6.388  18.343  0.00  0.00    +0.000 C 
ATOM      4  O   UNL     1       1.897   5.964  18.882  0.00  0.00    +0.000 OA
BRANCH   2   5
ATOM      5  C   UNL     1       3.889   4.150  18.282  0.00  0.00    +0.000 A 
ATOM      6  C   UNL     1       4.370   3.628  19.492  0.00  0.00    +0.000 A 
ATOM      7  C   UNL     1       4.307   2.257  19.752  0.00  0.00    +0.000 A 
ATOM      8  C   UNL     1       3.729   1.395  18.825  0.00  0.00    +0.000 A 
ATOM      9  C   UNL     1       3.213   1.905  17.635  0.00  0.00    +0.000 A 
ATOM     10  C   UNL     1       3.303   3.274  17.359  0.00  0.00    +0.000 A 
ENDBRANCH   2   5
BRANCH   2  12
ATOM     11  C   UNL     1       6.553   5.327  17.857  0.00  0.00    +0.000 C 
ATOM     12  C   UNL     1       5.274   5.952  17.287  0.00  0.00    +0.000 C 
ATOM     13  C   UNL     1       5.193   5.820  15.760  0.00  0.00    +0.000 C 
ENDBRANCH   2  12
ENDBRANCH   1   3
BRANCH   1  14
ATOM     14  O   UNL     1       2.104   8.710  18.757  0.00  0.00    +0.000 OA
BRANCH  14  15
ATOM     15  C   UNL     1       1.685   9.832  18.116  0.00  0.00    +0.000 C 
ATOM     16  O   UNL     1       2.400  10.594  17.475  0.00  0.00    +0.000 OA
BRANCH  15  17
ATOM     17  C   UNL     1       0.185   9.934  18.140  0.00  0.00    +0.000 C 
BRANCH  17  18
ATOM     18  N   UNL     1      -0.233  10.783  19.238  0.00  0.00    +0.000 N 
ATOM     19  C   UNL     1      -0.620  12.089  19.117  0.00  0.00    +0.000 A 
ATOM     20  N   UNL     1      -1.008  12.588  20.268  0.00  0.00    +0.000 NA
ATOM     21  C   UNL     1      -0.871  11.566  21.173  0.00  0.00    +0.000 A 
ATOM     22  C   UNL     1      -1.156  11.544  22.544  0.00  0.00    +0.000 A 
ATOM     23  C   UNL     1      -0.937  10.362  23.261  0.00  0.00    +0.000 A 
ATOM     24  C   UNL     1      -0.447   9.221  22.622  0.00  0.00    +0.000 A 
ATOM     25  C   UNL     1      -0.161   9.221  21.251  0.00  0.00    +0.000 A 
ATOM     26  C   UNL     1      -0.383  10.412  20.553  0.00  0.00    +0.000 A 
ENDBRANCH  17  18
ENDBRANCH  15  17
ENDBRANCH  14  15
ENDBRANCH   1  14
TORSDOF 7
ENDMDL
MODEL 8
REMARK VINA RESULT:      -6.9      4.741      8.208
REMARK  Name = 
REMARK  9 active torsions:
REMARK  status: ('A' for Active; 'I' for Inactive)
REMARK    1  A    between atoms: C_1  and  C_2
REMARK    2  A    between atoms: C_2  and  C_3
REMARK    3  A    between atoms: C_2  and  N_4
REMARK    4  A    between atoms: N_4  and  C_21
REMARK    5  A    between atoms: C_5  and  C_7
REMARK    6  A    between atoms: C_7  and  O_8
REMARK    7  A    between atoms: O_8  and  C_9
REMARK    8  A    between atoms: C_9  and  C_11
REMARK    9  A    between atoms: C_11  and  N_12
REMARK                            x       y       z     vdW  Elec       q    Type
REMARK                         _______ _______ _______ _____ _____    ______ ____
ROOT
ATOM      1  C   UNL     1       2.877   8.068  18.007  0.00  0.00    +0.000 C 
ENDROOT
BRANCH   1   3
ATOM      2  N   UNL     1       3.880   5.747  17.911  0.00  0.00    +0.000 N 
ATOM      3  C   UNL     1       2.805   6.569  18.311  0.00  0.00    +0.000 C 
ATOM      4  O   UNL     1       1.797   6.136  18.884  0.00  0.00    +0.000 OA
BRANCH   2   5
ATOM      5  C   UNL     1       3.769   4.336  18.188  0.00  0.00    +0.000 A 
ATOM      6  C   UNL     1       4.393   3.784  19.317  0.00  0.00    +0.000 A 
ATOM      7  C   UNL     1       4.342   2.409  19.559  0.00  0.00    +0.000 A 
ATOM      8  C   UNL     1       3.636   1.573  18.698  0.00  0.00    +0.000 A 
ATOM      9  C   UNL     1       2.982   2.113  17.593  0.00  0.00    +0.000 A 
ATOM     10  C   UNL     1       3.058   3.486  17.332  0.00  0.00    +0.000 A 
ENDBRANCH   2   5
BRANCH   2  12
ATOM     11  C   UNL     1       6.416   6.028  17.954  0.00  0.00    +0.000 C 
ATOM     12  C   UNL     1       5.110   6.154  17.160  0.00  0.00    +0.000 C 
ATOM     13  C   UNL     1       5.216   5.529  15.763  0.00  0.00    +0.000 C 
ENDBRANCH   2  12
ENDBRANCH   1   3
BRANCH   1  14
ATOM     14  O   UNL     1       1.607   8.721  17.892  0.00  0.00    +0.000 OA
BRANCH  14  15
ATOM     15  C   UNL     1       1.246   9.494  18.949  0.00  0.00    +0.000 C 
ATOM     16  O   UNL     1       1.191   9.123  20.116  0.00  0.00    +0.000 OA
BRANCH  15  17
ATOM     17  C   UNL     1       1.089  10.931  18.533  0.00  0.00    +0.000 C 
BRANCH  17  18
ATOM     18  N   UNL     1      -0.254  11.386  18.833  0.00  0.00    +0.000 N 
ATOM     19  C   UNL     1      -0.567  12.374  19.725  0.00  0.00    +0.000 A 
ATOM     20  N   UNL     1      -1.856  12.620  19.745  0.00  0.00    +0.000 NA
ATOM     21  C   UNL     1      -2.404  11.761  18.826  0.00  0.00    +0.000 A 
ATOM     22  C   UNL     1      -3.740  11.607  18.434  0.00  0.00    +0.000 A 
ATOM     23  C   UNL     1      -4.053  10.655  17.458  0.00  0.00    +0.000 A 
ATOM     24  C   UNL     1      -3.051   9.870  16.880  0.00  0.00    +0.000 A 
ATOM     25  C   UNL     1      -1.709  10.012  17.255  0.00  0.00    +0.000 A 
ATOM     26  C   UNL     1      -1.417  10.967  18.233  0.00  0.00    +0.000 A 
ENDBRANCH  17  18
ENDBRANCH  15  17
ENDBRANCH  14  15
ENDBRANCH   1  14
TORSDOF 7
ENDMDL
MODEL 9
REMARK VINA RESULT:      -6.9      3.343      6.720
REMARK  Name = 
REMARK  9 active torsions:
REMARK  status: ('A' for Active; 'I' for Inactive)
REMARK    1  A    between atoms: C_1  and  C_2
REMARK    2  A    between atoms: C_2  and  C_3
REMARK    3  A    between atoms: C_2  and  N_4
REMARK    4  A    between atoms: N_4  and  C_21
REMARK    5  A    between atoms: C_5  and  C_7
REMARK    6  A    between atoms: C_7  and  O_8
REMARK    7  A    between atoms: O_8  and  C_9
REMARK    8  A    between atoms: C_9  and  C_11
REMARK    9  A    between atoms: C_11  and  N_12
REMARK                            x       y       z     vdW  Elec       q    Type
REMARK                         _______ _______ _______ _____ _____    ______ ____
ROOT
ATOM      1  C   UNL     1       3.152   7.462  18.516  0.00  0.00    +0.000 C 
ENDROOT
BRANCH   1   3
ATOM      2  N   UNL     1       1.452   9.094  19.438  0.00  0.00    +0.000 N 
ATOM      3  C   UNL     1       2.183   8.631  18.323  0.00  0.00    +0.000 C 
ATOM      4  O   UNL     1       2.069   9.115  17.189  0.00  0.00    +0.000 OA
BRANCH   2   5
ATOM      5  C   UNL     1       0.528  10.179  19.216  0.00  0.00    +0.000 A 
ATOM      6  C   UNL     1      -0.806   9.916  18.873  0.00  0.00    +0.000 A 
ATOM      7  C   UNL     1      -1.691  10.961  18.597  0.00  0.00    +0.000 A 
ATOM      8  C   UNL     1      -1.266  12.282  18.697  0.00  0.00    +0.000 A 
ATOM      9  C   UNL     1       0.047  12.559  19.073  0.00  0.00    +0.000 A 
ATOM     10  C   UNL     1       0.943  11.513  19.320  0.00  0.00    +0.000 A 
ENDBRANCH   2   5
BRANCH   2  12
ATOM     11  C   UNL     1       0.732   9.403  21.867  0.00  0.00    +0.000 C 
ATOM     12  C   UNL     1       1.465   8.544  20.830  0.00  0.00    +0.000 C 
ATOM     13  C   UNL     1       1.066   7.065  20.914  0.00  0.00    +0.000 C 
ENDBRANCH   2  12
ENDBRANCH   1   3
BRANCH   1  14
ATOM     14  O   UNL     1       2.954   6.360  17.622  0.00  0.00    +0.000 OA
BRANCH  14  15
ATOM     15  C   UNL     1       4.080   5.704  17.241  0.00  0.00    +0.000 C 
ATOM     16  O   UNL     1       5.200   6.198  17.161  0.00  0.00    +0.000 OA
BRANCH  15  17
ATOM     17  C   UNL     1       3.818   4.230  17.095  0.00  0.00    +0.000 C 
BRANCH  17  18
ATOM     18  N   UNL     1       3.870   3.590  18.394  0.00  0.00    +0.000 N 
ATOM     19  C   UNL     1       5.005   3.118  18.991  0.00  0.00    +0.000 A 
ATOM     20  N   UNL     1       4.761   2.648  20.193  0.00  0.00    +0.000 NA
ATOM     21  C   UNL     1       3.415   2.825  20.387  0.00  0.00    +0.000 A 
ATOM     22  C   UNL     1       2.625   2.515  21.501  0.00  0.00    +0.000 A 
ATOM     23  C   UNL     1       1.256   2.803  21.462  0.00  0.00    +0.000 A 
ATOM     24  C   UNL     1       0.685   3.393  20.332  0.00  0.00    +0.000 A 
ATOM     25  C   UNL     1       1.458   3.716  19.210  0.00  0.00    +0.000 A 
ATOM     26  C   UNL     1       2.822   3.418  19.268  0.00  0.00    +0.000 A 
ENDBRANCH  17  18
ENDBRANCH  15  17
ENDBRANCH  14  15
ENDBRANCH   1  14
TORSDOF 7
ENDMDL
