MODEL 1
REMARK VINA RESULT:      -7.3      0.000      0.000
REMARK  Name = 
REMARK  8 active torsions:
REMARK  status: ('A' for Active; 'I' for Inactive)
REMARK    1  A    between atoms: C_1  and  C_2
REMARK    2  A    between atoms: C_2  and  N_3
REMARK    3  A    between atoms: N_6  and  C_7
REMARK    4  A    between atoms: C_7  and  C_8
REMARK    5  A    between atoms: C_7  and  C_15
REMARK    6  A    between atoms: C_11  and  C_12
REMARK    7  A    between atoms: C_19  and  C_20
REMARK    8  A    between atoms: C_27  and  O_28
REMARK                            x       y       z     vdW  Elec       q    Type
REMARK                         _______ _______ _______ _____ _____    ______ ____
ROOT
ATOM      1  C   UNL     1       0.223  11.733  19.392  0.00  0.00    +0.000 C 
ENDROOT
BRANCH   1   2
ATOM      2  C   UNL     1       0.868  10.380  19.662  0.00  0.00    +0.000 A 
ATOM      3  S   UNL     1       0.688   9.552  21.248  0.00  0.00    +0.000 S 
ATOM      4  C   UNL     1       1.426   8.154  20.554  0.00  0.00    +0.000 A 
ATOM      5  N   UNL     1       1.581   6.918  20.918  0.00  0.00    +0.000 NA
ATOM      6  C   UNL     1       2.164   6.374  19.786  0.00  0.00    +0.000 A 
ATOM      7  N   UNL     1       2.375   7.237  18.769  0.00  0.00    +0.000 NA
ATOM      8  N   UNL     1       1.843   8.367  19.279  0.00  0.00    +0.000 N 
ATOM      9  C   UNL     1       1.546   9.623  18.770  0.00  0.00    +0.000 A 
BRANCH   6  10
ATOM     10  C   UNL     1       2.474   4.914  19.723  0.00  0.00    +0.000 A 
ATOM     11  C   UNL     1       1.546   3.913  19.947  0.00  0.00    +0.000 A 
ATOM     12  C   UNL     1       2.217   2.681  19.762  0.00  0.00    +0.000 A 
ATOM     13  C   UNL     1       3.516   3.003  19.450  0.00  0.00    +0.000 A 
ATOM     14  O   UNL     1       3.684   4.351  19.416  0.00  0.00    +0.000 OA
ENDBRANCH   6  10
BRANCH   9  15
ATOM     15  O   UNL     1       1.851   9.989  17.479  0.00  0.00    +0.000 OA
ATOM     16  H   UNL     1       1.771  10.964  17.431  0.00  0.00    +0.000 HD
ENDBRANCH   9  15
ENDBRANCH   1   2
BRANCH   1  17
ATOM     17  C   UNL     1      -1.202  11.473  18.854  0.00  0.00    +0.000 A 
ATOM     18  C   UNL     1      -1.540  10.508  17.890  0.00  0.00    +0.000 A 
ATOM     19  C   UNL     1      -2.883  10.301  17.512  0.00  0.00    +0.000 A 
ATOM     20  C   UNL     1      -3.921  11.033  18.103  0.00  0.00    +0.000 A 
ATOM     21  C   UNL     1      -5.361  10.870  17.706  0.00  0.00    +0.000 C 
ATOM     22  C   UNL     1      -3.596  11.964  19.093  0.00  0.00    +0.000 A 
ATOM     23  C   UNL     1      -2.264  12.181  19.452  0.00  0.00    +0.000 A 
ENDBRANCH   1  17
BRANCH   1  27
ATOM     24  N   UNL     1       1.402  15.154  20.317  0.00  0.00    +0.000 NA
ATOM     25  C   UNL     1       0.240  14.887  19.450  0.00  0.00    +0.000 C 
ATOM     26  C   UNL     1       0.465  13.935  18.253  0.00  0.00    +0.000 C 
ATOM     27  N   UNL     1       1.104  12.640  18.583  0.00  0.00    +0.000 NA
ATOM     28  C   UNL     1       2.371  13.002  19.277  0.00  0.00    +0.000 C 
ATOM     29  C   UNL     1       2.254  13.966  20.487  0.00  0.00    +0.000 C 
BRANCH  24  31
ATOM     30  C   UNL     1       1.301  17.441  19.325  0.00  0.00    +0.000 C 
ATOM     31  C   UNL     1       2.169  16.355  19.962  0.00  0.00    +0.000 C 
ENDBRANCH  24  31
ENDBRANCH   1  27
TORSDOF 6
ENDMDL
MODEL 2
REMARK VINA RESULT:      -7.1      0.752      1.246
REMARK  Name = 
REMARK  8 active torsions:
REMARK  status: ('A' for Active; 'I' for Inactive)
REMARK    1  A    between atoms: C_1  and  C_2
REMARK    2  A    between atoms: C_2  and  N_3
REMARK    3  A    between atoms: N_6  and  C_7
REMARK    4  A    between atoms: C_7  and  C_8
REMARK    5  A    between atoms: C_7  and  C_15
REMARK    6  A    between atoms: C_11  and  C_12
REMARK    7  A    between atoms: C_19  and  C_20
REMARK    8  A    between atoms: C_27  and  O_28
REMARK                            x       y       z     vdW  Elec       q    Type
REMARK                         _______ _______ _______ _____ _____    ______ ____
ROOT
ATOM      1  C   UNL     1       0.313  11.853  19.610  0.00  0.00    +0.000 C 
ENDROOT
BRANCH   1   2
ATOM      2  C   UNL     1       0.972  10.481  19.639  0.00  0.00    +0.000 A 
ATOM      3  S   UNL     1       0.839   9.403  21.072  0.00  0.00    +0.000 S 
ATOM      4  C   UNL     1       1.563   8.143  20.140  0.00  0.00    +0.000 A 
ATOM      5  N   UNL     1       1.734   6.866  20.293  0.00  0.00    +0.000 NA
ATOM      6  C   UNL     1       2.288   6.520  19.071  0.00  0.00    +0.000 A 
ATOM      7  N   UNL     1       2.468   7.540  18.204  0.00  0.00    +0.000 NA
ATOM      8  N   UNL     1       1.945   8.566  18.906  0.00  0.00    +0.000 N 
ATOM      9  C   UNL     1       1.628   9.885  18.617  0.00  0.00    +0.000 A 
BRANCH   6  10
ATOM     10  C   UNL     1       2.603   5.093  18.762  0.00  0.00    +0.000 A 
ATOM     11  C   UNL     1       1.970   4.353  17.780  0.00  0.00    +0.000 A 
ATOM     12  C   UNL     1       2.570   3.072  17.778  0.00  0.00    +0.000 A 
ATOM     13  C   UNL     1       3.524   3.101  18.767  0.00  0.00    +0.000 A 
ATOM     14  O   UNL     1       3.559   4.320  19.366  0.00  0.00    +0.000 OA
ENDBRANCH   6  10
BRANCH   9  15
ATOM     15  O   UNL     1       1.896  10.460  17.396  0.00  0.00    +0.000 OA
ATOM     16  H   UNL     1       1.036  10.593  16.947  0.00  0.00    +0.000 HD
ENDBRANCH   9  15
ENDBRANCH   1   2
BRANCH   1  17
ATOM     17  C   UNL     1      -1.160  11.657  19.188  0.00  0.00    +0.000 A 
ATOM     18  C   UNL     1      -2.271  12.221  19.839  0.00  0.00    +0.000 A 
ATOM     19  C   UNL     1      -3.575  12.037  19.336  0.00  0.00    +0.000 A 
ATOM     20  C   UNL     1      -3.801  11.307  18.162  0.00  0.00    +0.000 A 
ATOM     21  C   UNL     1      -5.177  11.057  17.610  0.00  0.00    +0.000 C 
ATOM     22  C   UNL     1      -2.698  10.780  17.486  0.00  0.00    +0.000 A 
ATOM     23  C   UNL     1      -1.408  10.947  17.996  0.00  0.00    +0.000 A 
ENDBRANCH   1  17
BRANCH   1  27
ATOM     24  N   UNL     1       1.408  15.231  20.769  0.00  0.00    +0.000 NA
ATOM     25  C   UNL     1       0.214  14.990  19.939  0.00  0.00    +0.000 C 
ATOM     26  C   UNL     1       0.413  14.152  18.655  0.00  0.00    +0.000 C 
ATOM     27  N   UNL     1       1.116  12.861  18.841  0.00  0.00    +0.000 NA
ATOM     28  C   UNL     1       2.403  13.217  19.502  0.00  0.00    +0.000 C 
ATOM     29  C   UNL     1       2.312  14.070  20.795  0.00  0.00    +0.000 C 
BRANCH  24  31
ATOM     30  C   UNL     1       3.574  16.459  20.922  0.00  0.00    +0.000 C 
ATOM     31  C   UNL     1       2.110  16.489  20.483  0.00  0.00    +0.000 C 
ENDBRANCH  24  31
ENDBRANCH   1  27
TORSDOF 6
ENDMDL
MODEL 3
REMARK VINA RESULT:      -7.0      7.063     10.402
REMARK  Name = 
REMARK  8 active torsions:
REMARK  status: ('A' for Active; 'I' for Inactive)
REMARK    1  A    between atoms: C_1  and  C_2
REMARK    2  A    between atoms: C_2  and  N_3
REMARK    3  A    between atoms: N_6  and  C_7
REMARK    4  A    between atoms: C_7  and  C_8
REMARK    5  A    between atoms: C_7  and  C_15
REMARK    6  A    between atoms: C_11  and  C_12
REMARK    7  A    between atoms: C_19  and  C_20
REMARK    8  A    between atoms: C_27  and  O_28
REMARK                            x       y       z     vdW  Elec       q    Type
REMARK                         _______ _______ _______ _____ _____    ______ ____
ROOT
ATOM      1  C   UNL     1       5.270   4.401  16.808  0.00  0.00    +0.000 C 
ENDROOT
BRANCH   1   2
ATOM      2  C   UNL     1       6.020   5.587  17.398  0.00  0.00    +0.000 A 
ATOM      3  S   UNL     1       7.262   5.371  18.680  0.00  0.00    +0.000 S 
ATOM      4  C   UNL     1       7.685   7.034  18.493  0.00  0.00    +0.000 A 
ATOM      5  N   UNL     1       8.653   7.791  18.909  0.00  0.00    +0.000 NA
ATOM      6  C   UNL     1       8.372   8.976  18.250  0.00  0.00    +0.000 A 
ATOM      7  N   UNL     1       7.268   8.961  17.471  0.00  0.00    +0.000 NA
ATOM      8  N   UNL     1       6.876   7.679  17.612  0.00  0.00    +0.000 N 
ATOM      9  C   UNL     1       5.925   6.876  16.998  0.00  0.00    +0.000 A 
BRANCH   6  10
ATOM     10  C   UNL     1       9.286  10.150  18.384  0.00  0.00    +0.000 A 
ATOM     11  C   UNL     1       9.673  10.699  19.594  0.00  0.00    +0.000 A 
ATOM     12  C   UNL     1      10.558  11.762  19.299  0.00  0.00    +0.000 A 
ATOM     13  C   UNL     1      10.649  11.808  17.929  0.00  0.00    +0.000 A 
ATOM     14  O   UNL     1       9.889  10.834  17.363  0.00  0.00    +0.000 OA
ENDBRANCH   6  10
BRANCH   9  15
ATOM     15  O   UNL     1       5.059   7.354  16.042  0.00  0.00    +0.000 OA
ATOM     16  H   UNL     1       5.576   7.471  15.219  0.00  0.00    +0.000 HD
ENDBRANCH   9  15
ENDBRANCH   1   2
BRANCH   1  17
ATOM     17  C   UNL     1       5.744   4.227  15.348  0.00  0.00    +0.000 A 
ATOM     18  C   UNL     1       4.961   3.719  14.297  0.00  0.00    +0.000 A 
ATOM     19  C   UNL     1       5.465   3.661  12.982  0.00  0.00    +0.000 A 
ATOM     20  C   UNL     1       6.751   4.128  12.678  0.00  0.00    +0.000 A 
ATOM     21  C   UNL     1       7.340   4.053  11.297  0.00  0.00    +0.000 C 
ATOM     22  C   UNL     1       7.519   4.673  13.710  0.00  0.00    +0.000 A 
ATOM     23  C   UNL     1       7.026   4.711  15.017  0.00  0.00    +0.000 A 
ENDBRANCH   1  17
BRANCH   1  27
ATOM     24  N   UNL     1       3.317   2.768  19.542  0.00  0.00    +0.000 NA
ATOM     25  C   UNL     1       3.455   2.216  18.182  0.00  0.00    +0.000 C 
ATOM     26  C   UNL     1       3.117   3.163  17.006  0.00  0.00    +0.000 C 
ATOM     27  N   UNL     1       3.789   4.483  17.040  0.00  0.00    +0.000 NA
ATOM     28  C   UNL     1       3.432   5.062  18.366  0.00  0.00    +0.000 C 
ATOM     29  C   UNL     1       3.720   4.182  19.612  0.00  0.00    +0.000 C 
BRANCH  24  31
ATOM     30  C   UNL     1       1.203   3.796  20.375  0.00  0.00    +0.000 C 
ATOM     31  C   UNL     1       2.017   2.517  20.177  0.00  0.00    +0.000 C 
ENDBRANCH  24  31
ENDBRANCH   1  27
TORSDOF 6
ENDMDL
MODEL 4
REMARK VINA RESULT:      -6.8      0.904      1.311
REMARK  Name = 
REMARK  8 active torsions:
REMARK  status: ('A' for Active; 'I' for Inactive)
REMARK    1  A    between atoms: C_1  and  C_2
REMARK    2  A    between atoms: C_2  and  N_3
REMARK    3  A    between atoms: N_6  and  C_7
REMARK    4  A    between atoms: C_7  and  C_8
REMARK    5  A    between atoms: C_7  and  C_15
REMARK    6  A    between atoms: C_11  and  C_12
REMARK    7  A    between atoms: C_19  and  C_20
REMARK    8  A    between atoms: C_27  and  O_28
REMARK                            x       y       z     vdW  Elec       q    Type
REMARK                         _______ _______ _______ _____ _____    ______ ____
ROOT
ATOM      1  C   UNL     1      -0.254  12.455  19.770  0.00  0.00    +0.000 C 
ENDROOT
BRANCH   1   2
ATOM      2  C   UNL     1       0.438  11.121  20.012  0.00  0.00    +0.000 A 
ATOM      3  S   UNL     1       0.269  10.242  21.572  0.00  0.00    +0.000 S 
ATOM      4  C   UNL     1       1.067   8.892  20.851  0.00  0.00    +0.000 A 
ATOM      5  N   UNL     1       1.263   7.653  21.183  0.00  0.00    +0.000 NA
ATOM      6  C   UNL     1       1.881   7.163  20.044  0.00  0.00    +0.000 A 
ATOM      7  N   UNL     1       2.073   8.062  19.054  0.00  0.00    +0.000 NA
ATOM      8  N   UNL     1       1.493   9.156  19.588  0.00  0.00    +0.000 N 
ATOM      9  C   UNL     1       1.155  10.413  19.109  0.00  0.00    +0.000 A 
BRANCH   6  10
ATOM     10  C   UNL     1       2.246   5.718  19.946  0.00  0.00    +0.000 A 
ATOM     11  C   UNL     1       1.635   4.711  20.672  0.00  0.00    +0.000 A 
ATOM     12  C   UNL     1       2.236   3.494  20.273  0.00  0.00    +0.000 A 
ATOM     13  C   UNL     1       3.185   3.830  19.338  0.00  0.00    +0.000 A 
ATOM     14  O   UNL     1       3.197   5.172  19.125  0.00  0.00    +0.000 OA
ENDBRANCH   6  10
BRANCH   9  15
ATOM     15  O   UNL     1       1.463  10.826  17.833  0.00  0.00    +0.000 OA
ATOM     16  H   UNL     1       1.483  10.025  17.269  0.00  0.00    +0.000 HD
ENDBRANCH   9  15
ENDBRANCH   1   2
BRANCH   1  17
ATOM     17  C   UNL     1      -1.701  12.157  19.320  0.00  0.00    +0.000 A 
ATOM     18  C   UNL     1      -2.859  12.506  20.036  0.00  0.00    +0.000 A 
ATOM     19  C   UNL     1      -4.141  12.249  19.508  0.00  0.00    +0.000 A 
ATOM     20  C   UNL     1      -4.299  11.660  18.247  0.00  0.00    +0.000 A 
ATOM     21  C   UNL     1      -5.646  11.337  17.662  0.00  0.00    +0.000 C 
ATOM     22  C   UNL     1      -3.153  11.350  17.511  0.00  0.00    +0.000 A 
ATOM     23  C   UNL     1      -1.883  11.587  18.044  0.00  0.00    +0.000 A 
ENDBRANCH   1  17
BRANCH   1  27
ATOM     24  N   UNL     1       0.843  15.935  20.570  0.00  0.00    +0.000 NA
ATOM     25  C   UNL     1      -0.347  15.609  19.764  0.00  0.00    +0.000 C 
ATOM     26  C   UNL     1      -0.143  14.640  18.576  0.00  0.00    +0.000 C 
ATOM     27  N   UNL     1       0.556  13.374  18.903  0.00  0.00    +0.000 NA
ATOM     28  C   UNL     1       1.840  13.796  19.529  0.00  0.00    +0.000 C 
ATOM     29  C   UNL     1       1.744  14.781  20.724  0.00  0.00    +0.000 C 
BRANCH  24  31
ATOM     30  C   UNL     1       2.999  17.188  20.641  0.00  0.00    +0.000 C 
ATOM     31  C   UNL     1       1.549  17.154  20.156  0.00  0.00    +0.000 C 
ENDBRANCH  24  31
ENDBRANCH   1  27
TORSDOF 6
ENDMDL
MODEL 5
REMARK VINA RESULT:      -6.6      2.004      2.521
REMARK  Name = 
REMARK  8 active torsions:
REMARK  status: ('A' for Active; 'I' for Inactive)
REMARK    1  A    between atoms: C_1  and  C_2
REMARK    2  A    between atoms: C_2  and  N_3
REMARK    3  A    between atoms: N_6  and  C_7
REMARK    4  A    between atoms: C_7  and  C_8
REMARK    5  A    between atoms: C_7  and  C_15
REMARK    6  A    between atoms: C_11  and  C_12
REMARK    7  A    between atoms: C_19  and  C_20
REMARK    8  A    between atoms: C_27  and  O_28
REMARK                            x       y       z     vdW  Elec       q    Type
REMARK                         _______ _______ _______ _____ _____    ______ ____
ROOT
ATOM      1  C   UNL     1      -1.009  11.057  19.680  0.00  0.00    +0.000 C 
ENDROOT
BRANCH   1   2
ATOM      2  C   UNL     1       0.026   9.960  19.888  0.00  0.00    +0.000 A 
ATOM      3  S   UNL     1      -0.040   8.860  21.308  0.00  0.00    +0.000 S 
ATOM      4  C   UNL     1       1.209   7.915  20.582  0.00  0.00    +0.000 A 
ATOM      5  N   UNL     1       1.737   6.753  20.814  0.00  0.00    +0.000 NA
ATOM      6  C   UNL     1       2.599   6.628  19.737  0.00  0.00    +0.000 A 
ATOM      7  N   UNL     1       2.617   7.674  18.882  0.00  0.00    +0.000 NA
ATOM      8  N   UNL     1       1.673   8.466  19.430  0.00  0.00    +0.000 N 
ATOM      9  C   UNL     1       1.023   9.626  19.035  0.00  0.00    +0.000 A 
BRANCH   6  10
ATOM     10  C   UNL     1       3.398   5.380  19.550  0.00  0.00    +0.000 A 
ATOM     11  C   UNL     1       4.729   5.360  19.172  0.00  0.00    +0.000 A 
ATOM     12  C   UNL     1       5.126   4.003  19.138  0.00  0.00    +0.000 A 
ATOM     13  C   UNL     1       4.013   3.275  19.484  0.00  0.00    +0.000 A 
ATOM     14  O   UNL     1       2.962   4.097  19.743  0.00  0.00    +0.000 OA
ENDBRANCH   6  10
BRANCH   9  15
ATOM     15  O   UNL     1       1.330  10.286  17.868  0.00  0.00    +0.000 OA
ATOM     16  H   UNL     1       2.297  10.441  17.873  0.00  0.00    +0.000 HD
ENDBRANCH   9  15
ENDBRANCH   1   2
BRANCH   1  17
ATOM     17  C   UNL     1      -1.774  10.738  18.376  0.00  0.00    +0.000 A 
ATOM     18  C   UNL     1      -2.604   9.622  18.176  0.00  0.00    +0.000 A 
ATOM     19  C   UNL     1      -3.313   9.454  16.970  0.00  0.00    +0.000 A 
ATOM     20  C   UNL     1      -3.230  10.404  15.944  0.00  0.00    +0.000 A 
ATOM     21  C   UNL     1      -3.941  10.247  14.628  0.00  0.00    +0.000 C 
ATOM     22  C   UNL     1      -2.439  11.537  16.151  0.00  0.00    +0.000 A 
ATOM     23  C   UNL     1      -1.722  11.693  17.340  0.00  0.00    +0.000 A 
ENDBRANCH   1  17
BRANCH   1  27
ATOM     24  N   UNL     1      -1.653  13.537  22.398  0.00  0.00    +0.000 NA
ATOM     25  C   UNL     1      -2.341  13.543  21.094  0.00  0.00    +0.000 C 
ATOM     26  C   UNL     1      -1.448  13.505  19.832  0.00  0.00    +0.000 C 
ATOM     27  N   UNL     1      -0.425  12.433  19.811  0.00  0.00    +0.000 NA
ATOM     28  C   UNL     1       0.358  12.624  21.064  0.00  0.00    +0.000 C 
ATOM     29  C   UNL     1      -0.450  12.689  22.388  0.00  0.00    +0.000 C 
BRANCH  24  31
ATOM     30  C   UNL     1      -1.501  14.884  24.492  0.00  0.00    +0.000 C 
ATOM     31  C   UNL     1      -1.404  14.868  22.966  0.00  0.00    +0.000 C 
ENDBRANCH  24  31
ENDBRANCH   1  27
TORSDOF 6
ENDMDL
MODEL 6
REMARK VINA RESULT:      -6.5      2.146      2.649
REMARK  Name = 
REMARK  8 active torsions:
REMARK  status: ('A' for Active; 'I' for Inactive)
REMARK    1  A    between atoms: C_1  and  C_2
REMARK    2  A    between atoms: C_2  and  N_3
REMARK    3  A    between atoms: N_6  and  C_7
REMARK    4  A    between atoms: C_7  and  C_8
REMARK    5  A    between atoms: C_7  and  C_15
REMARK    6  A    between atoms: C_11  and  C_12
REMARK    7  A    between atoms: C_19  and  C_20
REMARK    8  A    between atoms: C_27  and  O_28
REMARK                            x       y       z     vdW  Elec       q    Type
REMARK                         _______ _______ _______ _____ _____    ______ ____
ROOT
ATOM      1  C   UNL     1      -1.057  11.195  19.915  0.00  0.00    +0.000 C 
ENDROOT
BRANCH   1   2
ATOM      2  C   UNL     1      -0.016  10.091  20.043  0.00  0.00    +0.000 A 
ATOM      3  S   UNL     1      -0.070   8.898  21.386  0.00  0.00    +0.000 S 
ATOM      4  C   UNL     1       1.178   8.009  20.592  0.00  0.00    +0.000 A 
ATOM      5  N   UNL     1       1.711   6.836  20.742  0.00  0.00    +0.000 NA
ATOM      6  C   UNL     1       2.567   6.787  19.654  0.00  0.00    +0.000 A 
ATOM      7  N   UNL     1       2.576   7.888  18.871  0.00  0.00    +0.000 NA
ATOM      8  N   UNL     1       1.633   8.638  19.477  0.00  0.00    +0.000 N 
ATOM      9  C   UNL     1       0.976   9.819  19.164  0.00  0.00    +0.000 A 
BRANCH   6  10
ATOM     10  C   UNL     1       3.370   5.558  19.379  0.00  0.00    +0.000 A 
ATOM     11  C   UNL     1       3.112   4.320  19.941  0.00  0.00    +0.000 A 
ATOM     12  C   UNL     1       4.064   3.420  19.407  0.00  0.00    +0.000 A 
ATOM     13  C   UNL     1       4.853   4.162  18.563  0.00  0.00    +0.000 A 
ATOM     14  O   UNL     1       4.440   5.456  18.531  0.00  0.00    +0.000 OA
ENDBRANCH   6  10
BRANCH   9  15
ATOM     15  O   UNL     1       1.274  10.557  18.042  0.00  0.00    +0.000 OA
ATOM     16  H   UNL     1       1.045  10.005  17.266  0.00  0.00    +0.000 HD
ENDBRANCH   9  15
ENDBRANCH   1   2
BRANCH   1  17
ATOM     17  C   UNL     1      -1.793  10.992  18.572  0.00  0.00    +0.000 A 
ATOM     18  C   UNL     1      -1.746  11.876  17.481  0.00  0.00    +0.000 A 
ATOM     19  C   UNL     1      -2.400  11.568  16.271  0.00  0.00    +0.000 A 
ATOM     20  C   UNL     1      -3.098  10.363  16.112  0.00  0.00    +0.000 A 
ATOM     21  C   UNL     1      -3.838  10.011  14.853  0.00  0.00    +0.000 C 
ATOM     22  C   UNL     1      -3.114   9.461  17.178  0.00  0.00    +0.000 A 
ATOM     23  C   UNL     1      -2.481   9.776  18.383  0.00  0.00    +0.000 A 
ENDBRANCH   1  17
BRANCH   1  27
ATOM     24  N   UNL     1      -2.083  13.590  22.592  0.00  0.00    +0.000 NA
ATOM     25  C   UNL     1      -2.566  13.650  21.201  0.00  0.00    +0.000 C 
ATOM     26  C   UNL     1      -1.492  13.643  20.088  0.00  0.00    +0.000 C 
ATOM     27  N   UNL     1      -0.487  12.558  20.182  0.00  0.00    +0.000 NA
ATOM     28  C   UNL     1       0.098  12.694  21.546  0.00  0.00    +0.000 C 
ATOM     29  C   UNL     1      -0.900  12.726  22.734  0.00  0.00    +0.000 C 
BRANCH  24  31
ATOM     30  C   UNL     1      -2.252  14.864  24.730  0.00  0.00    +0.000 C 
ATOM     31  C   UNL     1      -1.911  14.896  23.239  0.00  0.00    +0.000 C 
ENDBRANCH  24  31
ENDBRANCH   1  27
TORSDOF 6
ENDMDL
MODEL 7
REMARK VINA RESULT:      -6.5      2.886      5.053
REMARK  Name = 
REMARK  8 active torsions:
REMARK  status: ('A' for Active; 'I' for Inactive)
REMARK    1  A    between atoms: C_1  and  C_2
REMARK    2  A    between atoms: C_2  and  N_3
REMARK    3  A    between atoms: N_6  and  C_7
REMARK    4  A    between atoms: C_7  and  C_8
REMARK    5  A    between atoms: C_7  and  C_15
REMARK    6  A    between atoms: C_11  and  C_12
REMARK    7  A    between atoms: C_19  and  C_20
REMARK    8  A    between atoms: C_27  and  O_28
REMARK                            x       y       z     vdW  Elec       q    Type
REMARK                         _______ _______ _______ _____ _____    ______ ____
ROOT
ATOM      1  C   UNL     1      -0.264  12.680  21.002  0.00  0.00    +0.000 C 
ENDROOT
BRANCH   1   2
ATOM      2  C   UNL     1       0.134  11.371  20.334  0.00  0.00    +0.000 A 
ATOM      3  S   UNL     1      -0.116  11.098  18.575  0.00  0.00    +0.000 S 
ATOM      4  C   UNL     1       0.802   9.642  18.712  0.00  0.00    +0.000 A 
ATOM      5  N   UNL     1       1.325   8.801  17.874  0.00  0.00    +0.000 NA
ATOM      6  C   UNL     1       2.010   7.957  18.732  0.00  0.00    +0.000 A 
ATOM      7  N   UNL     1       1.905   8.252  20.046  0.00  0.00    +0.000 NA
ATOM      8  N   UNL     1       1.159   9.374  19.995  0.00  0.00    +0.000 N 
ATOM      9  C   UNL     1       0.777  10.335  20.920  0.00  0.00    +0.000 A 
BRANCH   6  10
ATOM     10  C   UNL     1       2.837   6.837  18.189  0.00  0.00    +0.000 A 
ATOM     11  C   UNL     1       2.434   5.514  18.167  0.00  0.00    +0.000 A 
ATOM     12  C   UNL     1       3.473   4.778  17.549  0.00  0.00    +0.000 A 
ATOM     13  C   UNL     1       4.452   5.692  17.244  0.00  0.00    +0.000 A 
ATOM     14  O   UNL     1       4.078   6.943  17.619  0.00  0.00    +0.000 OA
ENDBRANCH   6  10
BRANCH   9  15
ATOM     15  O   UNL     1       1.101  10.247  22.255  0.00  0.00    +0.000 OA
ATOM     16  H   UNL     1       2.032   9.948  22.305  0.00  0.00    +0.000 HD
ENDBRANCH   9  15
ENDBRANCH   1   2
BRANCH   1  17
ATOM     17  C   UNL     1       0.773  13.749  20.594  0.00  0.00    +0.000 A 
ATOM     18  C   UNL     1       2.139  13.721  20.925  0.00  0.00    +0.000 A 
ATOM     19  C   UNL     1       3.020  14.712  20.448  0.00  0.00    +0.000 A 
ATOM     20  C   UNL     1       2.568  15.740  19.611  0.00  0.00    +0.000 A 
ATOM     21  C   UNL     1       3.465  16.836  19.108  0.00  0.00    +0.000 C 
ATOM     22  C   UNL     1       1.220  15.751  19.243  0.00  0.00    +0.000 A 
ATOM     23  C   UNL     1       0.344  14.779  19.733  0.00  0.00    +0.000 A 
ENDBRANCH   1  17
BRANCH   1  27
ATOM     24  N   UNL     1      -3.319  13.752  22.864  0.00  0.00    +0.000 NA
ATOM     25  C   UNL     1      -2.074  14.538  22.799  0.00  0.00    +0.000 C 
ATOM     26  C   UNL     1      -0.764  13.804  23.169  0.00  0.00    +0.000 C 
ATOM     27  N   UNL     1      -0.538  12.518  22.469  0.00  0.00    +0.000 NA
ATOM     28  C   UNL     1      -1.753  11.705  22.755  0.00  0.00    +0.000 C 
ATOM     29  C   UNL     1      -3.123  12.360  22.430  0.00  0.00    +0.000 C 
BRANCH  24  31
ATOM     30  C   UNL     1      -4.451  12.485  24.691  0.00  0.00    +0.000 C 
ATOM     31  C   UNL     1      -4.041  13.851  24.140  0.00  0.00    +0.000 C 
ENDBRANCH  24  31
ENDBRANCH   1  27
TORSDOF 6
ENDMDL
MODEL 8
REMARK VINA RESULT:      -6.4      2.398      3.072
REMARK  Name = 
REMARK  8 active torsions:
REMARK  status: ('A' for Active; 'I' for Inactive)
REMARK    1  A    between atoms: C_1  and  C_2
REMARK    2  A    between atoms: C_2  and  N_3
REMARK    3  A    between atoms: N_6  and  C_7
REMARK    4  A    between atoms: C_7  and  C_8
REMARK    5  A    between atoms: C_7  and  C_15
REMARK    6  A    between atoms: C_11  and  C_12
REMARK    7  A    between atoms: C_19  and  C_20
REMARK    8  A    between atoms: C_27  and  O_28
REMARK                            x       y       z     vdW  Elec       q    Type
REMARK                         _______ _______ _______ _____ _____    ______ ____
ROOT
ATOM      1  C   UNL     1       0.406  12.473  21.092  0.00  0.00    +0.000 C 
ENDROOT
BRANCH   1   2
ATOM      2  C   UNL     1       0.669  11.159  20.370  0.00  0.00    +0.000 A 
ATOM      3  S   UNL     1       0.615  11.043  18.577  0.00  0.00    +0.000 S 
ATOM      4  C   UNL     1       1.254   9.444  18.702  0.00  0.00    +0.000 A 
ATOM      5  N   UNL     1       1.738   8.577  17.867  0.00  0.00    +0.000 NA
ATOM      6  C   UNL     1       2.153   7.575  18.727  0.00  0.00    +0.000 A 
ATOM      7  N   UNL     1       1.922   7.802  20.039  0.00  0.00    +0.000 NA
ATOM      8  N   UNL     1       1.385   9.038  19.992  0.00  0.00    +0.000 N 
ATOM      9  C   UNL     1       1.046   9.992  20.941  0.00  0.00    +0.000 A 
BRANCH   6  10
ATOM     10  C   UNL     1       2.848   6.364  18.197  0.00  0.00    +0.000 A 
ATOM     11  C   UNL     1       2.266   5.112  18.104  0.00  0.00    +0.000 A 
ATOM     12  C   UNL     1       3.230   4.253  17.526  0.00  0.00    +0.000 A 
ATOM     13  C   UNL     1       4.346   5.026  17.314  0.00  0.00    +0.000 A 
ATOM     14  O   UNL     1       4.126   6.307  17.709  0.00  0.00    +0.000 OA
ENDBRANCH   6  10
BRANCH   9  15
ATOM     15  O   UNL     1       1.169   9.766  22.293  0.00  0.00    +0.000 OA
ATOM     16  H   UNL     1       2.002   9.268  22.426  0.00  0.00    +0.000 HD
ENDBRANCH   9  15
ENDBRANCH   1   2
BRANCH   1  17
ATOM     17  C   UNL     1      -1.085  12.497  21.495  0.00  0.00    +0.000 A 
ATOM     18  C   UNL     1      -1.571  12.381  22.808  0.00  0.00    +0.000 A 
ATOM     19  C   UNL     1      -2.950  12.482  23.081  0.00  0.00    +0.000 A 
ATOM     20  C   UNL     1      -3.875  12.722  22.056  0.00  0.00    +0.000 A 
ATOM     21  C   UNL     1      -5.356  12.801  22.298  0.00  0.00    +0.000 C 
ATOM     22  C   UNL     1      -3.395  12.880  20.754  0.00  0.00    +0.000 A 
ATOM     23  C   UNL     1      -2.029  12.761  20.482  0.00  0.00    +0.000 A 
ENDBRANCH   1  17
BRANCH   1  27
ATOM     24  N   UNL     1       2.810  15.056  22.320  0.00  0.00    +0.000 NA
ATOM     25  C   UNL     1       1.346  15.224  22.319  0.00  0.00    +0.000 C 
ATOM     26  C   UNL     1       0.612  14.954  20.985  0.00  0.00    +0.000 C 
ATOM     27  N   UNL     1       0.929  13.660  20.336  0.00  0.00    +0.000 NA
ATOM     28  C   UNL     1       2.412  13.658  20.189  0.00  0.00    +0.000 C 
ATOM     29  C   UNL     1       3.241  13.933  21.471  0.00  0.00    +0.000 C 
BRANCH  24  31
ATOM     30  C   UNL     1       5.067  16.117  22.320  0.00  0.00    +0.000 C 
ATOM     31  C   UNL     1       3.569  16.285  22.062  0.00  0.00    +0.000 C 
ENDBRANCH  24  31
ENDBRANCH   1  27
TORSDOF 6
ENDMDL
MODEL 9
REMARK VINA RESULT:      -6.4      1.312      1.528
REMARK  Name = 
REMARK  8 active torsions:
REMARK  status: ('A' for Active; 'I' for Inactive)
REMARK    1  A    between atoms: C_1  and  C_2
REMARK    2  A    between atoms: C_2  and  N_3
REMARK    3  A    between atoms: N_6  and  C_7
REMARK    4  A    between atoms: C_7  and  C_8
REMARK    5  A    between atoms: C_7  and  C_15
REMARK    6  A    between atoms: C_11  and  C_12
REMARK    7  A    between atoms: C_19  and  C_20
REMARK    8  A    between atoms: C_27  and  O_28
REMARK                            x       y       z     vdW  Elec       q    Type
REMARK                         _______ _______ _______ _____ _____    ______ ____
ROOT
ATOM      1  C   UNL     1       0.228  11.736  19.691  0.00  0.00    +0.000 C 
ENDROOT
BRANCH   1   2
ATOM      2  C   UNL     1       1.009  10.440  19.529  0.00  0.00    +0.000 A 
ATOM      3  S   UNL     1       0.935   9.136  20.765  0.00  0.00    +0.000 S 
ATOM      4  C   UNL     1       1.799   8.112  19.676  0.00  0.00    +0.000 A 
ATOM      5  N   UNL     1       2.082   6.846  19.631  0.00  0.00    +0.000 NA
ATOM      6  C   UNL     1       2.701   6.752  18.396  0.00  0.00    +0.000 A 
ATOM      7  N   UNL     1       2.811   7.911  17.710  0.00  0.00    +0.000 NA
ATOM      8  N   UNL     1       2.175   8.760  18.543  0.00  0.00    +0.000 N 
ATOM      9  C   UNL     1       1.747  10.077  18.455  0.00  0.00    +0.000 A 
BRANCH   6  10
ATOM     10  C   UNL     1       3.154   5.427  17.877  0.00  0.00    +0.000 A 
ATOM     11  C   UNL     1       4.329   5.229  17.173  0.00  0.00    +0.000 A 
ATOM     12  C   UNL     1       4.413   3.845  16.893  0.00  0.00    +0.000 A 
ATOM     13  C   UNL     1       3.280   3.282  17.430  0.00  0.00    +0.000 A 
ATOM     14  O   UNL     1       2.513   4.227  18.035  0.00  0.00    +0.000 OA
ENDBRANCH   6  10
BRANCH   9  15
ATOM     15  O   UNL     1       1.996  10.863  17.354  0.00  0.00    +0.000 OA
ATOM     16  H   UNL     1       1.714  11.773  17.582  0.00  0.00    +0.000 HD
ENDBRANCH   9  15
ENDBRANCH   1   2
BRANCH   1  17
ATOM     17  C   UNL     1      -1.163  11.528  19.052  0.00  0.00    +0.000 A 
ATOM     18  C   UNL     1      -1.447  10.639  18.002  0.00  0.00    +0.000 A 
ATOM     19  C   UNL     1      -2.765  10.472  17.531  0.00  0.00    +0.000 A 
ATOM     20  C   UNL     1      -3.834  11.168  18.110  0.00  0.00    +0.000 A 
ATOM     21  C   UNL     1      -5.248  11.046  17.617  0.00  0.00    +0.000 C 
ATOM     22  C   UNL     1      -3.565  12.022  19.183  0.00  0.00    +0.000 A 
ATOM     23  C   UNL     1      -2.256  12.201  19.635  0.00  0.00    +0.000 A 
ENDBRANCH   1  17
BRANCH   1  27
ATOM     24  N   UNL     1       1.558  14.485  21.843  0.00  0.00    +0.000 NA
ATOM     25  C   UNL     1       0.292  14.563  21.093  0.00  0.00    +0.000 C 
ATOM     26  C   UNL     1       0.351  14.223  19.585  0.00  0.00    +0.000 C 
ATOM     27  N   UNL     1       1.010  12.939  19.249  0.00  0.00    +0.000 NA
ATOM     28  C   UNL     1       2.360  13.025  19.873  0.00  0.00    +0.000 C 
ATOM     29  C   UNL     1       2.410  13.375  21.385  0.00  0.00    +0.000 C 
BRANCH  24  31
ATOM     30  C   UNL     1       2.130  16.628  20.703  0.00  0.00    +0.000 C 
ATOM     31  C   UNL     1       2.289  15.754  21.948  0.00  0.00    +0.000 C 
ENDBRANCH  24  31
ENDBRANCH   1  27
TORSDOF 6
ENDMDL
