MODEL 1
REMARK VINA RESULT:      -6.6      0.000      0.000
REMARK  Name = 
REMARK  7 active torsions:
REMARK  status: ('A' for Active; 'I' for Inactive)
REMARK    1  A    between atoms: C_1  and  N_2
REMARK    2  A    between atoms: N_2  and  C_3
REMARK    3  A    between atoms: N_2  and  C_4
REMARK    4  A    between atoms: C_4  and  C_5
REMARK    5  A    between atoms: C_5  and  C_6
REMARK    6  A    between atoms: C_6  and  C_7
REMARK    7  A    between atoms: N_9  and  C_10
REMARK                            x       y       z     vdW  Elec       q    Type
REMARK                         _______ _______ _______ _____ _____    ______ ____
ROOT
ATOM      1  C   UNL     1       4.403   4.305  17.270  0.00  0.00    +0.000 C 
ATOM      2  C   UNL     1       4.068   2.828  17.563  0.00  0.00    +0.000 C 
ATOM      3  N   UNL     1       3.408   2.572  18.844  0.00  0.00    +0.000 N 
ATOM      4  C   UNL     1       4.251   2.375  20.019  0.00  0.00    +0.000 C 
ATOM      5  C   UNL     1       2.161   3.169  19.046  0.00  0.00    +0.000 C 
ATOM      6  S   UNL     1       0.757   2.255  19.047  0.00  0.00    +0.000 S 
ATOM      7  C   UNL     1       2.183   4.626  19.295  0.00  0.00    +0.000 A 
ATOM      8  C   UNL     1       1.677   5.153  20.482  0.00  0.00    +0.000 A 
ATOM      9  C   UNL     1       1.725   6.526  20.694  0.00  0.00    +0.000 A 
ATOM     10  C   UNL     1       2.284   7.325  19.703  0.00  0.00    +0.000 A 
ATOM     11  N   UNL     1       2.795   6.842  18.548  0.00  0.00    +0.000 NA
ATOM     12  C   UNL     1       2.744   5.501  18.366  0.00  0.00    +0.000 A 
ATOM     13  O   UNL     1       3.195   5.074  17.149  0.00  0.00    +0.000 OA
ENDROOT
BRANCH   1  14
ATOM     14  C   UNL     1       5.116   4.371  15.904  0.00  0.00    +0.000 C 
BRANCH  14  15
ATOM     15  C   UNL     1       6.587   4.807  15.967  0.00  0.00    +0.000 C 
BRANCH  15  16
ATOM     16  C   UNL     1       7.247   4.629  17.341  0.00  0.00    +0.000 C 
BRANCH  16  18
ATOM     17  C   UNL     1       7.123   7.060  17.432  0.00  0.00    +0.000 C 
ATOM     18  N   UNL     1       7.851   5.865  17.875  0.00  0.00    +0.000 NA
ATOM     19  C   UNL     1       7.864   5.826  19.340  0.00  0.00    +0.000 C 
ENDBRANCH  16  18
ENDBRANCH  15  16
ENDBRANCH  14  15
ENDBRANCH   1  14
TORSDOF 4
ENDMDL
MODEL 2
REMARK VINA RESULT:      -6.3      2.345      5.450
REMARK  Name = 
REMARK  7 active torsions:
REMARK  status: ('A' for Active; 'I' for Inactive)
REMARK    1  A    between atoms: C_1  and  N_2
REMARK    2  A    between atoms: N_2  and  C_3
REMARK    3  A    between atoms: N_2  and  C_4
REMARK    4  A    between atoms: C_4  and  C_5
REMARK    5  A    between atoms: C_5  and  C_6
REMARK    6  A    between atoms: C_6  and  C_7
REMARK    7  A    between atoms: N_9  and  C_10
REMARK                            x       y       z     vdW  Elec       q    Type
REMARK                         _______ _______ _______ _____ _____    ______ ____
ROOT
ATOM      1  C   UNL     1       4.797   3.863  19.224  0.00  0.00    +0.000 C 
ATOM      2  C   UNL     1       3.872   3.938  17.990  0.00  0.00    +0.000 C 
ATOM      3  N   UNL     1       4.015   5.139  17.167  0.00  0.00    +0.000 N 
ATOM      4  C   UNL     1       3.236   6.317  17.536  0.00  0.00    +0.000 C 
ATOM      5  C   UNL     1       5.261   5.358  16.574  0.00  0.00    +0.000 C 
ATOM      6  S   UNL     1       5.477   5.168  14.924  0.00  0.00    +0.000 S 
ATOM      7  C   UNL     1       6.334   5.801  17.489  0.00  0.00    +0.000 A 
ATOM      8  C   UNL     1       6.978   7.023  17.293  0.00  0.00    +0.000 A 
ATOM      9  C   UNL     1       7.974   7.419  18.178  0.00  0.00    +0.000 A 
ATOM     10  C   UNL     1       8.287   6.573  19.236  0.00  0.00    +0.000 A 
ATOM     11  N   UNL     1       7.672   5.390  19.460  0.00  0.00    +0.000 NA
ATOM     12  C   UNL     1       6.701   5.027  18.589  0.00  0.00    +0.000 A 
ATOM     13  O   UNL     1       6.171   3.787  18.810  0.00  0.00    +0.000 OA
ENDROOT
BRANCH   1  14
ATOM     14  C   UNL     1       4.482   2.555  19.977  0.00  0.00    +0.000 C 
BRANCH  14  15
ATOM     15  C   UNL     1       2.987   2.296  20.217  0.00  0.00    +0.000 C 
BRANCH  15  16
ATOM     16  C   UNL     1       2.371   3.120  21.356  0.00  0.00    +0.000 C 
BRANCH  16  18
ATOM     17  C   UNL     1       1.736   5.381  20.713  0.00  0.00    +0.000 C 
ATOM     18  N   UNL     1       1.273   4.005  20.923  0.00  0.00    +0.000 NA
ATOM     19  C   UNL     1       0.682   3.502  19.679  0.00  0.00    +0.000 C 
ENDBRANCH  16  18
ENDBRANCH  15  16
ENDBRANCH  14  15
ENDBRANCH   1  14
TORSDOF 4
ENDMDL
MODEL 3
REMARK VINA RESULT:      -6.1      2.717      5.447
REMARK  Name = 
REMARK  7 active torsions:
REMARK  status: ('A' for Active; 'I' for Inactive)
REMARK    1  A    between atoms: C_1  and  N_2
REMARK    2  A    between atoms: N_2  and  C_3
REMARK    3  A    between atoms: N_2  and  C_4
REMARK    4  A    between atoms: C_4  and  C_5
REMARK    5  A    between atoms: C_5  and  C_6
REMARK    6  A    between atoms: C_6  and  C_7
REMARK    7  A    between atoms: N_9  and  C_10
REMARK                            x       y       z     vdW  Elec       q    Type
REMARK                         _______ _______ _______ _____ _____    ______ ____
ROOT
ATOM      1  C   UNL     1       2.938   6.447  18.864  0.00  0.00    +0.000 C 
ATOM      2  C   UNL     1       4.308   6.728  18.212  0.00  0.00    +0.000 C 
ATOM      3  N   UNL     1       5.154   5.555  17.989  0.00  0.00    +0.000 N 
ATOM      4  C   UNL     1       6.020   5.120  19.080  0.00  0.00    +0.000 C 
ATOM      5  C   UNL     1       4.656   4.567  17.137  0.00  0.00    +0.000 C 
ATOM      6  S   UNL     1       5.306   4.336  15.610  0.00  0.00    +0.000 S 
ATOM      7  C   UNL     1       3.567   3.734  17.691  0.00  0.00    +0.000 A 
ATOM      8  C   UNL     1       3.718   2.354  17.813  0.00  0.00    +0.000 A 
ATOM      9  C   UNL     1       2.682   1.599  18.351  0.00  0.00    +0.000 A 
ATOM     10  C   UNL     1       1.527   2.261  18.752  0.00  0.00    +0.000 A 
ATOM     11  N   UNL     1       1.356   3.598  18.660  0.00  0.00    +0.000 NA
ATOM     12  C   UNL     1       2.381   4.315  18.139  0.00  0.00    +0.000 A 
ATOM     13  O   UNL     1       2.125   5.648  17.988  0.00  0.00    +0.000 OA
ENDROOT
BRANCH   1  14
ATOM     14  C   UNL     1       2.211   7.794  19.047  0.00  0.00    +0.000 C 
BRANCH  14  15
ATOM     15  C   UNL     1       2.111   8.649  17.774  0.00  0.00    +0.000 C 
BRANCH  15  16
ATOM     16  C   UNL     1       1.547  10.058  17.995  0.00  0.00    +0.000 C 
BRANCH  16  18
ATOM     17  C   UNL     1       0.675  11.066  20.034  0.00  0.00    +0.000 C 
ATOM     18  N   UNL     1       0.425  10.106  18.952  0.00  0.00    +0.000 NA
ATOM     19  C   UNL     1      -0.813  10.475  18.259  0.00  0.00    +0.000 C 
ENDBRANCH  16  18
ENDBRANCH  15  16
ENDBRANCH  14  15
ENDBRANCH   1  14
TORSDOF 4
ENDMDL
MODEL 4
REMARK VINA RESULT:      -6.0      3.168      5.532
REMARK  Name = 
REMARK  7 active torsions:
REMARK  status: ('A' for Active; 'I' for Inactive)
REMARK    1  A    between atoms: C_1  and  N_2
REMARK    2  A    between atoms: N_2  and  C_3
REMARK    3  A    between atoms: N_2  and  C_4
REMARK    4  A    between atoms: C_4  and  C_5
REMARK    5  A    between atoms: C_5  and  C_6
REMARK    6  A    between atoms: C_6  and  C_7
REMARK    7  A    between atoms: N_9  and  C_10
REMARK                            x       y       z     vdW  Elec       q    Type
REMARK                         _______ _______ _______ _____ _____    ______ ____
ROOT
ATOM      1  C   UNL     1       7.071   6.827  17.515  0.00  0.00    +0.000 C 
ATOM      2  C   UNL     1       5.915   6.516  18.490  0.00  0.00    +0.000 C 
ATOM      3  N   UNL     1       4.746   5.867  17.895  0.00  0.00    +0.000 N 
ATOM      4  C   UNL     1       3.717   6.719  17.308  0.00  0.00    +0.000 C 
ATOM      5  C   UNL     1       4.944   4.613  17.313  0.00  0.00    +0.000 C 
ATOM      6  S   UNL     1       4.354   3.222  18.038  0.00  0.00    +0.000 S 
ATOM      7  C   UNL     1       5.659   4.614  16.019  0.00  0.00    +0.000 A 
ATOM      8  C   UNL     1       5.054   4.106  14.871  0.00  0.00    +0.000 A 
ATOM      9  C   UNL     1       5.746   4.134  13.665  0.00  0.00    +0.000 A 
ATOM     10  C   UNL     1       7.026   4.677  13.656  0.00  0.00    +0.000 A 
ATOM     11  N   UNL     1       7.634   5.189  14.749  0.00  0.00    +0.000 NA
ATOM     12  C   UNL     1       6.939   5.157  15.911  0.00  0.00    +0.000 A 
ATOM     13  O   UNL     1       7.629   5.607  17.001  0.00  0.00    +0.000 OA
ENDROOT
BRANCH   1  14
ATOM     14  C   UNL     1       8.188   7.532  18.311  0.00  0.00    +0.000 C 
BRANCH  14  15
ATOM     15  C   UNL     1       8.341   9.031  18.015  0.00  0.00    +0.000 C 
BRANCH  15  16
ATOM     16  C   UNL     1       9.158   9.807  19.057  0.00  0.00    +0.000 C 
BRANCH  16  18
ATOM     17  C   UNL     1       9.385  11.955  20.184  0.00  0.00    +0.000 C 
ATOM     18  N   UNL     1       9.045  11.273  18.929  0.00  0.00    +0.000 NA
ATOM     19  C   UNL     1       9.931  11.755  17.866  0.00  0.00    +0.000 C 
ENDBRANCH  16  18
ENDBRANCH  15  16
ENDBRANCH  14  15
ENDBRANCH   1  14
TORSDOF 4
ENDMDL
MODEL 5
REMARK VINA RESULT:      -6.0      1.924      2.802
REMARK  Name = 
REMARK  7 active torsions:
REMARK  status: ('A' for Active; 'I' for Inactive)
REMARK    1  A    between atoms: C_1  and  N_2
REMARK    2  A    between atoms: N_2  and  C_3
REMARK    3  A    between atoms: N_2  and  C_4
REMARK    4  A    between atoms: C_4  and  C_5
REMARK    5  A    between atoms: C_5  and  C_6
REMARK    6  A    between atoms: C_6  and  C_7
REMARK    7  A    between atoms: N_9  and  C_10
REMARK                            x       y       z     vdW  Elec       q    Type
REMARK                         _______ _______ _______ _____ _____    ______ ____
ROOT
ATOM      1  C   UNL     1       4.561   5.235  17.395  0.00  0.00    +0.000 C 
ATOM      2  C   UNL     1       4.414   3.699  17.427  0.00  0.00    +0.000 C 
ATOM      3  N   UNL     1       3.747   3.154  18.610  0.00  0.00    +0.000 N 
ATOM      4  C   UNL     1       4.563   2.871  19.786  0.00  0.00    +0.000 C 
ATOM      5  C   UNL     1       2.425   3.548  18.831  0.00  0.00    +0.000 C 
ATOM      6  S   UNL     1       1.155   2.480  18.603  0.00  0.00    +0.000 S 
ATOM      7  C   UNL     1       2.244   4.935  19.310  0.00  0.00    +0.000 A 
ATOM      8  C   UNL     1       1.627   5.190  20.535  0.00  0.00    +0.000 A 
ATOM      9  C   UNL     1       1.484   6.504  20.965  0.00  0.00    +0.000 A 
ATOM     10  C   UNL     1       1.970   7.520  20.150  0.00  0.00    +0.000 A 
ATOM     11  N   UNL     1       2.584   7.304  18.965  0.00  0.00    +0.000 NA
ATOM     12  C   UNL     1       2.719   6.016  18.568  0.00  0.00    +0.000 A 
ATOM     13  O   UNL     1       3.267   5.857  17.327  0.00  0.00    +0.000 OA
ENDROOT
BRANCH   1  14
ATOM     14  C   UNL     1       5.310   5.615  16.102  0.00  0.00    +0.000 C 
BRANCH  14  15
ATOM     15  C   UNL     1       5.204   4.582  14.970  0.00  0.00    +0.000 C 
BRANCH  15  16
ATOM     16  C   UNL     1       6.538   4.237  14.294  0.00  0.00    +0.000 C 
BRANCH  16  18
ATOM     17  C   UNL     1       4.984   3.527  12.558  0.00  0.00    +0.000 C 
ATOM     18  N   UNL     1       6.386   3.566  12.989  0.00  0.00    +0.000 NA
ATOM     19  C   UNL     1       7.182   4.259  11.971  0.00  0.00    +0.000 C 
ENDBRANCH  16  18
ENDBRANCH  15  16
ENDBRANCH  14  15
ENDBRANCH   1  14
TORSDOF 4
ENDMDL
MODEL 6
REMARK VINA RESULT:      -6.0      2.631      5.719
REMARK  Name = 
REMARK  7 active torsions:
REMARK  status: ('A' for Active; 'I' for Inactive)
REMARK    1  A    between atoms: C_1  and  N_2
REMARK    2  A    between atoms: N_2  and  C_3
REMARK    3  A    between atoms: N_2  and  C_4
REMARK    4  A    between atoms: C_4  and  C_5
REMARK    5  A    between atoms: C_5  and  C_6
REMARK    6  A    between atoms: C_6  and  C_7
REMARK    7  A    between atoms: N_9  and  C_10
REMARK                            x       y       z     vdW  Elec       q    Type
REMARK                         _______ _______ _______ _____ _____    ______ ____
ROOT
ATOM      1  C   UNL     1       2.572   6.771  18.280  0.00  0.00    +0.000 C 
ATOM      2  C   UNL     1       2.099   5.648  19.226  0.00  0.00    +0.000 C 
ATOM      3  N   UNL     1       2.370   4.284  18.772  0.00  0.00    +0.000 N 
ATOM      4  C   UNL     1       1.391   3.647  17.897  0.00  0.00    +0.000 C 
ATOM      5  C   UNL     1       3.710   3.929  18.594  0.00  0.00    +0.000 C 
ATOM      6  S   UNL     1       4.472   2.877  19.651  0.00  0.00    +0.000 S 
ATOM      7  C   UNL     1       4.372   4.507  17.405  0.00  0.00    +0.000 A 
ATOM      8  C   UNL     1       4.907   3.682  16.416  0.00  0.00    +0.000 A 
ATOM      9  C   UNL     1       5.510   4.255  15.303  0.00  0.00    +0.000 A 
ATOM     10  C   UNL     1       5.551   5.643  15.219  0.00  0.00    +0.000 A 
ATOM     11  N   UNL     1       5.029   6.468  16.153  0.00  0.00    +0.000 NA
ATOM     12  C   UNL     1       4.441   5.889  17.226  0.00  0.00    +0.000 A 
ATOM     13  O   UNL     1       4.006   6.765  18.180  0.00  0.00    +0.000 OA
ENDROOT
BRANCH   1  14
ATOM     14  C   UNL     1       2.173   8.122  18.908  0.00  0.00    +0.000 C 
BRANCH  14  15
ATOM     15  C   UNL     1       1.792   9.213  17.896  0.00  0.00    +0.000 C 
BRANCH  15  16
ATOM     16  C   UNL     1       1.047  10.411  18.499  0.00  0.00    +0.000 C 
BRANCH  16  18
ATOM     17  C   UNL     1      -0.295  10.545  20.528  0.00  0.00    +0.000 C 
ATOM     18  N   UNL     1      -0.229  10.052  19.147  0.00  0.00    +0.000 NA
ATOM     19  C   UNL     1      -1.353  10.605  18.386  0.00  0.00    +0.000 C 
ENDBRANCH  16  18
ENDBRANCH  15  16
ENDBRANCH  14  15
ENDBRANCH   1  14
TORSDOF 4
ENDMDL
MODEL 7
REMARK VINA RESULT:      -5.9      2.675      5.658
REMARK  Name = 
REMARK  7 active torsions:
REMARK  status: ('A' for Active; 'I' for Inactive)
REMARK    1  A    between atoms: C_1  and  N_2
REMARK    2  A    between atoms: N_2  and  C_3
REMARK    3  A    between atoms: N_2  and  C_4
REMARK    4  A    between atoms: C_4  and  C_5
REMARK    5  A    between atoms: C_5  and  C_6
REMARK    6  A    between atoms: C_6  and  C_7
REMARK    7  A    between atoms: N_9  and  C_10
REMARK                            x       y       z     vdW  Elec       q    Type
REMARK                         _______ _______ _______ _____ _____    ______ ____
ROOT
ATOM      1  C   UNL     1       2.967   6.633  18.462  0.00  0.00    +0.000 C 
ATOM      2  C   UNL     1       4.376   6.806  17.857  0.00  0.00    +0.000 C 
ATOM      3  N   UNL     1       5.198   5.596  17.815  0.00  0.00    +0.000 N 
ATOM      4  C   UNL     1       5.995   5.270  18.994  0.00  0.00    +0.000 C 
ATOM      5  C   UNL     1       4.716   4.527  17.056  0.00  0.00    +0.000 C 
ATOM      6  S   UNL     1       5.436   4.107  15.603  0.00  0.00    +0.000 S 
ATOM      7  C   UNL     1       3.577   3.789  17.642  0.00  0.00    +0.000 A 
ATOM      8  C   UNL     1       3.682   2.429  17.929  0.00  0.00    +0.000 A 
ATOM      9  C   UNL     1       2.598   1.766  18.494  0.00  0.00    +0.000 A 
ATOM     10  C   UNL     1       1.444   2.496  18.754  0.00  0.00    +0.000 A 
ATOM     11  N   UNL     1       1.317   3.817  18.500  0.00  0.00    +0.000 NA
ATOM     12  C   UNL     1       2.387   4.445  17.956  0.00  0.00    +0.000 A 
ATOM     13  O   UNL     1       2.177   5.757  17.640  0.00  0.00    +0.000 OA
ENDROOT
BRANCH   1  14
ATOM     14  C   UNL     1       2.271   8.009  18.450  0.00  0.00    +0.000 C 
BRANCH  14  15
ATOM     15  C   UNL     1       1.644   8.424  19.789  0.00  0.00    +0.000 C 
BRANCH  15  16
ATOM     16  C   UNL     1       0.837   9.728  19.739  0.00  0.00    +0.000 C 
BRANCH  16  18
ATOM     17  C   UNL     1      -0.233   8.689  21.664  0.00  0.00    +0.000 C 
ATOM     18  N   UNL     1      -0.325   9.743  20.648  0.00  0.00    +0.000 NA
ATOM     19  C   UNL     1      -0.426  11.045  21.314  0.00  0.00    +0.000 C 
ENDBRANCH  16  18
ENDBRANCH  15  16
ENDBRANCH  14  15
ENDBRANCH   1  14
TORSDOF 4
ENDMDL
MODEL 8
REMARK VINA RESULT:      -5.9      2.488      5.772
REMARK  Name = 
REMARK  7 active torsions:
REMARK  status: ('A' for Active; 'I' for Inactive)
REMARK    1  A    between atoms: C_1  and  N_2
REMARK    2  A    between atoms: N_2  and  C_3
REMARK    3  A    between atoms: N_2  and  C_4
REMARK    4  A    between atoms: C_4  and  C_5
REMARK    5  A    between atoms: C_5  and  C_6
REMARK    6  A    between atoms: C_6  and  C_7
REMARK    7  A    between atoms: N_9  and  C_10
REMARK                            x       y       z     vdW  Elec       q    Type
REMARK                         _______ _______ _______ _____ _____    ______ ____
ROOT
ATOM      1  C   UNL     1       2.483   6.581  18.754  0.00  0.00    +0.000 C 
ATOM      2  C   UNL     1       2.030   5.372  19.600  0.00  0.00    +0.000 C 
ATOM      3  N   UNL     1       2.303   4.057  19.019  0.00  0.00    +0.000 N 
ATOM      4  C   UNL     1       1.315   3.496  18.104  0.00  0.00    +0.000 C 
ATOM      5  C   UNL     1       3.642   3.730  18.791  0.00  0.00    +0.000 C 
ATOM      6  S   UNL     1       4.426   2.592  19.737  0.00  0.00    +0.000 S 
ATOM      7  C   UNL     1       4.283   4.419  17.650  0.00  0.00    +0.000 A 
ATOM      8  C   UNL     1       4.809   3.692  16.583  0.00  0.00    +0.000 A 
ATOM      9  C   UNL     1       5.392   4.369  15.518  0.00  0.00    +0.000 A 
ATOM     10  C   UNL     1       5.423   5.758  15.561  0.00  0.00    +0.000 A 
ATOM     11  N   UNL     1       4.910   6.491  16.573  0.00  0.00    +0.000 NA
ATOM     12  C   UNL     1       4.341   5.812  17.597  0.00  0.00    +0.000 A 
ATOM     13  O   UNL     1       3.915   6.594  18.634  0.00  0.00    +0.000 OA
ENDROOT
BRANCH   1  14
ATOM     14  C   UNL     1       2.084   7.866  19.508  0.00  0.00    +0.000 C 
BRANCH  14  15
ATOM     15  C   UNL     1       1.419   7.631  20.872  0.00  0.00    +0.000 C 
BRANCH  15  16
ATOM     16  C   UNL     1       1.247   8.896  21.724  0.00  0.00    +0.000 C 
BRANCH  16  18
ATOM     17  C   UNL     1      -0.473   9.853  23.159  0.00  0.00    +0.000 C 
ATOM     18  N   UNL     1      -0.148   9.367  21.813  0.00  0.00    +0.000 NA
ATOM     19  C   UNL     1      -0.379  10.444  20.845  0.00  0.00    +0.000 C 
ENDBRANCH  16  18
ENDBRANCH  15  16
ENDBRANCH  14  15
ENDBRANCH   1  14
TORSDOF 4
ENDMDL
MODEL 9
REMARK VINA RESULT:      -5.8      2.932      5.831
REMARK  Name = 
REMARK  7 active torsions:
REMARK  status: ('A' for Active; 'I' for Inactive)
REMARK    1  A    between atoms: C_1  and  N_2
REMARK    2  A    between atoms: N_2  and  C_3
REMARK    3  A    between atoms: N_2  and  C_4
REMARK    4  A    between atoms: C_4  and  C_5
REMARK    5  A    between atoms: C_5  and  C_6
REMARK    6  A    between atoms: C_6  and  C_7
REMARK    7  A    between atoms: N_9  and  C_10
REMARK                            x       y       z     vdW  Elec       q    Type
REMARK                         _______ _______ _______ _____ _____    ______ ____
ROOT
ATOM      1  C   UNL     1       3.429   6.360  17.927  0.00  0.00    +0.000 C 
ATOM      2  C   UNL     1       3.917   5.947  19.331  0.00  0.00    +0.000 C 
ATOM      3  N   UNL     1       4.973   4.935  19.360  0.00  0.00    +0.000 N 
ATOM      4  C   UNL     1       4.576   3.531  19.337  0.00  0.00    +0.000 C 
ATOM      5  C   UNL     1       6.185   5.265  18.748  0.00  0.00    +0.000 C 
ATOM      6  S   UNL     1       7.556   5.576  19.659  0.00  0.00    +0.000 S 
ATOM      7  C   UNL     1       6.172   5.276  17.270  0.00  0.00    +0.000 A 
ATOM      8  C   UNL     1       7.013   4.434  16.544  0.00  0.00    +0.000 A 
ATOM      9  C   UNL     1       6.968   4.457  15.155  0.00  0.00    +0.000 A 
ATOM     10  C   UNL     1       6.073   5.326  14.541  0.00  0.00    +0.000 A 
ATOM     11  N   UNL     1       5.236   6.144  15.217  0.00  0.00    +0.000 NA
ATOM     12  C   UNL     1       5.292   6.101  16.569  0.00  0.00    +0.000 A 
ATOM     13  O   UNL     1       4.489   7.006  17.202  0.00  0.00    +0.000 OA
ENDROOT
BRANCH   1  14
ATOM     14  C   UNL     1       2.304   7.400  18.099  0.00  0.00    +0.000 C 
BRANCH  14  15
ATOM     15  C   UNL     1       2.737   8.858  17.884  0.00  0.00    +0.000 C 
BRANCH  15  16
ATOM     16  C   UNL     1       1.591   9.877  17.926  0.00  0.00    +0.000 C 
BRANCH  16  18
ATOM     17  C   UNL     1       0.918  10.143  20.252  0.00  0.00    +0.000 C 
ATOM     18  N   UNL     1       0.566   9.577  18.944  0.00  0.00    +0.000 NA
ATOM     19  C   UNL     1      -0.732  10.111  18.523  0.00  0.00    +0.000 C 
ENDBRANCH  16  18
ENDBRANCH  15  16
ENDBRANCH  14  15
ENDBRANCH   1  14
TORSDOF 4
ENDMDL
