MODEL 1
REMARK VINA RESULT:      -7.6      0.000      0.000
REMARK  Name = 
REMARK  6 active torsions:
REMARK  status: ('A' for Active; 'I' for Inactive)
REMARK    1  A    between atoms: C_1  and  C_2
REMARK    2  A    between atoms: C_5  and  C_6
REMARK    3  A    between atoms: C_7  and  C_8
REMARK    4  A    between atoms: C_8  and  C_9
REMARK    5  A    between atoms: C_9  and  C_10
REMARK    6  A    between atoms: C_14  and  N_15
REMARK                            x       y       z     vdW  Elec       q    Type
REMARK                         _______ _______ _______ _____ _____    ______ ____
ROOT
ATOM      1  C   UNL     1       3.155   6.095  17.883  0.00  0.00    +0.000 C 
ATOM      2  O   UNL     1       2.086   6.688  17.984  0.00  0.00    +0.000 OA
ATOM      3  N   UNL     1       3.234   4.730  17.698  0.00  0.00    +0.000 N 
ATOM      4  C   UNL     1       2.137   3.779  17.602  0.00  0.00    +0.000 C 
ATOM      5  C   UNL     1       2.934   2.834  18.513  0.00  0.00    +0.000 C 
ATOM      6  C   UNL     1       4.131   3.792  18.356  0.00  0.00    +0.000 C 
ENDROOT
BRANCH   5   7
ATOM      7  N   UNL     1       2.458   2.775  19.869  0.00  0.00    +0.000 N 
ATOM      8  C   UNL     1       1.173   2.902  20.322  0.00  0.00    +0.000 A 
ATOM      9  C   UNL     1       1.282   2.727  21.681  0.00  0.00    +0.000 A 
ATOM     10  N   UNL     1       2.591   2.526  22.009  0.00  0.00    +0.000 NA
ATOM     11  N   UNL     1       3.305   2.555  20.891  0.00  0.00    +0.000 NA
ENDBRANCH   5   7
BRANCH   1  12
ATOM     12  C   UNL     1       4.504   6.795  17.883  0.00  0.00    +0.000 C 
BRANCH  12  13
ATOM     13  C   UNL     1       5.193   6.739  16.519  0.00  0.00    +0.000 C 
BRANCH  13  20
ATOM     14  C   UNL     1       7.641   6.195  18.629  0.00  0.00    +0.000 C 
ATOM     15  C   UNL     1       7.315   5.456  17.388  0.00  0.00    +0.000 A 
ATOM     16  N   UNL     1       8.079   4.425  17.012  0.00  0.00    +0.000 NA
ATOM     17  O   UNL     1       7.527   3.951  15.846  0.00  0.00    +0.000 OA
ATOM     18  C   UNL     1       6.442   4.698  15.516  0.00  0.00    +0.000 A 
ATOM     19  C   UNL     1       5.746   4.300  14.275  0.00  0.00    +0.000 C 
ATOM     20  C   UNL     1       6.252   5.685  16.460  0.00  0.00    +0.000 A 
ENDBRANCH  13  20
ENDBRANCH  12  13
ENDBRANCH   1  12
TORSDOF 4
ENDMDL
MODEL 2
REMARK VINA RESULT:      -7.6      0.567      1.846
REMARK  Name = 
REMARK  6 active torsions:
REMARK  status: ('A' for Active; 'I' for Inactive)
REMARK    1  A    between atoms: C_1  and  C_2
REMARK    2  A    between atoms: C_5  and  C_6
REMARK    3  A    between atoms: C_7  and  C_8
REMARK    4  A    between atoms: C_8  and  C_9
REMARK    5  A    between atoms: C_9  and  C_10
REMARK    6  A    between atoms: C_14  and  N_15
REMARK                            x       y       z     vdW  Elec       q    Type
REMARK                         _______ _______ _______ _____ _____    ______ ____
ROOT
ATOM      1  C   UNL     1       3.089   5.762  17.765  0.00  0.00    +0.000 C 
ATOM      2  O   UNL     1       1.925   6.124  17.625  0.00  0.00    +0.000 OA
ATOM      3  N   UNL     1       3.457   4.434  17.793  0.00  0.00    +0.000 N 
ATOM      4  C   UNL     1       2.595   3.267  17.680  0.00  0.00    +0.000 C 
ATOM      5  C   UNL     1       3.392   2.621  18.822  0.00  0.00    +0.000 C 
ATOM      6  C   UNL     1       4.393   3.787  18.701  0.00  0.00    +0.000 C 
ENDROOT
BRANCH   5   7
ATOM      7  N   UNL     1       2.713   2.616  20.090  0.00  0.00    +0.000 N 
ATOM      8  C   UNL     1       1.371   2.730  20.333  0.00  0.00    +0.000 A 
ATOM      9  C   UNL     1       1.272   2.625  21.700  0.00  0.00    +0.000 A 
ATOM     10  N   UNL     1       2.517   2.476  22.236  0.00  0.00    +0.000 NA
ATOM     11  N   UNL     1       3.395   2.469  21.241  0.00  0.00    +0.000 NA
ENDBRANCH   5   7
BRANCH   1  12
ATOM     12  C   UNL     1       4.259   6.728  17.856  0.00  0.00    +0.000 C 
BRANCH  12  13
ATOM     13  C   UNL     1       5.048   6.819  16.550  0.00  0.00    +0.000 C 
BRANCH  13  20
ATOM     14  C   UNL     1       5.521   4.395  14.395  0.00  0.00    +0.000 C 
ATOM     15  C   UNL     1       6.367   4.780  15.547  0.00  0.00    +0.000 A 
ATOM     16  N   UNL     1       7.484   4.091  15.807  0.00  0.00    +0.000 NA
ATOM     17  O   UNL     1       8.044   4.683  16.914  0.00  0.00    +0.000 OA
ATOM     18  C   UNL     1       7.267   5.719  17.324  0.00  0.00    +0.000 A 
ATOM     19  C   UNL     1       7.750   6.449  18.512  0.00  0.00    +0.000 C 
ATOM     20  C   UNL     1       6.171   5.834  16.494  0.00  0.00    +0.000 A 
ENDBRANCH  13  20
ENDBRANCH  12  13
ENDBRANCH   1  12
TORSDOF 4
ENDMDL
MODEL 3
REMARK VINA RESULT:      -7.3      2.176      6.403
REMARK  Name = 
REMARK  6 active torsions:
REMARK  status: ('A' for Active; 'I' for Inactive)
REMARK    1  A    between atoms: C_1  and  C_2
REMARK    2  A    between atoms: C_5  and  C_6
REMARK    3  A    between atoms: C_7  and  C_8
REMARK    4  A    between atoms: C_8  and  C_9
REMARK    5  A    between atoms: C_9  and  C_10
REMARK    6  A    between atoms: C_14  and  N_15
REMARK                            x       y       z     vdW  Elec       q    Type
REMARK                         _______ _______ _______ _____ _____    ______ ____
ROOT
ATOM      1  C   UNL     1       4.523   5.982  18.548  0.00  0.00    +0.000 C 
ATOM      2  O   UNL     1       3.718   6.702  17.964  0.00  0.00    +0.000 OA
ATOM      3  N   UNL     1       5.874   6.002  18.274  0.00  0.00    +0.000 N 
ATOM      4  C   UNL     1       6.572   6.819  17.292  0.00  0.00    +0.000 C 
ATOM      5  C   UNL     1       7.387   5.577  16.902  0.00  0.00    +0.000 C 
ATOM      6  C   UNL     1       6.769   4.865  18.122  0.00  0.00    +0.000 C 
ENDROOT
BRANCH   5   7
ATOM      7  N   UNL     1       6.989   4.972  15.660  0.00  0.00    +0.000 N 
ATOM      8  C   UNL     1       6.054   3.994  15.455  0.00  0.00    +0.000 A 
ATOM      9  C   UNL     1       6.048   3.822  14.092  0.00  0.00    +0.000 A 
ATOM     10  N   UNL     1       6.964   4.658  13.524  0.00  0.00    +0.000 NA
ATOM     11  N   UNL     1       7.535   5.362  14.493  0.00  0.00    +0.000 NA
ENDBRANCH   5   7
BRANCH   1  12
ATOM     12  C   UNL     1       4.138   5.043  19.679  0.00  0.00    +0.000 C 
BRANCH  12  13
ATOM     13  C   UNL     1       2.667   5.174  20.074  0.00  0.00    +0.000 C 
BRANCH  13  20
ATOM     14  C   UNL     1       1.384   4.342  17.176  0.00  0.00    +0.000 C 
ATOM     15  C   UNL     1       1.319   3.603  18.456  0.00  0.00    +0.000 A 
ATOM     16  N   UNL     1       0.663   2.438  18.516  0.00  0.00    +0.000 NA
ATOM     17  O   UNL     1       0.785   2.002  19.814  0.00  0.00    +0.000 OA
ATOM     18  C   UNL     1       1.503   2.900  20.535  0.00  0.00    +0.000 A 
ATOM     19  C   UNL     1       1.712   2.559  21.956  0.00  0.00    +0.000 C 
ATOM     20  C   UNL     1       1.873   3.956  19.727  0.00  0.00    +0.000 A 
ENDBRANCH  13  20
ENDBRANCH  12  13
ENDBRANCH   1  12
TORSDOF 4
ENDMDL
MODEL 4
REMARK VINA RESULT:      -7.2      2.574      3.350
REMARK  Name = 
REMARK  6 active torsions:
REMARK  status: ('A' for Active; 'I' for Inactive)
REMARK    1  A    between atoms: C_1  and  C_2
REMARK    2  A    between atoms: C_5  and  C_6
REMARK    3  A    between atoms: C_7  and  C_8
REMARK    4  A    between atoms: C_8  and  C_9
REMARK    5  A    between atoms: C_9  and  C_10
REMARK    6  A    between atoms: C_14  and  N_15
REMARK                            x       y       z     vdW  Elec       q    Type
REMARK                         _______ _______ _______ _____ _____    ______ ____
ROOT
ATOM      1  C   UNL     1       2.161   4.114  17.860  0.00  0.00    +0.000 C 
ATOM      2  O   UNL     1       1.118   4.188  17.216  0.00  0.00    +0.000 OA
ATOM      3  N   UNL     1       2.202   4.272  19.229  0.00  0.00    +0.000 N 
ATOM      4  C   UNL     1       1.092   4.549  20.129  0.00  0.00    +0.000 C 
ATOM      5  C   UNL     1       1.987   5.568  20.849  0.00  0.00    +0.000 C 
ATOM      6  C   UNL     1       3.165   5.034  20.010  0.00  0.00    +0.000 C 
ENDROOT
BRANCH   5   7
ATOM      7  N   UNL     1       1.684   6.941  20.548  0.00  0.00    +0.000 N 
ATOM      8  C   UNL     1       2.056   7.671  19.452  0.00  0.00    +0.000 A 
ATOM      9  C   UNL     1       1.469   8.896  19.655  0.00  0.00    +0.000 A 
ATOM     10  N   UNL     1       0.795   8.887  20.840  0.00  0.00    +0.000 NA
ATOM     11  N   UNL     1       0.929   7.682  21.380  0.00  0.00    +0.000 NA
ENDBRANCH   5   7
BRANCH   1  12
ATOM     12  C   UNL     1       3.506   3.778  17.237  0.00  0.00    +0.000 C 
BRANCH  12  13
ATOM     13  C   UNL     1       4.285   5.024  16.818  0.00  0.00    +0.000 C 
BRANCH  13  20
ATOM     14  C   UNL     1       6.611   5.343  19.104  0.00  0.00    +0.000 C 
ATOM     15  C   UNL     1       6.758   4.904  17.698  0.00  0.00    +0.000 A 
ATOM     16  N   UNL     1       7.969   4.585  17.227  0.00  0.00    +0.000 NA
ATOM     17  O   UNL     1       7.779   4.217  15.916  0.00  0.00    +0.000 OA
ATOM     18  C   UNL     1       6.464   4.321  15.596  0.00  0.00    +0.000 A 
ATOM     19  C   UNL     1       6.113   3.957  14.209  0.00  0.00    +0.000 C 
ATOM     20  C   UNL     1       5.751   4.762  16.692  0.00  0.00    +0.000 A 
ENDBRANCH  13  20
ENDBRANCH  12  13
ENDBRANCH   1  12
TORSDOF 4
ENDMDL
MODEL 5
REMARK VINA RESULT:      -7.2      2.600      3.756
REMARK  Name = 
REMARK  6 active torsions:
REMARK  status: ('A' for Active; 'I' for Inactive)
REMARK    1  A    between atoms: C_1  and  C_2
REMARK    2  A    between atoms: C_5  and  C_6
REMARK    3  A    between atoms: C_7  and  C_8
REMARK    4  A    between atoms: C_8  and  C_9
REMARK    5  A    between atoms: C_9  and  C_10
REMARK    6  A    between atoms: C_14  and  N_15
REMARK                            x       y       z     vdW  Elec       q    Type
REMARK                         _______ _______ _______ _____ _____    ______ ____
ROOT
ATOM      1  C   UNL     1       2.138   3.992  17.922  0.00  0.00    +0.000 C 
ATOM      2  O   UNL     1       1.096   4.065  17.277  0.00  0.00    +0.000 OA
ATOM      3  N   UNL     1       2.176   4.139  19.292  0.00  0.00    +0.000 N 
ATOM      4  C   UNL     1       1.064   4.405  20.192  0.00  0.00    +0.000 C 
ATOM      5  C   UNL     1       1.952   5.423  20.921  0.00  0.00    +0.000 C 
ATOM      6  C   UNL     1       3.134   4.900  20.080  0.00  0.00    +0.000 C 
ENDROOT
BRANCH   5   7
ATOM      7  N   UNL     1       1.643   6.797  20.630  0.00  0.00    +0.000 N 
ATOM      8  C   UNL     1       2.079   7.560  19.581  0.00  0.00    +0.000 A 
ATOM      9  C   UNL     1       1.453   8.769  19.767  0.00  0.00    +0.000 A 
ATOM     10  N   UNL     1       0.693   8.717  20.899  0.00  0.00    +0.000 NA
ATOM     11  N   UNL     1       0.813   7.503  21.420  0.00  0.00    +0.000 NA
ENDBRANCH   5   7
BRANCH   1  12
ATOM     12  C   UNL     1       3.485   3.666  17.299  0.00  0.00    +0.000 C 
BRANCH  12  13
ATOM     13  C   UNL     1       4.196   4.907  16.758  0.00  0.00    +0.000 C 
BRANCH  13  20
ATOM     14  C   UNL     1       6.156   4.057  14.274  0.00  0.00    +0.000 C 
ATOM     15  C   UNL     1       6.529   4.387  15.668  0.00  0.00    +0.000 A 
ATOM     16  N   UNL     1       7.814   4.349  16.036  0.00  0.00    +0.000 NA
ATOM     17  O   UNL     1       7.838   4.704  17.364  0.00  0.00    +0.000 OA
ATOM     18  C   UNL     1       6.574   4.948  17.796  0.00  0.00    +0.000 A 
ATOM     19  C   UNL     1       6.448   5.341  19.213  0.00  0.00    +0.000 C 
ATOM     20  C   UNL     1       5.683   4.758  16.760  0.00  0.00    +0.000 A 
ENDBRANCH  13  20
ENDBRANCH  12  13
ENDBRANCH   1  12
TORSDOF 4
ENDMDL
MODEL 6
REMARK VINA RESULT:      -7.1      2.019      6.190
REMARK  Name = 
REMARK  6 active torsions:
REMARK  status: ('A' for Active; 'I' for Inactive)
REMARK    1  A    between atoms: C_1  and  C_2
REMARK    2  A    between atoms: C_5  and  C_6
REMARK    3  A    between atoms: C_7  and  C_8
REMARK    4  A    between atoms: C_8  and  C_9
REMARK    5  A    between atoms: C_9  and  C_10
REMARK    6  A    between atoms: C_14  and  N_15
REMARK                            x       y       z     vdW  Elec       q    Type
REMARK                         _______ _______ _______ _____ _____    ______ ____
ROOT
ATOM      1  C   UNL     1       4.409   6.039  18.540  0.00  0.00    +0.000 C 
ATOM      2  O   UNL     1       3.573   6.705  17.936  0.00  0.00    +0.000 OA
ATOM      3  N   UNL     1       5.758   6.109  18.261  0.00  0.00    +0.000 N 
ATOM      4  C   UNL     1       6.419   6.925  17.253  0.00  0.00    +0.000 C 
ATOM      5  C   UNL     1       7.286   5.708  16.899  0.00  0.00    +0.000 C 
ATOM      6  C   UNL     1       6.701   5.007  18.141  0.00  0.00    +0.000 C 
ENDROOT
BRANCH   5   7
ATOM      7  N   UNL     1       6.913   5.049  15.676  0.00  0.00    +0.000 N 
ATOM      8  C   UNL     1       5.933   4.114  15.483  0.00  0.00    +0.000 A 
ATOM      9  C   UNL     1       5.982   3.857  14.134  0.00  0.00    +0.000 A 
ATOM     10  N   UNL     1       6.971   4.604  13.565  0.00  0.00    +0.000 NA
ATOM     11  N   UNL     1       7.536   5.334  14.518  0.00  0.00    +0.000 NA
ENDBRANCH   5   7
BRANCH   1  12
ATOM     12  C   UNL     1       4.067   5.118  19.699  0.00  0.00    +0.000 C 
BRANCH  12  13
ATOM     13  C   UNL     1       2.590   5.191  20.088  0.00  0.00    +0.000 C 
BRANCH  13  20
ATOM     14  C   UNL     1       1.705   2.571  21.846  0.00  0.00    +0.000 C 
ATOM     15  C   UNL     1       1.441   2.851  20.417  0.00  0.00    +0.000 A 
ATOM     16  N   UNL     1       0.764   1.962  19.682  0.00  0.00    +0.000 NA
ATOM     17  O   UNL     1       0.678   2.502  18.421  0.00  0.00    +0.000 OA
ATOM     18  C   UNL     1       1.305   3.705  18.393  0.00  0.00    +0.000 A 
ATOM     19  C   UNL     1       1.292   4.402  17.091  0.00  0.00    +0.000 C 
ATOM     20  C   UNL     1       1.823   3.989  19.639  0.00  0.00    +0.000 A 
ENDBRANCH  13  20
ENDBRANCH  12  13
ENDBRANCH   1  12
TORSDOF 4
ENDMDL
MODEL 7
REMARK VINA RESULT:      -7.0      1.293      1.424
REMARK  Name = 
REMARK  6 active torsions:
REMARK  status: ('A' for Active; 'I' for Inactive)
REMARK    1  A    between atoms: C_1  and  C_2
REMARK    2  A    between atoms: C_5  and  C_6
REMARK    3  A    between atoms: C_7  and  C_8
REMARK    4  A    between atoms: C_8  and  C_9
REMARK    5  A    between atoms: C_9  and  C_10
REMARK    6  A    between atoms: C_14  and  N_15
REMARK                            x       y       z     vdW  Elec       q    Type
REMARK                         _______ _______ _______ _____ _____    ______ ____
ROOT
ATOM      1  C   UNL     1       3.468   6.344  17.881  0.00  0.00    +0.000 C 
ATOM      2  O   UNL     1       3.335   7.052  18.874  0.00  0.00    +0.000 OA
ATOM      3  N   UNL     1       2.756   5.177  17.699  0.00  0.00    +0.000 N 
ATOM      4  C   UNL     1       1.774   4.582  18.594  0.00  0.00    +0.000 C 
ATOM      5  C   UNL     1       2.420   3.216  18.325  0.00  0.00    +0.000 C 
ATOM      6  C   UNL     1       3.251   3.896  17.218  0.00  0.00    +0.000 C 
ENDROOT
BRANCH   5   7
ATOM      7  N   UNL     1       3.241   2.725  19.399  0.00  0.00    +0.000 N 
ATOM      8  C   UNL     1       2.887   2.502  20.702  0.00  0.00    +0.000 A 
ATOM      9  C   UNL     1       4.032   2.003  21.275  0.00  0.00    +0.000 A 
ATOM     10  N   UNL     1       5.025   1.958  20.341  0.00  0.00    +0.000 NA
ATOM     11  N   UNL     1       4.531   2.400  19.192  0.00  0.00    +0.000 NA
ENDBRANCH   5   7
BRANCH   1  12
ATOM     12  C   UNL     1       4.375   6.700  16.714  0.00  0.00    +0.000 C 
BRANCH  12  13
ATOM     13  C   UNL     1       5.800   7.027  17.159  0.00  0.00    +0.000 C 
BRANCH  13  20
ATOM     14  C   UNL     1       7.628   5.743  19.558  0.00  0.00    +0.000 C 
ATOM     15  C   UNL     1       7.494   5.284  18.157  0.00  0.00    +0.000 A 
ATOM     16  N   UNL     1       8.183   4.215  17.743  0.00  0.00    +0.000 NA
ATOM     17  O   UNL     1       7.848   4.038  16.421  0.00  0.00    +0.000 OA
ATOM     18  C   UNL     1       6.968   4.999  16.038  0.00  0.00    +0.000 A 
ATOM     19  C   UNL     1       6.521   4.932  14.633  0.00  0.00    +0.000 C 
ATOM     20  C   UNL     1       6.702   5.836  17.102  0.00  0.00    +0.000 A 
ENDBRANCH  13  20
ENDBRANCH  12  13
ENDBRANCH   1  12
TORSDOF 4
ENDMDL
MODEL 8
REMARK VINA RESULT:      -7.0      1.336      2.274
REMARK  Name = 
REMARK  6 active torsions:
REMARK  status: ('A' for Active; 'I' for Inactive)
REMARK    1  A    between atoms: C_1  and  C_2
REMARK    2  A    between atoms: C_5  and  C_6
REMARK    3  A    between atoms: C_7  and  C_8
REMARK    4  A    between atoms: C_8  and  C_9
REMARK    5  A    between atoms: C_9  and  C_10
REMARK    6  A    between atoms: C_14  and  N_15
REMARK                            x       y       z     vdW  Elec       q    Type
REMARK                         _______ _______ _______ _____ _____    ______ ____
ROOT
ATOM      1  C   UNL     1       3.289   6.265  17.966  0.00  0.00    +0.000 C 
ATOM      2  O   UNL     1       3.128   6.974  18.954  0.00  0.00    +0.000 OA
ATOM      3  N   UNL     1       2.584   5.097  17.766  0.00  0.00    +0.000 N 
ATOM      4  C   UNL     1       1.580   4.501  18.634  0.00  0.00    +0.000 C 
ATOM      5  C   UNL     1       2.235   3.136  18.385  0.00  0.00    +0.000 C 
ATOM      6  C   UNL     1       3.095   3.816  17.301  0.00  0.00    +0.000 C 
ENDROOT
BRANCH   5   7
ATOM      7  N   UNL     1       3.027   2.648  19.482  0.00  0.00    +0.000 N 
ATOM      8  C   UNL     1       4.315   2.187  19.457  0.00  0.00    +0.000 A 
ATOM      9  C   UNL     1       4.586   1.890  20.771  0.00  0.00    +0.000 A 
ATOM     10  N   UNL     1       3.484   2.151  21.532  0.00  0.00    +0.000 NA
ATOM     11  N   UNL     1       2.533   2.618  20.733  0.00  0.00    +0.000 NA
ENDBRANCH   5   7
BRANCH   1  12
ATOM     12  C   UNL     1       4.227   6.622  16.825  0.00  0.00    +0.000 C 
BRANCH  12  13
ATOM     13  C   UNL     1       5.628   6.993  17.312  0.00  0.00    +0.000 C 
BRANCH  13  20
ATOM     14  C   UNL     1       6.144   5.050  14.724  0.00  0.00    +0.000 C 
ATOM     15  C   UNL     1       6.812   5.019  16.045  0.00  0.00    +0.000 A 
ATOM     16  N   UNL     1       7.756   4.103  16.288  0.00  0.00    +0.000 NA
ATOM     17  O   UNL     1       8.182   4.333  17.574  0.00  0.00    +0.000 OA
ATOM     18  C   UNL     1       7.495   5.376  18.107  0.00  0.00    +0.000 A 
ATOM     19  C   UNL     1       7.851   5.734  19.494  0.00  0.00    +0.000 C 
ATOM     20  C   UNL     1       6.595   5.860  17.181  0.00  0.00    +0.000 A 
ENDBRANCH  13  20
ENDBRANCH  12  13
ENDBRANCH   1  12
TORSDOF 4
ENDMDL
MODEL 9
REMARK VINA RESULT:      -7.0      4.044      6.778
REMARK  Name = 
REMARK  6 active torsions:
REMARK  status: ('A' for Active; 'I' for Inactive)
REMARK    1  A    between atoms: C_1  and  C_2
REMARK    2  A    between atoms: C_5  and  C_6
REMARK    3  A    between atoms: C_7  and  C_8
REMARK    4  A    between atoms: C_8  and  C_9
REMARK    5  A    between atoms: C_9  and  C_10
REMARK    6  A    between atoms: C_14  and  N_15
REMARK                            x       y       z     vdW  Elec       q    Type
REMARK                         _______ _______ _______ _____ _____    ______ ____
ROOT
ATOM      1  C   UNL     1       2.651   7.439  18.595  0.00  0.00    +0.000 C 
ATOM      2  O   UNL     1       2.323   7.088  19.724  0.00  0.00    +0.000 OA
ATOM      3  N   UNL     1       3.257   6.586  17.697  0.00  0.00    +0.000 N 
ATOM      4  C   UNL     1       3.617   5.190  17.897  0.00  0.00    +0.000 C 
ATOM      5  C   UNL     1       4.957   5.481  17.207  0.00  0.00    +0.000 C 
ATOM      6  C   UNL     1       4.391   6.865  16.828  0.00  0.00    +0.000 C 
ENDROOT
BRANCH   5   7
ATOM      7  N   UNL     1       6.078   5.578  18.103  0.00  0.00    +0.000 N 
ATOM      8  C   UNL     1       7.268   6.225  17.905  0.00  0.00    +0.000 A 
ATOM      9  C   UNL     1       7.949   6.032  19.082  0.00  0.00    +0.000 A 
ATOM     10  N   UNL     1       7.189   5.282  19.930  0.00  0.00    +0.000 NA
ATOM     11  N   UNL     1       6.041   5.010  19.322  0.00  0.00    +0.000 NA
ENDBRANCH   5   7
BRANCH   1  12
ATOM     12  C   UNL     1       2.370   8.824  18.035  0.00  0.00    +0.000 C 
BRANCH  12  13
ATOM     13  C   UNL     1       0.970   9.326  18.391  0.00  0.00    +0.000 C 
BRANCH  13  20
ATOM     14  C   UNL     1       1.937  12.451  18.583  0.00  0.00    +0.000 C 
ATOM     15  C   UNL     1       1.399  11.588  19.658  0.00  0.00    +0.000 A 
ATOM     16  N   UNL     1       1.267  12.077  20.896  0.00  0.00    +0.000 NA
ATOM     17  O   UNL     1       0.744  11.055  21.652  0.00  0.00    +0.000 OA
ATOM     18  C   UNL     1       0.570   9.953  20.877  0.00  0.00    +0.000 A 
ATOM     19  C   UNL     1       0.014   8.771  21.564  0.00  0.00    +0.000 C 
ATOM     20  C   UNL     1       0.975  10.224  19.586  0.00  0.00    +0.000 A 
ENDBRANCH  13  20
ENDBRANCH  12  13
ENDBRANCH   1  12
TORSDOF 4
ENDMDL
