MODEL 1
REMARK VINA RESULT:      -8.1      0.000      0.000
REMARK  Name = 
REMARK  6 active torsions:
REMARK  status: ('A' for Active; 'I' for Inactive)
REMARK    1  A    between atoms: C_1  and  C_2
REMARK    2  A    between atoms: C_5  and  C_6
REMARK    3  A    between atoms: C_7  and  S_8
REMARK    4  A    between atoms: S_8  and  N_11
REMARK    5  A    between atoms: N_11  and  C_12
REMARK    6  A    between atoms: C_15  and  C_16
REMARK                            x       y       z     vdW  Elec       q    Type
REMARK                         _______ _______ _______ _____ _____    ______ ____
ROOT
ATOM      1  C   UNL     1       2.997   5.998  18.847  0.00  0.00    +0.000 A 
ATOM      2  C   UNL     1       2.373   5.764  20.069  0.00  0.00    +0.000 A 
ATOM      3  C   UNL     1       1.659   6.789  20.696  0.00  0.00    +0.000 A 
ATOM      4  C   UNL     1       1.540   8.050  20.097  0.00  0.00    +0.000 A 
ATOM      5  C   UNL     1       2.167   8.263  18.859  0.00  0.00    +0.000 A 
ATOM      6  C   UNL     1       2.900   7.245  18.237  0.00  0.00    +0.000 A 
ENDROOT
BRANCH   4   7
ATOM      7  C   UNL     1       0.781   9.126  20.717  0.00  0.00    +0.000 A 
ATOM      8  C   UNL     1       0.181   9.094  21.971  0.00  0.00    +0.000 A 
ATOM      9  N   UNL     1      -0.402  10.309  22.087  0.00  0.00    +0.000 N 
ATOM     10  C   UNL     1      -0.160  11.016  20.958  0.00  0.00    +0.000 A 
ATOM     11  N   UNL     1       0.555  10.351  20.096  0.00  0.00    +0.000 NA
ATOM     12  S   UNL     1      -0.840  12.589  20.993  0.00  0.00    +0.000 S 
ATOM     13  C   UNL     1      -1.268  12.421  22.776  0.00  0.00    +0.000 C 
ATOM     14  C   UNL     1      -1.226  10.924  23.099  0.00  0.00    +0.000 C 
ENDBRANCH   4   7
BRANCH   1  15
ATOM     15  N   UNL     1       3.690   4.929  18.213  0.00  0.00    +0.000 N 
ATOM     16  H   UNL     1       3.192   4.045  18.140  0.00  0.00    +0.000 HD
BRANCH  15  17
ATOM     17  S   UNL     1       5.329   4.729  18.566  0.00  0.00    +0.000 S 
ATOM     18  O   UNL     1       5.643   3.321  18.661  0.00  0.00    +0.000 OA
ATOM     19  O   UNL     1       5.617   5.641  19.649  0.00  0.00    +0.000 OA
BRANCH  17  26
ATOM     20  C   UNL     1       5.285   3.983  15.226  0.00  0.00    +0.000 C 
ATOM     21  C   UNL     1       6.193   4.938  15.902  0.00  0.00    +0.000 A 
ATOM     22  N   UNL     1       7.111   5.592  15.176  0.00  0.00    +0.000 NA
ATOM     23  O   UNL     1       7.787   6.410  16.060  0.00  0.00    +0.000 OA
ATOM     24  C   UNL     1       7.286   6.243  17.315  0.00  0.00    +0.000 A 
ATOM     25  C   UNL     1       7.914   7.059  18.371  0.00  0.00    +0.000 C 
ATOM     26  C   UNL     1       6.276   5.311  17.264  0.00  0.00    +0.000 A 
ENDBRANCH  17  26
ENDBRANCH  15  17
ENDBRANCH   1  15
TORSDOF 4
ENDMDL
MODEL 2
REMARK VINA RESULT:      -7.9      0.444      1.899
REMARK  Name = 
REMARK  6 active torsions:
REMARK  status: ('A' for Active; 'I' for Inactive)
REMARK    1  A    between atoms: C_1  and  C_2
REMARK    2  A    between atoms: C_5  and  C_6
REMARK    3  A    between atoms: C_7  and  S_8
REMARK    4  A    between atoms: S_8  and  N_11
REMARK    5  A    between atoms: N_11  and  C_12
REMARK    6  A    between atoms: C_15  and  C_16
REMARK                            x       y       z     vdW  Elec       q    Type
REMARK                         _______ _______ _______ _____ _____    ______ ____
ROOT
ATOM      1  C   UNL     1       2.871   5.928  18.817  0.00  0.00    +0.000 A 
ATOM      2  C   UNL     1       2.833   7.168  18.186  0.00  0.00    +0.000 A 
ATOM      3  C   UNL     1       2.155   8.235  18.783  0.00  0.00    +0.000 A 
ATOM      4  C   UNL     1       1.532   8.081  20.029  0.00  0.00    +0.000 A 
ATOM      5  C   UNL     1       1.592   6.826  20.655  0.00  0.00    +0.000 A 
ATOM      6  C   UNL     1       2.252   5.749  20.051  0.00  0.00    +0.000 A 
ENDROOT
BRANCH   4   7
ATOM      7  C   UNL     1       0.842   9.183  20.683  0.00  0.00    +0.000 A 
ATOM      8  C   UNL     1       0.090   9.106  21.851  0.00  0.00    +0.000 A 
ATOM      9  N   UNL     1      -0.346  10.371  22.044  0.00  0.00    +0.000 N 
ATOM     10  C   UNL     1       0.121  11.150  21.040  0.00  0.00    +0.000 A 
ATOM     11  N   UNL     1       0.850  10.484  20.190  0.00  0.00    +0.000 NA
ATOM     12  S   UNL     1      -0.356  12.789  21.184  0.00  0.00    +0.000 S 
ATOM     13  C   UNL     1      -1.021  12.501  22.877  0.00  0.00    +0.000 C 
ATOM     14  C   UNL     1      -1.207  10.988  23.024  0.00  0.00    +0.000 C 
ENDBRANCH   4   7
BRANCH   1  15
ATOM     15  N   UNL     1       3.596   4.867  18.205  0.00  0.00    +0.000 N 
ATOM     16  H   UNL     1       3.111   3.978  18.115  0.00  0.00    +0.000 HD
BRANCH  15  17
ATOM     17  S   UNL     1       5.225   4.686  18.610  0.00  0.00    +0.000 S 
ATOM     18  O   UNL     1       5.557   3.282  18.694  0.00  0.00    +0.000 OA
ATOM     19  O   UNL     1       5.462   5.584  19.718  0.00  0.00    +0.000 OA
BRANCH  17  26
ATOM     20  C   UNL     1       7.867   6.862  18.660  0.00  0.00    +0.000 C 
ATOM     21  C   UNL     1       7.284   6.213  17.463  0.00  0.00    +0.000 A 
ATOM     22  N   UNL     1       7.803   6.482  16.256  0.00  0.00    +0.000 NA
ATOM     23  O   UNL     1       7.077   5.732  15.352  0.00  0.00    +0.000 OA
ATOM     24  C   UNL     1       6.118   5.023  16.007  0.00  0.00    +0.000 A 
ATOM     25  C   UNL     1       5.260   4.169  15.164  0.00  0.00    +0.000 C 
ATOM     26  C   UNL     1       6.207   5.303  17.351  0.00  0.00    +0.000 A 
ENDBRANCH  17  26
ENDBRANCH  15  17
ENDBRANCH   1  15
TORSDOF 4
ENDMDL
MODEL 3
REMARK VINA RESULT:      -7.9      1.136      1.315
REMARK  Name = 
REMARK  6 active torsions:
REMARK  status: ('A' for Active; 'I' for Inactive)
REMARK    1  A    between atoms: C_1  and  C_2
REMARK    2  A    between atoms: C_5  and  C_6
REMARK    3  A    between atoms: C_7  and  S_8
REMARK    4  A    between atoms: S_8  and  N_11
REMARK    5  A    between atoms: N_11  and  C_12
REMARK    6  A    between atoms: C_15  and  C_16
REMARK                            x       y       z     vdW  Elec       q    Type
REMARK                         _______ _______ _______ _____ _____    ______ ____
ROOT
ATOM      1  C   UNL     1       3.099   6.217  18.584  0.00  0.00    +0.000 A 
ATOM      2  C   UNL     1       2.420   6.376  19.789  0.00  0.00    +0.000 A 
ATOM      3  C   UNL     1       1.764   7.579  20.067  0.00  0.00    +0.000 A 
ATOM      4  C   UNL     1       1.758   8.625  19.134  0.00  0.00    +0.000 A 
ATOM      5  C   UNL     1       2.439   8.440  17.920  0.00  0.00    +0.000 A 
ATOM      6  C   UNL     1       3.113   7.244  17.646  0.00  0.00    +0.000 A 
ENDROOT
BRANCH   4   7
ATOM      7  C   UNL     1       1.062   9.877  19.389  0.00  0.00    +0.000 A 
ATOM      8  C   UNL     1       0.207  10.142  20.454  0.00  0.00    +0.000 A 
ATOM      9  N   UNL     1      -0.188  11.418  20.246  0.00  0.00    +0.000 N 
ATOM     10  C   UNL     1       0.400  11.878  19.116  0.00  0.00    +0.000 A 
ATOM     11  N   UNL     1       1.172  10.988  18.558  0.00  0.00    +0.000 NA
ATOM     12  S   UNL     1      -0.016  13.501  18.756  0.00  0.00    +0.000 S 
ATOM     13  C   UNL     1      -0.840  13.707  20.389  0.00  0.00    +0.000 C 
ATOM     14  C   UNL     1      -1.105  12.299  20.930  0.00  0.00    +0.000 C 
ENDBRANCH   4   7
BRANCH   1  15
ATOM     15  N   UNL     1       3.730   4.970  18.311  0.00  0.00    +0.000 N 
ATOM     16  H   UNL     1       3.200   4.133  18.537  0.00  0.00    +0.000 HD
BRANCH  15  17
ATOM     17  S   UNL     1       5.373   4.822  18.669  0.00  0.00    +0.000 S 
ATOM     18  O   UNL     1       5.716   3.427  18.832  0.00  0.00    +0.000 OA
ATOM     19  O   UNL     1       5.644   5.790  19.707  0.00  0.00    +0.000 OA
BRANCH  17  26
ATOM     20  C   UNL     1       5.331   3.924  15.366  0.00  0.00    +0.000 C 
ATOM     21  C   UNL     1       6.225   4.924  15.995  0.00  0.00    +0.000 A 
ATOM     22  N   UNL     1       7.130   5.558  15.237  0.00  0.00    +0.000 NA
ATOM     23  O   UNL     1       7.795   6.426  16.080  0.00  0.00    +0.000 OA
ATOM     24  C   UNL     1       7.302   6.308  17.343  0.00  0.00    +0.000 A 
ATOM     25  C   UNL     1       7.919   7.181  18.359  0.00  0.00    +0.000 C 
ATOM     26  C   UNL     1       6.306   5.359  17.339  0.00  0.00    +0.000 A 
ENDBRANCH  17  26
ENDBRANCH  15  17
ENDBRANCH   1  15
TORSDOF 4
ENDMDL
MODEL 4
REMARK VINA RESULT:      -7.8      1.547      2.483
REMARK  Name = 
REMARK  6 active torsions:
REMARK  status: ('A' for Active; 'I' for Inactive)
REMARK    1  A    between atoms: C_1  and  C_2
REMARK    2  A    between atoms: C_5  and  C_6
REMARK    3  A    between atoms: C_7  and  S_8
REMARK    4  A    between atoms: S_8  and  N_11
REMARK    5  A    between atoms: N_11  and  C_12
REMARK    6  A    between atoms: C_15  and  C_16
REMARK                            x       y       z     vdW  Elec       q    Type
REMARK                         _______ _______ _______ _____ _____    ______ ____
ROOT
ATOM      1  C   UNL     1       3.020   6.938  18.189  0.00  0.00    +0.000 A 
ATOM      2  C   UNL     1       2.564   8.109  17.592  0.00  0.00    +0.000 A 
ATOM      3  C   UNL     1       1.766   8.999  18.317  0.00  0.00    +0.000 A 
ATOM      4  C   UNL     1       1.437   8.740  19.654  0.00  0.00    +0.000 A 
ATOM      5  C   UNL     1       1.916   7.558  20.243  0.00  0.00    +0.000 A 
ATOM      6  C   UNL     1       2.699   6.655  19.514  0.00  0.00    +0.000 A 
ENDROOT
BRANCH   4   7
ATOM      7  C   UNL     1       0.629   9.662  20.439  0.00  0.00    +0.000 A 
ATOM      8  C   UNL     1       0.147   9.444  21.726  0.00  0.00    +0.000 A 
ATOM      9  N   UNL     1      -0.544  10.571  22.011  0.00  0.00    +0.000 N 
ATOM     10  C   UNL     1      -0.475  11.405  20.946  0.00  0.00    +0.000 A 
ATOM     11  N   UNL     1       0.227  10.907  19.967  0.00  0.00    +0.000 NA
ATOM     12  S   UNL     1      -1.306  12.882  21.197  0.00  0.00    +0.000 S 
ATOM     13  C   UNL     1      -1.558  12.499  22.980  0.00  0.00    +0.000 C 
ATOM     14  C   UNL     1      -1.335  10.992  23.142  0.00  0.00    +0.000 C 
ENDBRANCH   4   7
BRANCH   1  15
ATOM     15  N   UNL     1       3.858   6.065  17.440  0.00  0.00    +0.000 N 
ATOM     16  H   UNL     1       3.979   5.125  17.807  0.00  0.00    +0.000 HD
BRANCH  15  17
ATOM     17  S   UNL     1       5.281   6.702  16.790  0.00  0.00    +0.000 S 
ATOM     18  O   UNL     1       5.738   7.808  17.601  0.00  0.00    +0.000 OA
ATOM     19  O   UNL     1       5.038   6.854  15.374  0.00  0.00    +0.000 OA
BRANCH  17  26
ATOM     20  C   UNL     1       7.227   5.668  19.410  0.00  0.00    +0.000 C 
ATOM     21  C   UNL     1       7.294   5.173  18.015  0.00  0.00    +0.000 A 
ATOM     22  N   UNL     1       8.196   4.235  17.697  0.00  0.00    +0.000 NA
ATOM     23  O   UNL     1       8.013   3.965  16.356  0.00  0.00    +0.000 OA
ATOM     24  C   UNL     1       7.013   4.745  15.863  0.00  0.00    +0.000 A 
ATOM     25  C   UNL     1       6.702   4.565  14.432  0.00  0.00    +0.000 C 
ATOM     26  C   UNL     1       6.530   5.535  16.880  0.00  0.00    +0.000 A 
ENDBRANCH  17  26
ENDBRANCH  15  17
ENDBRANCH   1  15
TORSDOF 4
ENDMDL
MODEL 5
REMARK VINA RESULT:      -7.8      0.890      1.252
REMARK  Name = 
REMARK  6 active torsions:
REMARK  status: ('A' for Active; 'I' for Inactive)
REMARK    1  A    between atoms: C_1  and  C_2
REMARK    2  A    between atoms: C_5  and  C_6
REMARK    3  A    between atoms: C_7  and  S_8
REMARK    4  A    between atoms: S_8  and  N_11
REMARK    5  A    between atoms: N_11  and  C_12
REMARK    6  A    between atoms: C_15  and  C_16
REMARK                            x       y       z     vdW  Elec       q    Type
REMARK                         _______ _______ _______ _____ _____    ______ ____
ROOT
ATOM      1  C   UNL     1       3.043   6.185  18.638  0.00  0.00    +0.000 A 
ATOM      2  C   UNL     1       2.407   6.142  19.875  0.00  0.00    +0.000 A 
ATOM      3  C   UNL     1       1.714   7.263  20.343  0.00  0.00    +0.000 A 
ATOM      4  C   UNL     1       1.627   8.427  19.569  0.00  0.00    +0.000 A 
ATOM      5  C   UNL     1       2.266   8.446  18.318  0.00  0.00    +0.000 A 
ATOM      6  C   UNL     1       2.978   7.333  17.855  0.00  0.00    +0.000 A 
ENDROOT
BRANCH   4   7
ATOM      7  C   UNL     1       0.891   9.598  20.022  0.00  0.00    +0.000 A 
ATOM      8  C   UNL     1       0.532  10.696  19.247  0.00  0.00    +0.000 A 
ATOM      9  N   UNL     1      -0.119  11.507  20.110  0.00  0.00    +0.000 N 
ATOM     10  C   UNL     1      -0.138  10.919  21.330  0.00  0.00    +0.000 A 
ATOM     11  N   UNL     1       0.455   9.759  21.334  0.00  0.00    +0.000 NA
ATOM     12  S   UNL     1      -0.954  11.853  22.513  0.00  0.00    +0.000 S 
ATOM     13  C   UNL     1      -1.577  13.023  21.234  0.00  0.00    +0.000 C 
ATOM     14  C   UNL     1      -0.705  12.820  19.991  0.00  0.00    +0.000 C 
ENDBRANCH   4   7
BRANCH   1  15
ATOM     15  N   UNL     1       3.713   5.020  18.169  0.00  0.00    +0.000 N 
ATOM     16  H   UNL     1       3.192   4.148  18.212  0.00  0.00    +0.000 HD
BRANCH  15  17
ATOM     17  S   UNL     1       5.342   4.830  18.572  0.00  0.00    +0.000 S 
ATOM     18  O   UNL     1       5.648   3.426  18.728  0.00  0.00    +0.000 OA
ATOM     19  O   UNL     1       5.605   5.781  19.628  0.00  0.00    +0.000 OA
BRANCH  17  26
ATOM     20  C   UNL     1       5.438   3.897  15.280  0.00  0.00    +0.000 C 
ATOM     21  C   UNL     1       6.300   4.910  15.933  0.00  0.00    +0.000 A 
ATOM     22  N   UNL     1       7.230   5.543  15.205  0.00  0.00    +0.000 NA
ATOM     23  O   UNL     1       7.855   6.425  16.065  0.00  0.00    +0.000 OA
ATOM     24  C   UNL     1       7.312   6.316  17.308  0.00  0.00    +0.000 A 
ATOM     25  C   UNL     1       7.882   7.205  18.339  0.00  0.00    +0.000 C 
ATOM     26  C   UNL     1       6.324   5.360  17.274  0.00  0.00    +0.000 A 
ENDBRANCH  17  26
ENDBRANCH  15  17
ENDBRANCH   1  15
TORSDOF 4
ENDMDL
MODEL 6
REMARK VINA RESULT:      -7.7      1.119      1.799
REMARK  Name = 
REMARK  6 active torsions:
REMARK  status: ('A' for Active; 'I' for Inactive)
REMARK    1  A    between atoms: C_1  and  C_2
REMARK    2  A    between atoms: C_5  and  C_6
REMARK    3  A    between atoms: C_7  and  S_8
REMARK    4  A    between atoms: S_8  and  N_11
REMARK    5  A    between atoms: N_11  and  C_12
REMARK    6  A    between atoms: C_15  and  C_16
REMARK                            x       y       z     vdW  Elec       q    Type
REMARK                         _______ _______ _______ _____ _____    ______ ____
ROOT
ATOM      1  C   UNL     1       3.026   6.156  18.597  0.00  0.00    +0.000 A 
ATOM      2  C   UNL     1       3.040   7.196  17.673  0.00  0.00    +0.000 A 
ATOM      3  C   UNL     1       2.395   8.400  17.967  0.00  0.00    +0.000 A 
ATOM      4  C   UNL     1       1.751   8.587  19.197  0.00  0.00    +0.000 A 
ATOM      5  C   UNL     1       1.759   7.530  20.122  0.00  0.00    +0.000 A 
ATOM      6  C   UNL     1       2.387   6.315  19.823  0.00  0.00    +0.000 A 
ENDROOT
BRANCH   4   7
ATOM      7  C   UNL     1       1.094   9.840  19.538  0.00  0.00    +0.000 A 
ATOM      8  C   UNL     1       0.622  10.793  18.641  0.00  0.00    +0.000 A 
ATOM      9  N   UNL     1       0.112  11.763  19.432  0.00  0.00    +0.000 N 
ATOM     10  C   UNL     1       0.279  11.402  20.726  0.00  0.00    +0.000 A 
ATOM     11  N   UNL     1       0.865  10.244  20.849  0.00  0.00    +0.000 NA
ATOM     12  S   UNL     1      -0.346  12.554  21.831  0.00  0.00    +0.000 S 
ATOM     13  C   UNL     1      -1.155  13.495  20.471  0.00  0.00    +0.000 C 
ATOM     14  C   UNL     1      -0.484  13.051  19.168  0.00  0.00    +0.000 C 
ENDBRANCH   4   7
BRANCH   1  15
ATOM     15  N   UNL     1       3.719   4.951  18.288  0.00  0.00    +0.000 N 
ATOM     16  H   UNL     1       3.223   4.082  18.469  0.00  0.00    +0.000 HD
BRANCH  15  17
ATOM     17  S   UNL     1       5.360   4.862  18.676  0.00  0.00    +0.000 S 
ATOM     18  O   UNL     1       5.741   3.483  18.883  0.00  0.00    +0.000 OA
ATOM     19  O   UNL     1       5.585   5.868  19.689  0.00  0.00    +0.000 OA
BRANCH  17  26
ATOM     20  C   UNL     1       5.316   3.955  15.375  0.00  0.00    +0.000 C 
ATOM     21  C   UNL     1       6.216   4.951  16.002  0.00  0.00    +0.000 A 
ATOM     22  N   UNL     1       7.125   5.578  15.244  0.00  0.00    +0.000 NA
ATOM     23  O   UNL     1       7.795   6.444  16.085  0.00  0.00    +0.000 OA
ATOM     24  C   UNL     1       7.299   6.333  17.348  0.00  0.00    +0.000 A 
ATOM     25  C   UNL     1       7.921   7.206  18.362  0.00  0.00    +0.000 C 
ATOM     26  C   UNL     1       6.298   5.390  17.345  0.00  0.00    +0.000 A 
ENDBRANCH  17  26
ENDBRANCH  15  17
ENDBRANCH   1  15
TORSDOF 4
ENDMDL
MODEL 7
REMARK VINA RESULT:      -7.7      0.636      1.151
REMARK  Name = 
REMARK  6 active torsions:
REMARK  status: ('A' for Active; 'I' for Inactive)
REMARK    1  A    between atoms: C_1  and  C_2
REMARK    2  A    between atoms: C_5  and  C_6
REMARK    3  A    between atoms: C_7  and  S_8
REMARK    4  A    between atoms: S_8  and  N_11
REMARK    5  A    between atoms: N_11  and  C_12
REMARK    6  A    between atoms: C_15  and  C_16
REMARK                            x       y       z     vdW  Elec       q    Type
REMARK                         _______ _______ _______ _____ _____    ______ ____
ROOT
ATOM      1  C   UNL     1       2.704   6.561  18.453  0.00  0.00    +0.000 A 
ATOM      2  C   UNL     1       2.493   7.780  17.815  0.00  0.00    +0.000 A 
ATOM      3  C   UNL     1       1.848   8.820  18.492  0.00  0.00    +0.000 A 
ATOM      4  C   UNL     1       1.432   8.661  19.820  0.00  0.00    +0.000 A 
ATOM      5  C   UNL     1       1.665   7.428  20.450  0.00  0.00    +0.000 A 
ATOM      6  C   UNL     1       2.292   6.377  19.770  0.00  0.00    +0.000 A 
ENDROOT
BRANCH   4   7
ATOM      7  C   UNL     1       0.781   9.736  20.555  0.00  0.00    +0.000 A 
ATOM      8  C   UNL     1      -0.124   9.589  21.601  0.00  0.00    +0.000 A 
ATOM      9  N   UNL     1      -0.445  10.858  21.938  0.00  0.00    +0.000 N 
ATOM     10  C   UNL     1       0.233  11.707  21.129  0.00  0.00    +0.000 A 
ATOM     11  N   UNL     1       0.995  11.082  20.276  0.00  0.00    +0.000 NA
ATOM     12  S   UNL     1      -0.082  13.356  21.473  0.00  0.00    +0.000 S 
ATOM     13  C   UNL     1      -0.995  12.915  23.010  0.00  0.00    +0.000 C 
ATOM     14  C   UNL     1      -1.359  11.432  22.895  0.00  0.00    +0.000 C 
ENDBRANCH   4   7
BRANCH   1  15
ATOM     15  N   UNL     1       3.393   5.530  17.754  0.00  0.00    +0.000 N 
ATOM     16  H   UNL     1       2.841   4.721  17.478  0.00  0.00    +0.000 HD
BRANCH  15  17
ATOM     17  S   UNL     1       4.943   5.116  18.283  0.00  0.00    +0.000 S 
ATOM     18  O   UNL     1       5.040   3.683  18.442  0.00  0.00    +0.000 OA
ATOM     19  O   UNL     1       5.246   6.018  19.370  0.00  0.00    +0.000 OA
BRANCH  17  26
ATOM     20  C   UNL     1       5.212   4.140  15.013  0.00  0.00    +0.000 C 
ATOM     21  C   UNL     1       6.128   5.051  15.738  0.00  0.00    +0.000 A 
ATOM     22  N   UNL     1       7.187   5.561  15.093  0.00  0.00    +0.000 NA
ATOM     23  O   UNL     1       7.835   6.372  16.003  0.00  0.00    +0.000 OA
ATOM     24  C   UNL     1       7.178   6.343  17.194  0.00  0.00    +0.000 A 
ATOM     25  C   UNL     1       7.758   7.170  18.269  0.00  0.00    +0.000 C 
ATOM     26  C   UNL     1       6.090   5.510  17.075  0.00  0.00    +0.000 A 
ENDBRANCH  17  26
ENDBRANCH  15  17
ENDBRANCH   1  15
TORSDOF 4
ENDMDL
MODEL 8
REMARK VINA RESULT:      -7.7      0.560      1.668
REMARK  Name = 
REMARK  6 active torsions:
REMARK  status: ('A' for Active; 'I' for Inactive)
REMARK    1  A    between atoms: C_1  and  C_2
REMARK    2  A    between atoms: C_5  and  C_6
REMARK    3  A    between atoms: C_7  and  S_8
REMARK    4  A    between atoms: S_8  and  N_11
REMARK    5  A    between atoms: N_11  and  C_12
REMARK    6  A    between atoms: C_15  and  C_16
REMARK                            x       y       z     vdW  Elec       q    Type
REMARK                         _______ _______ _______ _____ _____    ______ ____
ROOT
ATOM      1  C   UNL     1       2.790   6.294  18.665  0.00  0.00    +0.000 A 
ATOM      2  C   UNL     1       2.247   6.066  19.926  0.00  0.00    +0.000 A 
ATOM      3  C   UNL     1       1.605   7.105  20.607  0.00  0.00    +0.000 A 
ATOM      4  C   UNL     1       1.475   8.372  20.024  0.00  0.00    +0.000 A 
ATOM      5  C   UNL     1       2.019   8.578  18.746  0.00  0.00    +0.000 A 
ATOM      6  C   UNL     1       2.681   7.546  18.069  0.00  0.00    +0.000 A 
ENDROOT
BRANCH   4   7
ATOM      7  C   UNL     1       0.789   9.463  20.701  0.00  0.00    +0.000 A 
ATOM      8  C   UNL     1      -0.053   9.348  21.802  0.00  0.00    +0.000 A 
ATOM      9  N   UNL     1      -0.444  10.619  22.050  0.00  0.00    +0.000 N 
ATOM     10  C   UNL     1       0.135  11.436  21.139  0.00  0.00    +0.000 A 
ATOM     11  N   UNL     1       0.896  10.791  20.301  0.00  0.00    +0.000 NA
ATOM     12  S   UNL     1      -0.275  13.085  21.362  0.00  0.00    +0.000 S 
ATOM     13  C   UNL     1      -1.081  12.721  22.977  0.00  0.00    +0.000 C 
ATOM     14  C   UNL     1      -1.348  11.213  23.005  0.00  0.00    +0.000 C 
ENDBRANCH   4   7
BRANCH   1  15
ATOM     15  N   UNL     1       3.409   5.211  17.978  0.00  0.00    +0.000 N 
ATOM     16  H   UNL     1       2.828   4.398  17.793  0.00  0.00    +0.000 HD
BRANCH  15  17
ATOM     17  S   UNL     1       4.989   4.801  18.412  0.00  0.00    +0.000 S 
ATOM     18  O   UNL     1       5.137   3.364  18.423  0.00  0.00    +0.000 OA
ATOM     19  O   UNL     1       5.303   5.601  19.573  0.00  0.00    +0.000 OA
BRANCH  17  26
ATOM     20  C   UNL     1       7.764   6.794  18.623  0.00  0.00    +0.000 C 
ATOM     21  C   UNL     1       7.207   6.189  17.391  0.00  0.00    +0.000 A 
ATOM     22  N   UNL     1       7.810   6.425  16.217  0.00  0.00    +0.000 NA
ATOM     23  O   UNL     1       7.088   5.728  15.268  0.00  0.00    +0.000 OA
ATOM     24  C   UNL     1       6.048   5.084  15.865  0.00  0.00    +0.000 A 
ATOM     25  C   UNL     1       5.184   4.292  14.970  0.00  0.00    +0.000 C 
ATOM     26  C   UNL     1       6.079   5.354  17.213  0.00  0.00    +0.000 A 
ENDBRANCH  17  26
ENDBRANCH  15  17
ENDBRANCH   1  15
TORSDOF 4
ENDMDL
MODEL 9
REMARK VINA RESULT:      -7.7      0.912      1.977
REMARK  Name = 
REMARK  6 active torsions:
REMARK  status: ('A' for Active; 'I' for Inactive)
REMARK    1  A    between atoms: C_1  and  C_2
REMARK    2  A    between atoms: C_5  and  C_6
REMARK    3  A    between atoms: C_7  and  S_8
REMARK    4  A    between atoms: S_8  and  N_11
REMARK    5  A    between atoms: N_11  and  C_12
REMARK    6  A    between atoms: C_15  and  C_16
REMARK                            x       y       z     vdW  Elec       q    Type
REMARK                         _______ _______ _______ _____ _____    ______ ____
ROOT
ATOM      1  C   UNL     1       2.892   6.034  18.889  0.00  0.00    +0.000 A 
ATOM      2  C   UNL     1       2.261   5.944  20.126  0.00  0.00    +0.000 A 
ATOM      3  C   UNL     1       1.598   7.056  20.654  0.00  0.00    +0.000 A 
ATOM      4  C   UNL     1       1.538   8.261  19.940  0.00  0.00    +0.000 A 
ATOM      5  C   UNL     1       2.171   8.328  18.689  0.00  0.00    +0.000 A 
ATOM      6  C   UNL     1       2.853   7.222  18.165  0.00  0.00    +0.000 A 
ENDROOT
BRANCH   4   7
ATOM      7  C   UNL     1       0.833   9.425  20.457  0.00  0.00    +0.000 A 
ATOM      8  C   UNL     1       0.809  10.693  19.886  0.00  0.00    +0.000 A 
ATOM      9  N   UNL     1       0.040  11.417  20.729  0.00  0.00    +0.000 N 
ATOM     10  C   UNL     1      -0.364  10.618  21.745  0.00  0.00    +0.000 A 
ATOM     11  N   UNL     1       0.083   9.399  21.628  0.00  0.00    +0.000 NA
ATOM     12  S   UNL     1      -1.364  11.425  22.878  0.00  0.00    +0.000 S 
ATOM     13  C   UNL     1      -1.499  12.901  21.785  0.00  0.00    +0.000 C 
ATOM     14  C   UNL     1      -0.353  12.805  20.773  0.00  0.00    +0.000 C 
ENDBRANCH   4   7
BRANCH   1  15
ATOM     15  N   UNL     1       3.531   4.878  18.357  0.00  0.00    +0.000 N 
ATOM     16  H   UNL     1       3.006   4.009  18.400  0.00  0.00    +0.000 HD
BRANCH  15  17
ATOM     17  S   UNL     1       5.175   4.666  18.679  0.00  0.00    +0.000 S 
ATOM     18  O   UNL     1       5.483   3.255  18.751  0.00  0.00    +0.000 OA
ATOM     19  O   UNL     1       5.486   5.563  19.769  0.00  0.00    +0.000 OA
BRANCH  17  26
ATOM     20  C   UNL     1       7.916   6.715  18.591  0.00  0.00    +0.000 C 
ATOM     21  C   UNL     1       7.227   6.116  17.424  0.00  0.00    +0.000 A 
ATOM     22  N   UNL     1       7.680   6.382  16.191  0.00  0.00    +0.000 NA
ATOM     23  O   UNL     1       6.862   5.684  15.324  0.00  0.00    +0.000 OA
ATOM     24  C   UNL     1       5.914   5.009  16.029  0.00  0.00    +0.000 A 
ATOM     25  C   UNL     1       4.965   4.212  15.231  0.00  0.00    +0.000 C 
ATOM     26  C   UNL     1       6.102   5.260  17.369  0.00  0.00    +0.000 A 
ENDBRANCH  17  26
ENDBRANCH  15  17
ENDBRANCH   1  15
TORSDOF 4
ENDMDL
