MODEL 1
REMARK VINA RESULT:      -6.7      0.000      0.000
REMARK  Name = 
REMARK  17 active torsions:
REMARK  status: ('A' for Active; 'I' for Inactive)
REMARK    1  A    between atoms: C_1  and  C_2
REMARK    2  A    between atoms: N_4  and  C_5
REMARK    3  A    between atoms: C_5  and  C_6
REMARK    4  A    between atoms: C_6  and  N_7
REMARK    5  A    between atoms: N_7  and  C_8
REMARK    6  A    between atoms: C_8  and  C_9
REMARK    7  A    between atoms: C_9  and  C_10
REMARK    8  A    between atoms: C_10  and  N_11
REMARK    9  A    between atoms: N_11  and  C_12
REMARK   10  A    between atoms: N_11  and  C_13
REMARK   11  A    between atoms: C_22  and  N_23
REMARK   12  A    between atoms: N_23  and  C_24
REMARK   13  A    between atoms: C_24  and  C_25
REMARK   14  A    between atoms: C_25  and  C_26
REMARK   15  A    between atoms: C_26  and  N_27
REMARK   16  A    between atoms: N_27  and  C_28
REMARK   17  A    between atoms: N_27  and  C_29
REMARK                            x       y       z     vdW  Elec       q    Type
REMARK                         _______ _______ _______ _____ _____    ______ ____
ROOT
ATOM      1  C   UNL     1       3.184   7.437  17.264  0.00  0.00    +0.000 C 
ATOM      2  C   UNL     1       2.538   7.704  18.584  0.00  0.00    +0.000 A 
ATOM      3  N   UNL     1       2.969   6.719  19.405  0.00  0.00    +0.000 NA
ATOM      4  N   UNL     1       2.030   6.702  20.323  0.00  0.00    +0.000 N 
ATOM      5  C   UNL     1       1.534   7.927  20.535  0.00  0.00    +0.000 A 
ATOM      6  N   UNL     1       0.939   8.209  21.698  0.00  0.00    +0.000 NA
ATOM      7  C   UNL     1       0.320   9.344  21.756  0.00  0.00    +0.000 A 
ATOM      8  C   UNL     1      -0.194   9.595  23.027  0.00  0.00    +0.000 A 
ATOM      9  C   UNL     1      -0.954  10.707  23.278  0.00  0.00    +0.000 A 
ATOM     10  C   UNL     1      -1.226  11.576  22.248  0.00  0.00    +0.000 A 
ATOM     11  C   UNL     1      -0.694  11.303  20.955  0.00  0.00    +0.000 A 
ATOM     12  C   UNL     1       0.121  10.189  20.661  0.00  0.00    +0.000 A 
ATOM     13  C   UNL     1       0.752   9.813  19.325  0.00  0.00    +0.000 A 
ATOM     14  C   UNL     1       1.584   8.615  19.317  0.00  0.00    +0.000 A 
ENDROOT
BRANCH  13  15
ATOM     15  N   UNL     1       0.404  10.714  18.304  0.00  0.00    +0.000 N 
ATOM     16  H   UNL     1       1.193  10.980  17.721  0.00  0.00    +0.000 HD
BRANCH  15  17
ATOM     17  C   UNL     1      -0.892  10.973  17.702  0.00  0.00    +0.000 C 
BRANCH  17  18
ATOM     18  C   UNL     1      -1.549   9.677  17.221  0.00  0.00    +0.000 C 
BRANCH  18  19
ATOM     19  C   UNL     1      -3.067   9.860  17.078  0.00  0.00    +0.000 C 
BRANCH  19  20
ATOM     20  N   UNL     1      -3.516  10.936  16.171  0.00  0.00    +0.000 NA
ATOM     21  C   UNL     1      -3.866  10.441  14.837  0.00  0.00    +0.000 C 
ATOM     22  C   UNL     1      -4.686  11.595  16.766  0.00  0.00    +0.000 C 
ENDBRANCH  19  20
ENDBRANCH  18  19
ENDBRANCH  17  18
ENDBRANCH  15  17
ENDBRANCH  13  15
BRANCH   4  23
ATOM     23  C   UNL     1       1.278   5.489  20.546  0.00  0.00    +0.000 C 
BRANCH  23  24
ATOM     24  C   UNL     1       2.102   4.477  21.301  0.00  0.00    +0.000 C 
BRANCH  24  25
ATOM     25  N   UNL     1       1.922   3.158  20.706  0.00  0.00    +0.000 NA
ATOM     26  H   UNL     1       1.692   2.469  21.424  0.00  0.00    +0.000 HD
BRANCH  25  27
ATOM     27  C   UNL     1       0.849   3.228  19.725  0.00  0.00    +0.000 C 
BRANCH  27  28
ATOM     28  C   UNL     1       1.346   2.516  18.487  0.00  0.00    +0.000 C 
BRANCH  28  29
ATOM     29  C   UNL     1       2.295   3.417  17.710  0.00  0.00    +0.000 C 
BRANCH  29  30
ATOM     30  N   UNL     1       3.664   2.887  17.699  0.00  0.00    +0.000 NA
ATOM     31  C   UNL     1       4.588   3.727  18.461  0.00  0.00    +0.000 C 
ATOM     32  C   UNL     1       3.660   1.526  18.235  0.00  0.00    +0.000 C 
ENDBRANCH  29  30
ENDBRANCH  28  29
ENDBRANCH  27  28
ENDBRANCH  25  27
ENDBRANCH  24  25
ENDBRANCH  23  24
ENDBRANCH   4  23
TORSDOF 12
ENDMDL
MODEL 2
REMARK VINA RESULT:      -6.6      2.864      8.330
REMARK  Name = 
REMARK  17 active torsions:
REMARK  status: ('A' for Active; 'I' for Inactive)
REMARK    1  A    between atoms: C_1  and  C_2
REMARK    2  A    between atoms: N_4  and  C_5
REMARK    3  A    between atoms: C_5  and  C_6
REMARK    4  A    between atoms: C_6  and  N_7
REMARK    5  A    between atoms: N_7  and  C_8
REMARK    6  A    between atoms: C_8  and  C_9
REMARK    7  A    between atoms: C_9  and  C_10
REMARK    8  A    between atoms: C_10  and  N_11
REMARK    9  A    between atoms: N_11  and  C_12
REMARK   10  A    between atoms: N_11  and  C_13
REMARK   11  A    between atoms: C_22  and  N_23
REMARK   12  A    between atoms: N_23  and  C_24
REMARK   13  A    between atoms: C_24  and  C_25
REMARK   14  A    between atoms: C_25  and  C_26
REMARK   15  A    between atoms: C_26  and  N_27
REMARK   16  A    between atoms: N_27  and  C_28
REMARK   17  A    between atoms: N_27  and  C_29
REMARK                            x       y       z     vdW  Elec       q    Type
REMARK                         _______ _______ _______ _____ _____    ______ ____
ROOT
ATOM      1  C   UNL     1       1.982   9.903  17.893  0.00  0.00    +0.000 C 
ATOM      2  C   UNL     1       1.847   8.721  18.795  0.00  0.00    +0.000 A 
ATOM      3  N   UNL     1       0.889   9.054  19.691  0.00  0.00    +0.000 NA
ATOM      4  N   UNL     1       1.168   8.255  20.694  0.00  0.00    +0.000 N 
ATOM      5  C   UNL     1       1.660   7.086  20.264  0.00  0.00    +0.000 A 
ATOM      6  N   UNL     1       1.569   6.003  21.041  0.00  0.00    +0.000 NA
ATOM      7  C   UNL     1       2.232   4.966  20.644  0.00  0.00    +0.000 A 
ATOM      8  C   UNL     1       2.012   3.859  21.462  0.00  0.00    +0.000 A 
ATOM      9  C   UNL     1       2.683   2.682  21.260  0.00  0.00    +0.000 A 
ATOM     10  C   UNL     1       3.602   2.605  20.241  0.00  0.00    +0.000 A 
ATOM     11  C   UNL     1       3.816   3.746  19.415  0.00  0.00    +0.000 A 
ATOM     12  C   UNL     1       3.123   4.965  19.567  0.00  0.00    +0.000 A 
ATOM     13  C   UNL     1       3.261   6.235  18.734  0.00  0.00    +0.000 A 
ATOM     14  C   UNL     1       2.386   7.344  19.095  0.00  0.00    +0.000 A 
ENDROOT
BRANCH  13  15
ATOM     15  N   UNL     1       4.244   6.109  17.737  0.00  0.00    +0.000 N 
ATOM     16  H   UNL     1       5.049   6.709  17.893  0.00  0.00    +0.000 HD
BRANCH  15  17
ATOM     17  C   UNL     1       4.490   5.013  16.815  0.00  0.00    +0.000 C 
BRANCH  17  18
ATOM     18  C   UNL     1       5.989   4.751  16.654  0.00  0.00    +0.000 C 
BRANCH  18  19
ATOM     19  C   UNL     1       6.775   6.071  16.678  0.00  0.00    +0.000 C 
BRANCH  19  20
ATOM     20  N   UNL     1       7.073   6.633  18.012  0.00  0.00    +0.000 NA
ATOM     21  C   UNL     1       7.720   5.664  18.901  0.00  0.00    +0.000 C 
ATOM     22  C   UNL     1       7.950   7.799  17.845  0.00  0.00    +0.000 C 
ENDBRANCH  19  20
ENDBRANCH  18  19
ENDBRANCH  17  18
ENDBRANCH  15  17
ENDBRANCH  13  15
BRANCH   4  23
ATOM     23  C   UNL     1       1.475   8.820  21.988  0.00  0.00    +0.000 C 
BRANCH  23  24
ATOM     24  C   UNL     1       0.227   9.336  22.659  0.00  0.00    +0.000 C 
BRANCH  24  25
ATOM     25  N   UNL     1       0.093  10.766  22.411  0.00  0.00    +0.000 NA
ATOM     26  H   UNL     1       0.118  10.960  21.408  0.00  0.00    +0.000 HD
BRANCH  25  27
ATOM     27  C   UNL     1      -1.169  11.224  22.974  0.00  0.00    +0.000 C 
BRANCH  27  28
ATOM     28  C   UNL     1      -1.205  12.724  22.793  0.00  0.00    +0.000 C 
BRANCH  28  29
ATOM     29  C   UNL     1      -0.502  13.114  21.501  0.00  0.00    +0.000 C 
BRANCH  29  30
ATOM     30  N   UNL     1       0.853  13.622  21.747  0.00  0.00    +0.000 NA
ATOM     31  C   UNL     1       1.735  13.422  20.597  0.00  0.00    +0.000 C 
ATOM     32  C   UNL     1       0.782  15.043  22.088  0.00  0.00    +0.000 C 
ENDBRANCH  29  30
ENDBRANCH  28  29
ENDBRANCH  27  28
ENDBRANCH  25  27
ENDBRANCH  24  25
ENDBRANCH  23  24
ENDBRANCH   4  23
TORSDOF 12
ENDMDL
MODEL 3
REMARK VINA RESULT:      -6.6      2.705      8.167
REMARK  Name = 
REMARK  17 active torsions:
REMARK  status: ('A' for Active; 'I' for Inactive)
REMARK    1  A    between atoms: C_1  and  C_2
REMARK    2  A    between atoms: N_4  and  C_5
REMARK    3  A    between atoms: C_5  and  C_6
REMARK    4  A    between atoms: C_6  and  N_7
REMARK    5  A    between atoms: N_7  and  C_8
REMARK    6  A    between atoms: C_8  and  C_9
REMARK    7  A    between atoms: C_9  and  C_10
REMARK    8  A    between atoms: C_10  and  N_11
REMARK    9  A    between atoms: N_11  and  C_12
REMARK   10  A    between atoms: N_11  and  C_13
REMARK   11  A    between atoms: C_22  and  N_23
REMARK   12  A    between atoms: N_23  and  C_24
REMARK   13  A    between atoms: C_24  and  C_25
REMARK   14  A    between atoms: C_25  and  C_26
REMARK   15  A    between atoms: C_26  and  N_27
REMARK   16  A    between atoms: N_27  and  C_28
REMARK   17  A    between atoms: N_27  and  C_29
REMARK                            x       y       z     vdW  Elec       q    Type
REMARK                         _______ _______ _______ _____ _____    ______ ____
ROOT
ATOM      1  C   UNL     1       2.277   9.685  17.819  0.00  0.00    +0.000 C 
ATOM      2  C   UNL     1       2.052   8.529  18.738  0.00  0.00    +0.000 A 
ATOM      3  N   UNL     1       1.013   8.887  19.526  0.00  0.00    +0.000 NA
ATOM      4  N   UNL     1       1.191   8.118  20.575  0.00  0.00    +0.000 N 
ATOM      5  C   UNL     1       1.720   6.938  20.229  0.00  0.00    +0.000 A 
ATOM      6  N   UNL     1       1.552   5.878  21.025  0.00  0.00    +0.000 NA
ATOM      7  C   UNL     1       2.249   4.830  20.725  0.00  0.00    +0.000 A 
ATOM      8  C   UNL     1       1.948   3.747  21.549  0.00  0.00    +0.000 A 
ATOM      9  C   UNL     1       2.633   2.565  21.448  0.00  0.00    +0.000 A 
ATOM     10  C   UNL     1       3.647   2.459  20.526  0.00  0.00    +0.000 A 
ATOM     11  C   UNL     1       3.943   3.576  19.692  0.00  0.00    +0.000 A 
ATOM     12  C   UNL     1       3.240   4.799  19.740  0.00  0.00    +0.000 A 
ATOM     13  C   UNL     1       3.461   6.044  18.888  0.00  0.00    +0.000 A 
ATOM     14  C   UNL     1       2.557   7.162  19.130  0.00  0.00    +0.000 A 
ENDROOT
BRANCH  13  15
ATOM     15  N   UNL     1       4.536   5.889  17.996  0.00  0.00    +0.000 N 
ATOM     16  H   UNL     1       5.342   5.436  18.417  0.00  0.00    +0.000 HD
BRANCH  15  17
ATOM     17  C   UNL     1       4.536   5.869  16.543  0.00  0.00    +0.000 C 
BRANCH  17  18
ATOM     18  C   UNL     1       5.956   6.014  15.987  0.00  0.00    +0.000 C 
BRANCH  18  19
ATOM     19  C   UNL     1       6.966   5.287  16.888  0.00  0.00    +0.000 C 
BRANCH  19  20
ATOM     20  N   UNL     1       7.854   6.143  17.702  0.00  0.00    +0.000 NA
ATOM     21  C   UNL     1       7.586   7.572  17.517  0.00  0.00    +0.000 C 
ATOM     22  C   UNL     1       7.672   5.796  19.118  0.00  0.00    +0.000 C 
ENDBRANCH  19  20
ENDBRANCH  18  19
ENDBRANCH  17  18
ENDBRANCH  15  17
ENDBRANCH  13  15
BRANCH   4  23
ATOM     23  C   UNL     1       1.371   8.721  21.875  0.00  0.00    +0.000 C 
BRANCH  23  24
ATOM     24  C   UNL     1       0.302   9.749  22.144  0.00  0.00    +0.000 C 
BRANCH  24  25
ATOM     25  N   UNL     1       0.714  11.037  21.601  0.00  0.00    +0.000 NA
ATOM     26  H   UNL     1       0.919  10.957  20.603  0.00  0.00    +0.000 HD
BRANCH  25  27
ATOM     27  C   UNL     1      -0.359  11.999  21.810  0.00  0.00    +0.000 C 
BRANCH  27  28
ATOM     28  C   UNL     1      -1.064  12.158  20.481  0.00  0.00    +0.000 C 
BRANCH  28  29
ATOM     29  C   UNL     1      -0.046  12.216  19.351  0.00  0.00    +0.000 C 
BRANCH  29  30
ATOM     30  N   UNL     1       0.761  13.441  19.405  0.00  0.00    +0.000 NA
ATOM     31  C   UNL     1       1.966  13.345  18.579  0.00  0.00    +0.000 C 
ATOM     32  C   UNL     1      -0.055  14.577  18.977  0.00  0.00    +0.000 C 
ENDBRANCH  29  30
ENDBRANCH  28  29
ENDBRANCH  27  28
ENDBRANCH  25  27
ENDBRANCH  24  25
ENDBRANCH  23  24
ENDBRANCH   4  23
TORSDOF 12
ENDMDL
MODEL 4
REMARK VINA RESULT:      -6.6      5.388      9.876
REMARK  Name = 
REMARK  17 active torsions:
REMARK  status: ('A' for Active; 'I' for Inactive)
REMARK    1  A    between atoms: C_1  and  C_2
REMARK    2  A    between atoms: N_4  and  C_5
REMARK    3  A    between atoms: C_5  and  C_6
REMARK    4  A    between atoms: C_6  and  N_7
REMARK    5  A    between atoms: N_7  and  C_8
REMARK    6  A    between atoms: C_8  and  C_9
REMARK    7  A    between atoms: C_9  and  C_10
REMARK    8  A    between atoms: C_10  and  N_11
REMARK    9  A    between atoms: N_11  and  C_12
REMARK   10  A    between atoms: N_11  and  C_13
REMARK   11  A    between atoms: C_22  and  N_23
REMARK   12  A    between atoms: N_23  and  C_24
REMARK   13  A    between atoms: C_24  and  C_25
REMARK   14  A    between atoms: C_25  and  C_26
REMARK   15  A    between atoms: C_26  and  N_27
REMARK   16  A    between atoms: N_27  and  C_28
REMARK   17  A    between atoms: N_27  and  C_29
REMARK                            x       y       z     vdW  Elec       q    Type
REMARK                         _______ _______ _______ _____ _____    ______ ____
ROOT
ATOM      1  C   UNL     1       5.400   5.072  19.939  0.00  0.00    +0.000 C 
ATOM      2  C   UNL     1       6.050   5.170  18.598  0.00  0.00    +0.000 A 
ATOM      3  N   UNL     1       7.229   5.798  18.809  0.00  0.00    +0.000 NA
ATOM      4  N   UNL     1       7.491   6.289  17.621  0.00  0.00    +0.000 N 
ATOM      5  C   UNL     1       7.036   5.487  16.651  0.00  0.00    +0.000 A 
ATOM      6  N   UNL     1       7.581   5.546  15.432  0.00  0.00    +0.000 NA
ATOM      7  C   UNL     1       6.967   4.884  14.505  0.00  0.00    +0.000 A 
ATOM      8  C   UNL     1       7.649   4.928  13.291  0.00  0.00    +0.000 A 
ATOM      9  C   UNL     1       7.125   4.357  12.161  0.00  0.00    +0.000 A 
ATOM     10  C   UNL     1       5.895   3.748  12.231  0.00  0.00    +0.000 A 
ATOM     11  C   UNL     1       5.211   3.713  13.480  0.00  0.00    +0.000 A 
ATOM     12  C   UNL     1       5.729   4.258  14.674  0.00  0.00    +0.000 A 
ATOM     13  C   UNL     1       5.092   4.261  16.059  0.00  0.00    +0.000 A 
ATOM     14  C   UNL     1       5.874   4.870  17.129  0.00  0.00    +0.000 A 
ENDROOT
BRANCH  13  15
ATOM     15  N   UNL     1       3.820   3.663  16.058  0.00  0.00    +0.000 N 
ATOM     16  H   UNL     1       3.577   3.246  15.164  0.00  0.00    +0.000 HD
BRANCH  15  17
ATOM     17  C   UNL     1       3.024   3.182  17.174  0.00  0.00    +0.000 C 
BRANCH  17  18
ATOM     18  C   UNL     1       1.874   4.142  17.487  0.00  0.00    +0.000 C 
BRANCH  18  19
ATOM     19  C   UNL     1       2.040   4.745  18.891  0.00  0.00    +0.000 C 
BRANCH  19  20
ATOM     20  N   UNL     1       1.221   4.145  19.964  0.00  0.00    +0.000 NA
ATOM     21  C   UNL     1       0.716   2.814  19.612  0.00  0.00    +0.000 C 
ATOM     22  C   UNL     1       2.039   4.047  21.180  0.00  0.00    +0.000 C 
ENDBRANCH  19  20
ENDBRANCH  18  19
ENDBRANCH  17  18
ENDBRANCH  15  17
ENDBRANCH  13  15
BRANCH   4  23
ATOM     23  C   UNL     1       7.653   7.716  17.463  0.00  0.00    +0.000 C 
BRANCH  23  24
ATOM     24  C   UNL     1       8.610   8.266  18.490  0.00  0.00    +0.000 C 
BRANCH  24  25
ATOM     25  N   UNL     1       8.603   9.722  18.435  0.00  0.00    +0.000 NA
ATOM     26  H   UNL     1       7.653  10.072  18.296  0.00  0.00    +0.000 HD
BRANCH  25  27
ATOM     27  C   UNL     1       9.145  10.241  19.682  0.00  0.00    +0.000 C 
BRANCH  27  28
ATOM     28  C   UNL     1       9.791  11.569  19.356  0.00  0.00    +0.000 C 
BRANCH  28  29
ATOM     29  C   UNL     1      10.125  11.640  17.872  0.00  0.00    +0.000 C 
BRANCH  29  30
ATOM     30  N   UNL     1       9.652  12.889  17.264  0.00  0.00    +0.000 NA
ATOM     31  C   UNL     1       8.340  13.290  17.774  0.00  0.00    +0.000 C 
ATOM     32  C   UNL     1      10.633  13.946  17.509  0.00  0.00    +0.000 C 
ENDBRANCH  29  30
ENDBRANCH  28  29
ENDBRANCH  27  28
ENDBRANCH  25  27
ENDBRANCH  24  25
ENDBRANCH  23  24
ENDBRANCH   4  23
TORSDOF 12
ENDMDL
MODEL 5
REMARK VINA RESULT:      -6.5      1.714      8.535
REMARK  Name = 
REMARK  17 active torsions:
REMARK  status: ('A' for Active; 'I' for Inactive)
REMARK    1  A    between atoms: C_1  and  C_2
REMARK    2  A    between atoms: N_4  and  C_5
REMARK    3  A    between atoms: C_5  and  C_6
REMARK    4  A    between atoms: C_6  and  N_7
REMARK    5  A    between atoms: N_7  and  C_8
REMARK    6  A    between atoms: C_8  and  C_9
REMARK    7  A    between atoms: C_9  and  C_10
REMARK    8  A    between atoms: C_10  and  N_11
REMARK    9  A    between atoms: N_11  and  C_12
REMARK   10  A    between atoms: N_11  and  C_13
REMARK   11  A    between atoms: C_22  and  N_23
REMARK   12  A    between atoms: N_23  and  C_24
REMARK   13  A    between atoms: C_24  and  C_25
REMARK   14  A    between atoms: C_25  and  C_26
REMARK   15  A    between atoms: C_26  and  N_27
REMARK   16  A    between atoms: N_27  and  C_28
REMARK   17  A    between atoms: N_27  and  C_29
REMARK                            x       y       z     vdW  Elec       q    Type
REMARK                         _______ _______ _______ _____ _____    ______ ____
ROOT
ATOM      1  C   UNL     1       0.430   8.676  21.876  0.00  0.00    +0.000 C 
ATOM      2  C   UNL     1       1.207   8.561  20.606  0.00  0.00    +0.000 A 
ATOM      3  N   UNL     1       1.003   9.725  19.947  0.00  0.00    +0.000 NA
ATOM      4  N   UNL     1       1.255   9.381  18.706  0.00  0.00    +0.000 N 
ATOM      5  C   UNL     1       2.208   8.443  18.644  0.00  0.00    +0.000 A 
ATOM      6  N   UNL     1       2.923   8.298  17.524  0.00  0.00    +0.000 NA
ATOM      7  C   UNL     1       3.686   7.255  17.473  0.00  0.00    +0.000 A 
ATOM      8  C   UNL     1       4.459   7.228  16.313  0.00  0.00    +0.000 A 
ATOM      9  C   UNL     1       5.276   6.166  16.028  0.00  0.00    +0.000 A 
ATOM     10  C   UNL     1       5.314   5.102  16.897  0.00  0.00    +0.000 A 
ATOM     11  C   UNL     1       4.517   5.145  18.078  0.00  0.00    +0.000 A 
ATOM     12  C   UNL     1       3.689   6.233  18.426  0.00  0.00    +0.000 A 
ATOM     13  C   UNL     1       2.813   6.389  19.665  0.00  0.00    +0.000 A 
ATOM     14  C   UNL     1       2.083   7.645  19.787  0.00  0.00    +0.000 A 
ENDROOT
BRANCH  13  15
ATOM     15  N   UNL     1       2.862   5.254  20.492  0.00  0.00    +0.000 N 
ATOM     16  H   UNL     1       3.740   5.166  20.997  0.00  0.00    +0.000 HD
BRANCH  15  17
ATOM     17  C   UNL     1       1.774   4.471  21.053  0.00  0.00    +0.000 C 
BRANCH  17  18
ATOM     18  C   UNL     1       2.267   3.105  21.537  0.00  0.00    +0.000 C 
BRANCH  18  19
ATOM     19  C   UNL     1       2.441   2.142  20.353  0.00  0.00    +0.000 C 
BRANCH  19  20
ATOM     20  N   UNL     1       2.023   2.647  19.029  0.00  0.00    +0.000 NA
ATOM     21  C   UNL     1       2.861   2.138  17.940  0.00  0.00    +0.000 C 
ATOM     22  C   UNL     1       0.629   2.250  18.794  0.00  0.00    +0.000 C 
ENDBRANCH  19  20
ENDBRANCH  18  19
ENDBRANCH  17  18
ENDBRANCH  15  17
ENDBRANCH  13  15
BRANCH   4  23
ATOM     23  C   UNL     1       0.227   9.539  17.703  0.00  0.00    +0.000 C 
BRANCH  23  24
ATOM     24  C   UNL     1      -0.928  10.346  18.239  0.00  0.00    +0.000 C 
BRANCH  24  25
ATOM     25  N   UNL     1      -2.147   9.989  17.526  0.00  0.00    +0.000 NA
ATOM     26  H   UNL     1      -2.917   9.841  18.181  0.00  0.00    +0.000 HD
BRANCH  25  27
ATOM     27  C   UNL     1      -2.483  11.063  16.602  0.00  0.00    +0.000 C 
BRANCH  27  28
ATOM     28  C   UNL     1      -3.989  11.066  16.470  0.00  0.00    +0.000 C 
BRANCH  28  29
ATOM     29  C   UNL     1      -4.637  10.959  17.843  0.00  0.00    +0.000 C 
BRANCH  29  30
ATOM     30  N   UNL     1      -5.265  12.221  18.251  0.00  0.00    +0.000 NA
ATOM     31  C   UNL     1      -6.350  12.614  17.351  0.00  0.00    +0.000 C 
ATOM     32  C   UNL     1      -5.767  12.091  19.619  0.00  0.00    +0.000 C 
ENDBRANCH  29  30
ENDBRANCH  28  29
ENDBRANCH  27  28
ENDBRANCH  25  27
ENDBRANCH  24  25
ENDBRANCH  23  24
ENDBRANCH   4  23
TORSDOF 12
ENDMDL
MODEL 6
REMARK VINA RESULT:      -6.4      1.980      8.310
REMARK  Name = 
REMARK  17 active torsions:
REMARK  status: ('A' for Active; 'I' for Inactive)
REMARK    1  A    between atoms: C_1  and  C_2
REMARK    2  A    between atoms: N_4  and  C_5
REMARK    3  A    between atoms: C_5  and  C_6
REMARK    4  A    between atoms: C_6  and  N_7
REMARK    5  A    between atoms: N_7  and  C_8
REMARK    6  A    between atoms: C_8  and  C_9
REMARK    7  A    between atoms: C_9  and  C_10
REMARK    8  A    between atoms: C_10  and  N_11
REMARK    9  A    between atoms: N_11  and  C_12
REMARK   10  A    between atoms: N_11  and  C_13
REMARK   11  A    between atoms: C_22  and  N_23
REMARK   12  A    between atoms: N_23  and  C_24
REMARK   13  A    between atoms: C_24  and  C_25
REMARK   14  A    between atoms: C_25  and  C_26
REMARK   15  A    between atoms: C_26  and  N_27
REMARK   16  A    between atoms: N_27  and  C_28
REMARK   17  A    between atoms: N_27  and  C_29
REMARK                            x       y       z     vdW  Elec       q    Type
REMARK                         _______ _______ _______ _____ _____    ______ ____
ROOT
ATOM      1  C   UNL     1       0.600   8.450  21.792  0.00  0.00    +0.000 C 
ATOM      2  C   UNL     1       1.397   8.326  20.534  0.00  0.00    +0.000 A 
ATOM      3  N   UNL     1       1.196   9.482  19.861  0.00  0.00    +0.000 NA
ATOM      4  N   UNL     1       1.468   9.126  18.626  0.00  0.00    +0.000 N 
ATOM      5  C   UNL     1       2.428   8.193  18.589  0.00  0.00    +0.000 A 
ATOM      6  N   UNL     1       3.160   8.039  17.482  0.00  0.00    +0.000 NA
ATOM      7  C   UNL     1       3.929   7.000  17.453  0.00  0.00    +0.000 A 
ATOM      8  C   UNL     1       4.719   6.965  16.305  0.00  0.00    +0.000 A 
ATOM      9  C   UNL     1       5.546   5.904  16.044  0.00  0.00    +0.000 A 
ATOM     10  C   UNL     1       5.577   4.850  16.925  0.00  0.00    +0.000 A 
ATOM     11  C   UNL     1       4.762   4.901  18.093  0.00  0.00    +0.000 A 
ATOM     12  C   UNL     1       3.923   5.989  18.418  0.00  0.00    +0.000 A 
ATOM     13  C   UNL     1       3.029   6.152  19.641  0.00  0.00    +0.000 A 
ATOM     14  C   UNL     1       2.290   7.406  19.739  0.00  0.00    +0.000 A 
ENDROOT
BRANCH  13  15
ATOM     15  N   UNL     1       3.071   5.027  20.482  0.00  0.00    +0.000 N 
ATOM     16  H   UNL     1       4.009   4.806  20.805  0.00  0.00    +0.000 HD
BRANCH  15  17
ATOM     17  C   UNL     1       2.013   4.424  21.274  0.00  0.00    +0.000 C 
BRANCH  17  18
ATOM     18  C   UNL     1       1.719   2.995  20.810  0.00  0.00    +0.000 C 
BRANCH  18  19
ATOM     19  C   UNL     1       0.669   2.996  19.689  0.00  0.00    +0.000 C 
BRANCH  19  20
ATOM     20  N   UNL     1       1.164   2.708  18.327  0.00  0.00    +0.000 NA
ATOM     21  C   UNL     1       1.292   3.916  17.506  0.00  0.00    +0.000 C 
ATOM     22  C   UNL     1       2.474   2.052  18.431  0.00  0.00    +0.000 C 
ENDBRANCH  19  20
ENDBRANCH  18  19
ENDBRANCH  17  18
ENDBRANCH  15  17
ENDBRANCH  13  15
BRANCH   4  23
ATOM     23  C   UNL     1       0.455   9.267  17.607  0.00  0.00    +0.000 C 
BRANCH  23  24
ATOM     24  C   UNL     1      -0.691  10.114  18.101  0.00  0.00    +0.000 C 
BRANCH  24  25
ATOM     25  N   UNL     1      -0.249  11.494  18.252  0.00  0.00    +0.000 NA
ATOM     26  H   UNL     1      -0.216  11.963  17.344  0.00  0.00    +0.000 HD
BRANCH  25  27
ATOM     27  C   UNL     1      -1.175  12.189  19.134  0.00  0.00    +0.000 C 
BRANCH  27  28
ATOM     28  C   UNL     1      -0.338  12.863  20.198  0.00  0.00    +0.000 C 
BRANCH  28  29
ATOM     29  C   UNL     1      -1.236  13.466  21.269  0.00  0.00    +0.000 C 
BRANCH  29  30
ATOM     30  N   UNL     1      -0.833  13.052  22.618  0.00  0.00    +0.000 NA
ATOM     31  C   UNL     1      -1.278  13.999  23.642  0.00  0.00    +0.000 C 
ATOM     32  C   UNL     1      -1.370  11.720  22.895  0.00  0.00    +0.000 C 
ENDBRANCH  29  30
ENDBRANCH  28  29
ENDBRANCH  27  28
ENDBRANCH  25  27
ENDBRANCH  24  25
ENDBRANCH  23  24
ENDBRANCH   4  23
TORSDOF 12
ENDMDL
MODEL 7
REMARK VINA RESULT:      -6.4      1.219      1.530
REMARK  Name = 
REMARK  17 active torsions:
REMARK  status: ('A' for Active; 'I' for Inactive)
REMARK    1  A    between atoms: C_1  and  C_2
REMARK    2  A    between atoms: N_4  and  C_5
REMARK    3  A    between atoms: C_5  and  C_6
REMARK    4  A    between atoms: C_6  and  N_7
REMARK    5  A    between atoms: N_7  and  C_8
REMARK    6  A    between atoms: C_8  and  C_9
REMARK    7  A    between atoms: C_9  and  C_10
REMARK    8  A    between atoms: C_10  and  N_11
REMARK    9  A    between atoms: N_11  and  C_12
REMARK   10  A    between atoms: N_11  and  C_13
REMARK   11  A    between atoms: C_22  and  N_23
REMARK   12  A    between atoms: N_23  and  C_24
REMARK   13  A    between atoms: C_24  and  C_25
REMARK   14  A    between atoms: C_25  and  C_26
REMARK   15  A    between atoms: C_26  and  N_27
REMARK   16  A    between atoms: N_27  and  C_28
REMARK   17  A    between atoms: N_27  and  C_29
REMARK                            x       y       z     vdW  Elec       q    Type
REMARK                         _______ _______ _______ _____ _____    ______ ____
ROOT
ATOM      1  C   UNL     1       3.111   7.424  17.151  0.00  0.00    +0.000 C 
ATOM      2  C   UNL     1       2.531   7.680  18.504  0.00  0.00    +0.000 A 
ATOM      3  N   UNL     1       3.092   6.758  19.320  0.00  0.00    +0.000 NA
ATOM      4  N   UNL     1       2.218   6.696  20.298  0.00  0.00    +0.000 N 
ATOM      5  C   UNL     1       1.639   7.884  20.511  0.00  0.00    +0.000 A 
ATOM      6  N   UNL     1       1.099   8.153  21.703  0.00  0.00    +0.000 NA
ATOM      7  C   UNL     1       0.395   9.236  21.772  0.00  0.00    +0.000 A 
ATOM      8  C   UNL     1      -0.056   9.486  23.067  0.00  0.00    +0.000 A 
ATOM      9  C   UNL     1      -0.885  10.541  23.339  0.00  0.00    +0.000 A 
ATOM     10  C   UNL     1      -1.291  11.353  22.308  0.00  0.00    +0.000 A 
ATOM     11  C   UNL     1      -0.823  11.084  20.990  0.00  0.00    +0.000 A 
ATOM     12  C   UNL     1       0.059  10.029  20.671  0.00  0.00    +0.000 A 
ATOM     13  C   UNL     1       0.632   9.663  19.306  0.00  0.00    +0.000 A 
ATOM     14  C   UNL     1       1.556   8.535  19.274  0.00  0.00    +0.000 A 
ENDROOT
BRANCH  13  15
ATOM     15  N   UNL     1       0.148  10.502  18.288  0.00  0.00    +0.000 N 
ATOM     16  H   UNL     1       0.814  11.217  18.011  0.00  0.00    +0.000 HD
BRANCH  15  17
ATOM     17  C   UNL     1      -0.905  10.262  17.316  0.00  0.00    +0.000 C 
BRANCH  17  18
ATOM     18  C   UNL     1      -2.262  10.083  18.003  0.00  0.00    +0.000 C 
BRANCH  18  19
ATOM     19  C   UNL     1      -2.989  11.430  18.126  0.00  0.00    +0.000 C 
BRANCH  19  20
ATOM     20  N   UNL     1      -4.186  11.610  17.279  0.00  0.00    +0.000 NA
ATOM     21  C   UNL     1      -4.037  11.001  15.954  0.00  0.00    +0.000 C 
ATOM     22  C   UNL     1      -5.339  11.008  17.962  0.00  0.00    +0.000 C 
ENDBRANCH  19  20
ENDBRANCH  18  19
ENDBRANCH  17  18
ENDBRANCH  15  17
ENDBRANCH  13  15
BRANCH   4  23
ATOM     23  C   UNL     1       1.583   5.434  20.602  0.00  0.00    +0.000 C 
BRANCH  23  24
ATOM     24  C   UNL     1       2.299   4.294  19.923  0.00  0.00    +0.000 C 
BRANCH  24  25
ATOM     25  N   UNL     1       1.663   4.009  18.643  0.00  0.00    +0.000 NA
ATOM     26  H   UNL     1       1.618   4.854  18.069  0.00  0.00    +0.000 HD
BRANCH  25  27
ATOM     27  C   UNL     1       2.432   2.983  17.954  0.00  0.00    +0.000 C 
BRANCH  27  28
ATOM     28  C   UNL     1       3.886   3.380  18.069  0.00  0.00    +0.000 C 
BRANCH  28  29
ATOM     29  C   UNL     1       4.377   3.961  16.750  0.00  0.00    +0.000 C 
BRANCH  29  30
ATOM     30  N   UNL     1       5.584   4.777  16.928  0.00  0.00    +0.000 NA
ATOM     31  C   UNL     1       6.067   4.754  18.309  0.00  0.00    +0.000 C 
ATOM     32  C   UNL     1       6.627   4.300  16.020  0.00  0.00    +0.000 C 
ENDBRANCH  29  30
ENDBRANCH  28  29
ENDBRANCH  27  28
ENDBRANCH  25  27
ENDBRANCH  24  25
ENDBRANCH  23  24
ENDBRANCH   4  23
TORSDOF 12
ENDMDL
MODEL 8
REMARK VINA RESULT:      -6.4      1.799      8.567
REMARK  Name = 
REMARK  17 active torsions:
REMARK  status: ('A' for Active; 'I' for Inactive)
REMARK    1  A    between atoms: C_1  and  C_2
REMARK    2  A    between atoms: N_4  and  C_5
REMARK    3  A    between atoms: C_5  and  C_6
REMARK    4  A    between atoms: C_6  and  N_7
REMARK    5  A    between atoms: N_7  and  C_8
REMARK    6  A    between atoms: C_8  and  C_9
REMARK    7  A    between atoms: C_9  and  C_10
REMARK    8  A    between atoms: C_10  and  N_11
REMARK    9  A    between atoms: N_11  and  C_12
REMARK   10  A    between atoms: N_11  and  C_13
REMARK   11  A    between atoms: C_22  and  N_23
REMARK   12  A    between atoms: N_23  and  C_24
REMARK   13  A    between atoms: C_24  and  C_25
REMARK   14  A    between atoms: C_25  and  C_26
REMARK   15  A    between atoms: C_26  and  N_27
REMARK   16  A    between atoms: N_27  and  C_28
REMARK   17  A    between atoms: N_27  and  C_29
REMARK                            x       y       z     vdW  Elec       q    Type
REMARK                         _______ _______ _______ _____ _____    ______ ____
ROOT
ATOM      1  C   UNL     1       0.005   8.957  22.235  0.00  0.00    +0.000 C 
ATOM      2  C   UNL     1       0.813   8.825  20.986  0.00  0.00    +0.000 A 
ATOM      3  N   UNL     1       0.713  10.020  20.360  0.00  0.00    +0.000 NA
ATOM      4  N   UNL     1       0.981   9.696  19.116  0.00  0.00    +0.000 N 
ATOM      5  C   UNL     1       1.868   8.696  19.053  0.00  0.00    +0.000 A 
ATOM      6  N   UNL     1       2.607   8.534  17.952  0.00  0.00    +0.000 NA
ATOM      7  C   UNL     1       3.297   7.441  17.890  0.00  0.00    +0.000 A 
ATOM      8  C   UNL     1       4.104   7.394  16.755  0.00  0.00    +0.000 A 
ATOM      9  C   UNL     1       4.853   6.286  16.461  0.00  0.00    +0.000 A 
ATOM     10  C   UNL     1       4.788   5.197  17.296  0.00  0.00    +0.000 A 
ATOM     11  C   UNL     1       3.958   5.260  18.452  0.00  0.00    +0.000 A 
ATOM     12  C   UNL     1       3.197   6.394  18.810  0.00  0.00    +0.000 A 
ATOM     13  C   UNL     1       2.294   6.573  20.026  0.00  0.00    +0.000 A 
ATOM     14  C   UNL     1       1.650   7.874  20.165  0.00  0.00    +0.000 A 
ENDROOT
BRANCH  13  15
ATOM     15  N   UNL     1       2.236   5.414  20.817  0.00  0.00    +0.000 N 
ATOM     16  H   UNL     1       2.824   5.466  21.644  0.00  0.00    +0.000 HD
BRANCH  15  17
ATOM     17  C   UNL     1       1.206   4.391  20.884  0.00  0.00    +0.000 C 
BRANCH  17  18
ATOM     18  C   UNL     1       1.793   3.041  21.305  0.00  0.00    +0.000 C 
BRANCH  18  19
ATOM     19  C   UNL     1       2.900   2.606  20.333  0.00  0.00    +0.000 C 
BRANCH  19  20
ATOM     20  N   UNL     1       2.475   1.790  19.178  0.00  0.00    +0.000 NA
ATOM     21  C   UNL     1       1.501   2.480  18.327  0.00  0.00    +0.000 C 
ATOM     22  C   UNL     1       3.661   1.451  18.380  0.00  0.00    +0.000 C 
ENDBRANCH  19  20
ENDBRANCH  18  19
ENDBRANCH  17  18
ENDBRANCH  15  17
ENDBRANCH  13  15
BRANCH   4  23
ATOM     23  C   UNL     1       0.001   9.957  18.087  0.00  0.00    +0.000 C 
BRANCH  23  24
ATOM     24  C   UNL     1      -0.735  11.245  18.359  0.00  0.00    +0.000 C 
BRANCH  24  25
ATOM     25  N   UNL     1      -1.712  11.482  17.304  0.00  0.00    +0.000 NA
ATOM     26  H   UNL     1      -1.299  11.309  16.386  0.00  0.00    +0.000 HD
BRANCH  25  27
ATOM     27  C   UNL     1      -2.849  10.596  17.510  0.00  0.00    +0.000 C 
BRANCH  27  28
ATOM     28  C   UNL     1      -4.093  11.438  17.335  0.00  0.00    +0.000 C 
BRANCH  28  29
ATOM     29  C   UNL     1      -5.236  10.863  18.158  0.00  0.00    +0.000 C 
BRANCH  29  30
ATOM     30  N   UNL     1      -5.816  11.863  19.062  0.00  0.00    +0.000 NA
ATOM     31  C   UNL     1      -6.728  11.264  20.037  0.00  0.00    +0.000 C 
ATOM     32  C   UNL     1      -4.738  12.575  19.750  0.00  0.00    +0.000 C 
ENDBRANCH  29  30
ENDBRANCH  28  29
ENDBRANCH  27  28
ENDBRANCH  25  27
ENDBRANCH  24  25
ENDBRANCH  23  24
ENDBRANCH   4  23
TORSDOF 12
ENDMDL
MODEL 9
REMARK VINA RESULT:      -6.4      2.838      8.708
REMARK  Name = 
REMARK  17 active torsions:
REMARK  status: ('A' for Active; 'I' for Inactive)
REMARK    1  A    between atoms: C_1  and  C_2
REMARK    2  A    between atoms: N_4  and  C_5
REMARK    3  A    between atoms: C_5  and  C_6
REMARK    4  A    between atoms: C_6  and  N_7
REMARK    5  A    between atoms: N_7  and  C_8
REMARK    6  A    between atoms: C_8  and  C_9
REMARK    7  A    between atoms: C_9  and  C_10
REMARK    8  A    between atoms: C_10  and  N_11
REMARK    9  A    between atoms: N_11  and  C_12
REMARK   10  A    between atoms: N_11  and  C_13
REMARK   11  A    between atoms: C_22  and  N_23
REMARK   12  A    between atoms: N_23  and  C_24
REMARK   13  A    between atoms: C_24  and  C_25
REMARK   14  A    between atoms: C_25  and  C_26
REMARK   15  A    between atoms: C_26  and  N_27
REMARK   16  A    between atoms: N_27  and  C_28
REMARK   17  A    between atoms: N_27  and  C_29
REMARK                            x       y       z     vdW  Elec       q    Type
REMARK                         _______ _______ _______ _____ _____    ______ ____
ROOT
ATOM      1  C   UNL     1       2.001   9.844  17.763  0.00  0.00    +0.000 C 
ATOM      2  C   UNL     1       1.872   8.669  18.676  0.00  0.00    +0.000 A 
ATOM      3  N   UNL     1       0.899   8.998  19.557  0.00  0.00    +0.000 NA
ATOM      4  N   UNL     1       1.177   8.213  20.572  0.00  0.00    +0.000 N 
ATOM      5  C   UNL     1       1.691   7.048  20.160  0.00  0.00    +0.000 A 
ATOM      6  N   UNL     1       1.606   5.971  20.948  0.00  0.00    +0.000 NA
ATOM      7  C   UNL     1       2.289   4.939  20.570  0.00  0.00    +0.000 A 
ATOM      8  C   UNL     1       2.075   3.838  21.397  0.00  0.00    +0.000 A 
ATOM      9  C   UNL     1       2.765   2.669  21.215  0.00  0.00    +0.000 A 
ATOM     10  C   UNL     1       3.698   2.595  20.209  0.00  0.00    +0.000 A 
ATOM     11  C   UNL     1       3.905   3.730  19.373  0.00  0.00    +0.000 A 
ATOM     12  C   UNL     1       3.192   4.941  19.503  0.00  0.00    +0.000 A 
ATOM     13  C   UNL     1       3.323   6.204  18.659  0.00  0.00    +0.000 A 
ATOM     14  C   UNL     1       2.427   7.303  18.998  0.00  0.00    +0.000 A 
ENDROOT
BRANCH  13  15
ATOM     15  N   UNL     1       4.320   6.081  17.675  0.00  0.00    +0.000 N 
ATOM     16  H   UNL     1       4.035   5.503  16.890  0.00  0.00    +0.000 HD
BRANCH  15  17
ATOM     17  C   UNL     1       5.454   6.944  17.398  0.00  0.00    +0.000 C 
BRANCH  17  18
ATOM     18  C   UNL     1       6.767   6.295  17.845  0.00  0.00    +0.000 C 
BRANCH  18  19
ATOM     19  C   UNL     1       7.037   5.014  17.041  0.00  0.00    +0.000 C 
BRANCH  19  20
ATOM     20  N   UNL     1       6.270   4.850  15.789  0.00  0.00    +0.000 NA
ATOM     21  C   UNL     1       7.108   4.979  14.593  0.00  0.00    +0.000 C 
ATOM     22  C   UNL     1       5.636   3.525  15.796  0.00  0.00    +0.000 C 
ENDBRANCH  19  20
ENDBRANCH  18  19
ENDBRANCH  17  18
ENDBRANCH  15  17
ENDBRANCH  13  15
BRANCH   4  23
ATOM     23  C   UNL     1       1.459   8.796  21.863  0.00  0.00    +0.000 C 
BRANCH  23  24
ATOM     24  C   UNL     1       0.999  10.231  21.918  0.00  0.00    +0.000 C 
BRANCH  24  25
ATOM     25  N   UNL     1      -0.332  10.296  22.509  0.00  0.00    +0.000 NA
ATOM     26  H   UNL     1      -0.321   9.922  23.460  0.00  0.00    +0.000 HD
BRANCH  25  27
ATOM     27  C   UNL     1      -0.770  11.684  22.527  0.00  0.00    +0.000 C 
BRANCH  27  28
ATOM     28  C   UNL     1      -2.168  11.690  23.104  0.00  0.00    +0.000 C 
BRANCH  28  29
ATOM     29  C   UNL     1      -2.960  12.865  22.548  0.00  0.00    +0.000 C 
BRANCH  29  30
ATOM     30  N   UNL     1      -3.805  13.488  23.574  0.00  0.00    +0.000 NA
ATOM     31  C   UNL     1      -5.012  14.090  23.004  0.00  0.00    +0.000 C 
ATOM     32  C   UNL     1      -4.166  12.486  24.577  0.00  0.00    +0.000 C 
ENDBRANCH  29  30
ENDBRANCH  28  29
ENDBRANCH  27  28
ENDBRANCH  25  27
ENDBRANCH  24  25
ENDBRANCH  23  24
ENDBRANCH   4  23
TORSDOF 12
ENDMDL
