MODEL 1
REMARK VINA RESULT:      -7.4      0.000      0.000
REMARK  Name = 
REMARK  4 active torsions:
REMARK  status: ('A' for Active; 'I' for Inactive)
REMARK    1  A    between atoms: C_2  and  O_3
REMARK    2  A    between atoms: C_2  and  C_4
REMARK    3  A    between atoms: C_9  and  N_10
REMARK    4  A    between atoms: N_17  and  C_18
REMARK                            x       y       z     vdW  Elec       q    Type
REMARK                         _______ _______ _______ _____ _____    ______ ____
ROOT
ATOM      1  C   UNL     1       1.927   5.315  20.363  0.00  0.00    +0.000 A 
ATOM      2  C   UNL     1       1.510   6.499  21.007  0.00  0.00    +0.000 A 
ATOM      3  C   UNL     1       1.621   7.731  20.378  0.00  0.00    +0.000 A 
ATOM      4  C   UNL     1       2.208   7.760  19.132  0.00  0.00    +0.000 A 
ATOM      5  N   UNL     1       2.634   6.626  18.506  0.00  0.00    +0.000 NA
ATOM      6  C   UNL     1       2.505   5.391  19.080  0.00  0.00    +0.000 A 
ATOM      7  C   UNL     1       2.349   9.064  18.385  0.00  0.00    +0.000 C 
ATOM      8  C   UNL     1       0.989   9.645  17.957  0.00  0.00    +0.000 C 
ATOM      9  N   UNL     1       0.192  10.341  18.998  0.00  0.00    +0.000 NA
ATOM     10  C   UNL     1      -0.154   9.487  20.155  0.00  0.00    +0.000 C 
ATOM     11  C   UNL     1       1.037   8.979  20.985  0.00  0.00    +0.000 C 
ENDROOT
BRANCH   9  12
ATOM     12  C   UNL     1      -1.048  10.980  18.457  0.00  0.00    +0.000 C 
ATOM     13  C   UNL     1      -2.048  11.484  19.518  0.00  0.00    +0.000 C 
ATOM     14  C   UNL     1      -3.277  12.097  18.859  0.00  0.00    +0.000 C 
ATOM     15  O   UNL     1      -3.885  11.170  17.964  0.00  0.00    +0.000 OA
ATOM     16  C   UNL     1      -3.014  10.810  16.894  0.00  0.00    +0.000 C 
ATOM     17  C   UNL     1      -1.773  10.098  17.425  0.00  0.00    +0.000 C 
ENDBRANCH   9  12
BRANCH   6  18
ATOM     18  N   UNL     1       2.879   4.347  18.277  0.00  0.00    +0.000 N 
ATOM     19  C   UNL     1       4.254   3.851  18.316  0.00  0.00    +0.000 C 
ATOM     20  C   UNL     1       4.329   2.982  17.067  0.00  0.00    +0.000 C 
ATOM     21  C   UNL     1       2.960   2.326  17.022  0.00  0.00    +0.000 C 
ATOM     22  C   UNL     1       2.011   3.352  17.653  0.00  0.00    +0.000 C 
ENDBRANCH   6  18
BRANCH   1  24
ATOM     23  O   UNL     1       2.363   3.738  22.120  0.00  0.00    +0.000 OA
ATOM     24  C   UNL     1       1.708   4.073  21.149  0.00  0.00    +0.000 C 
BRANCH  24  25
ATOM     25  O   UNL     1       0.621   3.372  20.747  0.00  0.00    +0.000 OA
ATOM     26  H   UNL     1       0.139   2.892  21.447  0.00  0.00    +0.000 HD
ENDBRANCH  24  25
ENDBRANCH   1  24
TORSDOF 4
ENDMDL
MODEL 2
REMARK VINA RESULT:      -7.3      3.088      7.858
REMARK  Name = 
REMARK  4 active torsions:
REMARK  status: ('A' for Active; 'I' for Inactive)
REMARK    1  A    between atoms: C_2  and  O_3
REMARK    2  A    between atoms: C_2  and  C_4
REMARK    3  A    between atoms: C_9  and  N_10
REMARK    4  A    between atoms: N_17  and  C_18
REMARK                            x       y       z     vdW  Elec       q    Type
REMARK                         _______ _______ _______ _____ _____    ______ ____
ROOT
ATOM      1  C   UNL     1       0.807   8.980  21.494  0.00  0.00    +0.000 A 
ATOM      2  C   UNL     1       1.184   7.639  21.268  0.00  0.00    +0.000 A 
ATOM      3  C   UNL     1       1.635   7.224  20.024  0.00  0.00    +0.000 A 
ATOM      4  C   UNL     1       1.643   8.153  19.006  0.00  0.00    +0.000 A 
ATOM      5  N   UNL     1       1.262   9.447  19.205  0.00  0.00    +0.000 NA
ATOM      6  C   UNL     1       0.848   9.900  20.427  0.00  0.00    +0.000 A 
ATOM      7  C   UNL     1       2.134   7.774  17.630  0.00  0.00    +0.000 C 
ATOM      8  C   UNL     1       3.643   7.470  17.609  0.00  0.00    +0.000 C 
ATOM      9  N   UNL     1       4.075   6.145  18.116  0.00  0.00    +0.000 NA
ATOM     10  C   UNL     1       3.700   5.892  19.524  0.00  0.00    +0.000 C 
ATOM     11  C   UNL     1       2.189   5.841  19.810  0.00  0.00    +0.000 C 
ENDROOT
BRANCH   9  12
ATOM     12  C   UNL     1       5.539   5.896  17.934  0.00  0.00    +0.000 C 
ATOM     13  C   UNL     1       5.902   4.815  16.897  0.00  0.00    +0.000 C 
ATOM     14  C   UNL     1       7.411   4.631  16.807  0.00  0.00    +0.000 C 
ATOM     15  O   UNL     1       7.961   4.333  18.087  0.00  0.00    +0.000 OA
ATOM     16  C   UNL     1       7.757   5.396  19.017  0.00  0.00    +0.000 C 
ATOM     17  C   UNL     1       6.267   5.619  19.262  0.00  0.00    +0.000 C 
ENDBRANCH   9  12
BRANCH   6  18
ATOM     18  N   UNL     1       0.607  11.246  20.485  0.00  0.00    +0.000 N 
ATOM     19  C   UNL     1       1.545  12.184  19.872  0.00  0.00    +0.000 C 
ATOM     20  C   UNL     1       1.112  13.521  20.461  0.00  0.00    +0.000 C 
ATOM     21  C   UNL     1      -0.401  13.403  20.504  0.00  0.00    +0.000 C 
ATOM     22  C   UNL     1      -0.673  11.909  20.720  0.00  0.00    +0.000 C 
ENDBRANCH   6  18
BRANCH   1  24
ATOM     23  O   UNL     1       1.130   9.631  23.782  0.00  0.00    +0.000 OA
ATOM     24  C   UNL     1       0.383   9.277  22.887  0.00  0.00    +0.000 C 
BRANCH  24  25
ATOM     25  O   UNL     1      -0.960   9.220  23.060  0.00  0.00    +0.000 OA
ATOM     26  H   UNL     1      -1.433   8.568  22.511  0.00  0.00    +0.000 HD
ENDBRANCH  24  25
ENDBRANCH   1  24
TORSDOF 4
ENDMDL
MODEL 3
REMARK VINA RESULT:      -6.9      0.491      1.122
REMARK  Name = 
REMARK  4 active torsions:
REMARK  status: ('A' for Active; 'I' for Inactive)
REMARK    1  A    between atoms: C_2  and  O_3
REMARK    2  A    between atoms: C_2  and  C_4
REMARK    3  A    between atoms: C_9  and  N_10
REMARK    4  A    between atoms: N_17  and  C_18
REMARK                            x       y       z     vdW  Elec       q    Type
REMARK                         _______ _______ _______ _____ _____    ______ ____
ROOT
ATOM      1  C   UNL     1       1.936   5.715  20.325  0.00  0.00    +0.000 A 
ATOM      2  C   UNL     1       1.421   6.870  20.951  0.00  0.00    +0.000 A 
ATOM      3  C   UNL     1       1.455   8.102  20.315  0.00  0.00    +0.000 A 
ATOM      4  C   UNL     1       2.063   8.166  19.080  0.00  0.00    +0.000 A 
ATOM      5  N   UNL     1       2.583   7.062  18.472  0.00  0.00    +0.000 NA
ATOM      6  C   UNL     1       2.533   5.824  19.052  0.00  0.00    +0.000 A 
ATOM      7  C   UNL     1       2.124   9.472  18.326  0.00  0.00    +0.000 C 
ATOM      8  C   UNL     1       0.734   9.950  17.867  0.00  0.00    +0.000 C 
ATOM      9  N   UNL     1      -0.132  10.592  18.887  0.00  0.00    +0.000 NA
ATOM     10  C   UNL     1      -0.438   9.723  20.043  0.00  0.00    +0.000 C 
ATOM     11  C   UNL     1       0.770   9.308  20.900  0.00  0.00    +0.000 C 
ENDROOT
BRANCH   9  12
ATOM     12  C   UNL     1      -1.404  11.136  18.316  0.00  0.00    +0.000 C 
ATOM     13  C   UNL     1      -2.466  11.555  19.353  0.00  0.00    +0.000 C 
ATOM     14  C   UNL     1      -3.722  12.073  18.665  0.00  0.00    +0.000 C 
ATOM     15  O   UNL     1      -4.234  11.107  17.752  0.00  0.00    +0.000 OA
ATOM     16  C   UNL     1      -3.311  10.821  16.703  0.00  0.00    +0.000 C 
ATOM     17  C   UNL     1      -2.032  10.206  17.263  0.00  0.00    +0.000 C 
ENDBRANCH   9  12
BRANCH   6  18
ATOM     18  N   UNL     1       2.998   4.806  18.266  0.00  0.00    +0.000 N 
ATOM     19  C   UNL     1       2.058   3.941  17.556  0.00  0.00    +0.000 C 
ATOM     20  C   UNL     1       2.938   2.776  17.124  0.00  0.00    +0.000 C 
ATOM     21  C   UNL     1       4.248   3.453  16.757  0.00  0.00    +0.000 C 
ATOM     22  C   UNL     1       4.330   4.675  17.680  0.00  0.00    +0.000 C 
ENDBRANCH   6  18
BRANCH   1  24
ATOM     23  O   UNL     1       0.978   3.587  20.890  0.00  0.00    +0.000 OA
ATOM     24  C   UNL     1       1.792   4.466  21.116  0.00  0.00    +0.000 C 
BRANCH  24  25
ATOM     25  O   UNL     1       2.736   4.331  22.078  0.00  0.00    +0.000 OA
ATOM     26  H   UNL     1       2.464   3.844  22.879  0.00  0.00    +0.000 HD
ENDBRANCH  24  25
ENDBRANCH   1  24
TORSDOF 4
ENDMDL
MODEL 4
REMARK VINA RESULT:      -6.8      3.215      7.738
REMARK  Name = 
REMARK  4 active torsions:
REMARK  status: ('A' for Active; 'I' for Inactive)
REMARK    1  A    between atoms: C_2  and  O_3
REMARK    2  A    between atoms: C_2  and  C_4
REMARK    3  A    between atoms: C_9  and  N_10
REMARK    4  A    between atoms: N_17  and  C_18
REMARK                            x       y       z     vdW  Elec       q    Type
REMARK                         _______ _______ _______ _____ _____    ______ ____
ROOT
ATOM      1  C   UNL     1       0.667   9.287  21.632  0.00  0.00    +0.000 A 
ATOM      2  C   UNL     1       0.977   7.932  21.392  0.00  0.00    +0.000 A 
ATOM      3  C   UNL     1       1.400   7.507  20.141  0.00  0.00    +0.000 A 
ATOM      4  C   UNL     1       1.447   8.444  19.132  0.00  0.00    +0.000 A 
ATOM      5  N   UNL     1       1.130   9.752  19.344  0.00  0.00    +0.000 NA
ATOM      6  C   UNL     1       0.746  10.214  20.574  0.00  0.00    +0.000 A 
ATOM      7  C   UNL     1       1.910   8.054  17.749  0.00  0.00    +0.000 C 
ATOM      8  C   UNL     1       3.403   7.678  17.715  0.00  0.00    +0.000 C 
ATOM      9  N   UNL     1       3.773   6.328  18.208  0.00  0.00    +0.000 NA
ATOM     10  C   UNL     1       3.395   6.082  19.616  0.00  0.00    +0.000 C 
ATOM     11  C   UNL     1       1.885   6.101  19.911  0.00  0.00    +0.000 C 
ENDROOT
BRANCH   9  12
ATOM     12  C   UNL     1       5.223   6.011  18.014  0.00  0.00    +0.000 C 
ATOM     13  C   UNL     1       6.065   7.134  17.376  0.00  0.00    +0.000 C 
ATOM     14  C   UNL     1       7.515   6.699  17.208  0.00  0.00    +0.000 C 
ATOM     15  O   UNL     1       7.595   5.492  16.455  0.00  0.00    +0.000 OA
ATOM     16  C   UNL     1       6.941   4.408  17.111  0.00  0.00    +0.000 C 
ATOM     17  C   UNL     1       5.449   4.688  17.260  0.00  0.00    +0.000 C 
ENDBRANCH   9  12
BRANCH   6  18
ATOM     18  N   UNL     1       0.571  11.570  20.645  0.00  0.00    +0.000 N 
ATOM     19  C   UNL     1       1.722  12.463  20.531  0.00  0.00    +0.000 C 
ATOM     20  C   UNL     1       1.159  13.794  21.013  0.00  0.00    +0.000 C 
ATOM     21  C   UNL     1      -0.250  13.796  20.447  0.00  0.00    +0.000 C 
ATOM     22  C   UNL     1      -0.661  12.319  20.413  0.00  0.00    +0.000 C 
ENDBRANCH   6  18
BRANCH   1  24
ATOM     23  O   UNL     1       1.014   9.557  23.993  0.00  0.00    +0.000 OA
ATOM     24  C   UNL     1       0.267   9.592  23.031  0.00  0.00    +0.000 C 
BRANCH  24  25
ATOM     25  O   UNL     1      -1.013  10.024  23.137  0.00  0.00    +0.000 OA
ATOM     26  H   UNL     1      -1.597   9.818  22.384  0.00  0.00    +0.000 HD
ENDBRANCH  24  25
ENDBRANCH   1  24
TORSDOF 4
ENDMDL
MODEL 5
REMARK VINA RESULT:      -6.7      3.236      7.719
REMARK  Name = 
REMARK  4 active torsions:
REMARK  status: ('A' for Active; 'I' for Inactive)
REMARK    1  A    between atoms: C_2  and  O_3
REMARK    2  A    between atoms: C_2  and  C_4
REMARK    3  A    between atoms: C_9  and  N_10
REMARK    4  A    between atoms: N_17  and  C_18
REMARK                            x       y       z     vdW  Elec       q    Type
REMARK                         _______ _______ _______ _____ _____    ______ ____
ROOT
ATOM      1  C   UNL     1       0.675   9.206  21.709  0.00  0.00    +0.000 A 
ATOM      2  C   UNL     1       0.988   7.859  21.432  0.00  0.00    +0.000 A 
ATOM      3  C   UNL     1       1.412   7.470  20.169  0.00  0.00    +0.000 A 
ATOM      4  C   UNL     1       1.457   8.435  19.186  0.00  0.00    +0.000 A 
ATOM      5  N   UNL     1       1.137   9.736  19.435  0.00  0.00    +0.000 NA
ATOM      6  C   UNL     1       0.753  10.163  20.677  0.00  0.00    +0.000 A 
ATOM      7  C   UNL     1       1.921   8.085  17.793  0.00  0.00    +0.000 C 
ATOM      8  C   UNL     1       3.414   7.713  17.749  0.00  0.00    +0.000 C 
ATOM      9  N   UNL     1       3.787   6.351  18.204  0.00  0.00    +0.000 NA
ATOM     10  C   UNL     1       3.409   6.064  19.604  0.00  0.00    +0.000 C 
ATOM     11  C   UNL     1       1.900   6.072  19.900  0.00  0.00    +0.000 C 
ENDROOT
BRANCH   9  12
ATOM     12  C   UNL     1       5.238   6.042  18.001  0.00  0.00    +0.000 C 
ATOM     13  C   UNL     1       5.982   5.521  19.247  0.00  0.00    +0.000 C 
ATOM     14  C   UNL     1       7.449   5.259  18.935  0.00  0.00    +0.000 C 
ATOM     15  O   UNL     1       8.069   6.427  18.405  0.00  0.00    +0.000 OA
ATOM     16  C   UNL     1       7.479   6.833  17.171  0.00  0.00    +0.000 C 
ATOM     17  C   UNL     1       6.015   7.213  17.373  0.00  0.00    +0.000 C 
ENDBRANCH   9  12
BRANCH   6  18
ATOM     18  N   UNL     1       0.575  11.515  20.786  0.00  0.00    +0.000 N 
ATOM     19  C   UNL     1       1.678  12.425  20.484  0.00  0.00    +0.000 C 
ATOM     20  C   UNL     1       1.188  13.746  21.063  0.00  0.00    +0.000 C 
ATOM     21  C   UNL     1      -0.297  13.730  20.747  0.00  0.00    +0.000 C 
ATOM     22  C   UNL     1      -0.689  12.248  20.773  0.00  0.00    +0.000 C 
ENDBRANCH   6  18
BRANCH   1  24
ATOM     23  O   UNL     1       1.045   9.559  24.055  0.00  0.00    +0.000 OA
ATOM     24  C   UNL     1       0.274   9.471  23.116  0.00  0.00    +0.000 C 
BRANCH  24  25
ATOM     25  O   UNL     1      -1.051   9.715  23.256  0.00  0.00    +0.000 OA
ATOM     26  H   UNL     1      -1.441  10.336  22.612  0.00  0.00    +0.000 HD
ENDBRANCH  24  25
ENDBRANCH   1  24
TORSDOF 4
ENDMDL
MODEL 6
REMARK VINA RESULT:      -6.6      3.207      7.831
REMARK  Name = 
REMARK  4 active torsions:
REMARK  status: ('A' for Active; 'I' for Inactive)
REMARK    1  A    between atoms: C_2  and  O_3
REMARK    2  A    between atoms: C_2  and  C_4
REMARK    3  A    between atoms: C_9  and  N_10
REMARK    4  A    between atoms: N_17  and  C_18
REMARK                            x       y       z     vdW  Elec       q    Type
REMARK                         _______ _______ _______ _____ _____    ______ ____
ROOT
ATOM      1  C   UNL     1       0.772   9.436  21.521  0.00  0.00    +0.000 A 
ATOM      2  C   UNL     1       1.088   8.071  21.355  0.00  0.00    +0.000 A 
ATOM      3  C   UNL     1       1.479   7.574  20.120  0.00  0.00    +0.000 A 
ATOM      4  C   UNL     1       1.488   8.447  19.054  0.00  0.00    +0.000 A 
ATOM      5  N   UNL     1       1.165   9.764  19.196  0.00  0.00    +0.000 NA
ATOM      6  C   UNL     1       0.812  10.297  20.405  0.00  0.00    +0.000 A 
ATOM      7  C   UNL     1       1.915   7.977  17.685  0.00  0.00    +0.000 C 
ATOM      8  C   UNL     1       3.410   7.612  17.630  0.00  0.00    +0.000 C 
ATOM      9  N   UNL     1       3.807   6.298  18.193  0.00  0.00    +0.000 NA
ATOM     10  C   UNL     1       3.472   6.135  19.624  0.00  0.00    +0.000 C 
ATOM     11  C   UNL     1       1.971   6.160  19.962  0.00  0.00    +0.000 C 
ENDROOT
BRANCH   9  12
ATOM     12  C   UNL     1       5.254   5.981  17.977  0.00  0.00    +0.000 C 
ATOM     13  C   UNL     1       6.098   7.125  17.380  0.00  0.00    +0.000 C 
ATOM     14  C   UNL     1       7.544   6.689  17.184  0.00  0.00    +0.000 C 
ATOM     15  O   UNL     1       7.613   5.513  16.382  0.00  0.00    +0.000 OA
ATOM     16  C   UNL     1       6.957   4.406  16.998  0.00  0.00    +0.000 C 
ATOM     17  C   UNL     1       5.467   4.689  17.168  0.00  0.00    +0.000 C 
ENDBRANCH   9  12
BRANCH   6  18
ATOM     18  N   UNL     1       0.626  11.653  20.399  0.00  0.00    +0.000 N 
ATOM     19  C   UNL     1      -0.726  12.206  20.342  0.00  0.00    +0.000 C 
ATOM     20  C   UNL     1      -0.473  13.667  19.995  0.00  0.00    +0.000 C 
ATOM     21  C   UNL     1       0.780  13.997  20.789  0.00  0.00    +0.000 C 
ATOM     22  C   UNL     1       1.562  12.679  20.853  0.00  0.00    +0.000 C 
ENDBRANCH   6  18
BRANCH   1  24
ATOM     23  O   UNL     1      -0.663  10.296  23.242  0.00  0.00    +0.000 OA
ATOM     24  C   UNL     1       0.409   9.823  22.909  0.00  0.00    +0.000 C 
BRANCH  24  25
ATOM     25  O   UNL     1       1.360   9.502  23.818  0.00  0.00    +0.000 OA
ATOM     26  H   UNL     1       1.106   9.600  24.755  0.00  0.00    +0.000 HD
ENDBRANCH  24  25
ENDBRANCH   1  24
TORSDOF 4
ENDMDL
MODEL 7
REMARK VINA RESULT:      -6.4      3.868      8.303
REMARK  Name = 
REMARK  4 active torsions:
REMARK  status: ('A' for Active; 'I' for Inactive)
REMARK    1  A    between atoms: C_2  and  O_3
REMARK    2  A    between atoms: C_2  and  C_4
REMARK    3  A    between atoms: C_9  and  N_10
REMARK    4  A    between atoms: N_17  and  C_18
REMARK                            x       y       z     vdW  Elec       q    Type
REMARK                         _______ _______ _______ _____ _____    ______ ____
ROOT
ATOM      1  C   UNL     1       1.335  13.157  20.588  0.00  0.00    +0.000 A 
ATOM      2  C   UNL     1       0.691  11.972  21.001  0.00  0.00    +0.000 A 
ATOM      3  C   UNL     1       0.658  10.854  20.180  0.00  0.00    +0.000 A 
ATOM      4  C   UNL     1       1.222  10.965  18.928  0.00  0.00    +0.000 A 
ATOM      5  N   UNL     1       1.830  12.111  18.508  0.00  0.00    +0.000 NA
ATOM      6  C   UNL     1       1.916  13.220  19.305  0.00  0.00    +0.000 A 
ATOM      7  C   UNL     1       1.234   9.785  17.988  0.00  0.00    +0.000 C 
ATOM      8  C   UNL     1       2.135   8.643  18.491  0.00  0.00    +0.000 C 
ATOM      9  N   UNL     1       1.591   7.771  19.561  0.00  0.00    +0.000 NA
ATOM     10  C   UNL     1       1.240   8.496  20.801  0.00  0.00    +0.000 C 
ATOM     11  C   UNL     1       0.116   9.537  20.667  0.00  0.00    +0.000 C 
ENDROOT
BRANCH   9  12
ATOM     12  C   UNL     1       2.486   6.617  19.889  0.00  0.00    +0.000 C 
ATOM     13  C   UNL     1       3.419   6.161  18.750  0.00  0.00    +0.000 C 
ATOM     14  C   UNL     1       4.268   4.974  19.184  0.00  0.00    +0.000 C 
ATOM     15  O   UNL     1       3.445   3.906  19.646  0.00  0.00    +0.000 OA
ATOM     16  C   UNL     1       2.684   4.276  20.794  0.00  0.00    +0.000 C 
ATOM     17  C   UNL     1       1.719   5.410  20.459  0.00  0.00    +0.000 C 
ENDBRANCH   9  12
BRANCH   6  18
ATOM     18  N   UNL     1       2.652  14.246  18.779  0.00  0.00    +0.000 N 
ATOM     19  C   UNL     1       3.937  13.971  18.139  0.00  0.00    +0.000 C 
ATOM     20  C   UNL     1       4.559  15.358  18.033  0.00  0.00    +0.000 C 
ATOM     21  C   UNL     1       3.371  16.242  17.699  0.00  0.00    +0.000 C 
ATOM     22  C   UNL     1       2.175  15.568  18.382  0.00  0.00    +0.000 C 
ENDBRANCH   6  18
BRANCH   1  24
ATOM     23  O   UNL     1       2.284  14.616  22.242  0.00  0.00    +0.000 OA
ATOM     24  C   UNL     1       1.319  14.252  21.593  0.00  0.00    +0.000 C 
BRANCH  24  25
ATOM     25  O   UNL     1       0.131  14.900  21.657  0.00  0.00    +0.000 OA
ATOM     26  H   UNL     1       0.172  15.873  21.597  0.00  0.00    +0.000 HD
ENDBRANCH  24  25
ENDBRANCH   1  24
TORSDOF 4
ENDMDL
MODEL 8
REMARK VINA RESULT:      -6.4      1.743      8.015
REMARK  Name = 
REMARK  4 active torsions:
REMARK  status: ('A' for Active; 'I' for Inactive)
REMARK    1  A    between atoms: C_2  and  O_3
REMARK    2  A    between atoms: C_2  and  C_4
REMARK    3  A    between atoms: C_9  and  N_10
REMARK    4  A    between atoms: N_17  and  C_18
REMARK                            x       y       z     vdW  Elec       q    Type
REMARK                         _______ _______ _______ _____ _____    ______ ____
ROOT
ATOM      1  C   UNL     1      -0.663  11.005  18.680  0.00  0.00    +0.000 A 
ATOM      2  C   UNL     1       0.350  10.270  18.029  0.00  0.00    +0.000 A 
ATOM      3  C   UNL     1       1.224   9.468  18.748  0.00  0.00    +0.000 A 
ATOM      4  C   UNL     1       1.105   9.466  20.121  0.00  0.00    +0.000 A 
ATOM      5  N   UNL     1       0.144  10.187  20.765  0.00  0.00    +0.000 NA
ATOM      6  C   UNL     1      -0.760  10.958  20.086  0.00  0.00    +0.000 A 
ATOM      7  C   UNL     1       2.015   8.607  20.965  0.00  0.00    +0.000 C 
ATOM      8  C   UNL     1       1.759   7.103  20.760  0.00  0.00    +0.000 C 
ATOM      9  N   UNL     1       2.324   6.481  19.537  0.00  0.00    +0.000 NA
ATOM     10  C   UNL     1       1.833   7.082  18.279  0.00  0.00    +0.000 C 
ATOM     11  C   UNL     1       2.205   8.558  18.059  0.00  0.00    +0.000 C 
ENDROOT
BRANCH   9  12
ATOM     12  C   UNL     1       2.133   4.997  19.493  0.00  0.00    +0.000 C 
ATOM     13  C   UNL     1       1.792   4.416  18.105  0.00  0.00    +0.000 C 
ATOM     14  C   UNL     1       1.601   2.907  18.179  0.00  0.00    +0.000 C 
ATOM     15  O   UNL     1       0.610   2.570  19.146  0.00  0.00    +0.000 OA
ATOM     16  C   UNL     1       0.985   2.976  20.460  0.00  0.00    +0.000 C 
ATOM     17  C   UNL     1       1.122   4.494  20.539  0.00  0.00    +0.000 C 
ENDBRANCH   9  12
BRANCH   6  18
ATOM     18  N   UNL     1      -1.726  11.529  20.869  0.00  0.00    +0.000 N 
ATOM     19  C   UNL     1      -1.459  11.799  22.280  0.00  0.00    +0.000 C 
ATOM     20  C   UNL     1      -2.850  12.075  22.835  0.00  0.00    +0.000 C 
ATOM     21  C   UNL     1      -3.521  12.846  21.712  0.00  0.00    +0.000 C 
ATOM     22  C   UNL     1      -2.883  12.304  20.428  0.00  0.00    +0.000 C 
ENDBRANCH   6  18
BRANCH   1  24
ATOM     23  O   UNL     1      -2.625  11.406  17.354  0.00  0.00    +0.000 OA
ATOM     24  C   UNL     1      -1.544  11.784  17.771  0.00  0.00    +0.000 C 
BRANCH  24  25
ATOM     25  O   UNL     1      -1.079  13.031  17.517  0.00  0.00    +0.000 OA
ATOM     26  H   UNL     1      -1.270  13.705  18.196  0.00  0.00    +0.000 HD
ENDBRANCH  24  25
ENDBRANCH   1  24
TORSDOF 4
ENDMDL
MODEL 9
REMARK VINA RESULT:      -6.3      1.537      1.976
REMARK  Name = 
REMARK  4 active torsions:
REMARK  status: ('A' for Active; 'I' for Inactive)
REMARK    1  A    between atoms: C_2  and  O_3
REMARK    2  A    between atoms: C_2  and  C_4
REMARK    3  A    between atoms: C_9  and  N_10
REMARK    4  A    between atoms: N_17  and  C_18
REMARK                            x       y       z     vdW  Elec       q    Type
REMARK                         _______ _______ _______ _____ _____    ______ ____
ROOT
ATOM      1  C   UNL     1       3.066   5.823  19.315  0.00  0.00    +0.000 A 
ATOM      2  C   UNL     1       2.305   6.622  20.194  0.00  0.00    +0.000 A 
ATOM      3  C   UNL     1       1.937   7.913  19.848  0.00  0.00    +0.000 A 
ATOM      4  C   UNL     1       2.392   8.405  18.643  0.00  0.00    +0.000 A 
ATOM      5  N   UNL     1       3.145   7.652  17.793  0.00  0.00    +0.000 NA
ATOM      6  C   UNL     1       3.494   6.361  18.084  0.00  0.00    +0.000 A 
ATOM      7  C   UNL     1       2.019   9.798  18.197  0.00  0.00    +0.000 C 
ATOM      8  C   UNL     1       0.516   9.932  17.890  0.00  0.00    +0.000 C 
ATOM      9  N   UNL     1      -0.402  10.069  19.048  0.00  0.00    +0.000 NA
ATOM     10  C   UNL     1      -0.350   8.930  19.989  0.00  0.00    +0.000 C 
ATOM     11  C   UNL     1       0.996   8.719  20.703  0.00  0.00    +0.000 C 
ENDROOT
BRANCH   9  12
ATOM     12  C   UNL     1      -1.820  10.323  18.644  0.00  0.00    +0.000 C 
ATOM     13  C   UNL     1      -2.139  10.070  17.156  0.00  0.00    +0.000 C 
ATOM     14  C   UNL     1      -3.599  10.377  16.852  0.00  0.00    +0.000 C 
ATOM     15  O   UNL     1      -3.926  11.709  17.238  0.00  0.00    +0.000 OA
ATOM     16  C   UNL     1      -3.774  11.911  18.642  0.00  0.00    +0.000 C 
ATOM     17  C   UNL     1      -2.319  11.718  19.061  0.00  0.00    +0.000 C 
ENDBRANCH   9  12
BRANCH   6  18
ATOM     18  N   UNL     1       4.155   5.708  17.080  0.00  0.00    +0.000 N 
ATOM     19  C   UNL     1       5.353   6.299  16.487  0.00  0.00    +0.000 C 
ATOM     20  C   UNL     1       5.544   5.469  15.224  0.00  0.00    +0.000 C 
ATOM     21  C   UNL     1       5.156   4.070  15.671  0.00  0.00    +0.000 C 
ATOM     22  C   UNL     1       4.093   4.285  16.755  0.00  0.00    +0.000 C 
ENDBRANCH   6  18
BRANCH   1  24
ATOM     23  O   UNL     1       4.460   3.997  20.014  0.00  0.00    +0.000 OA
ATOM     24  C   UNL     1       3.347   4.451  19.811  0.00  0.00    +0.000 C 
BRANCH  24  25
ATOM     25  O   UNL     1       2.227   3.757  20.127  0.00  0.00    +0.000 OA
ATOM     26  H   UNL     1       2.002   3.016  19.534  0.00  0.00    +0.000 HD
ENDBRANCH  24  25
ENDBRANCH   1  24
TORSDOF 4
ENDMDL
