MODEL 1
REMARK VINA RESULT:      -7.5      0.000      0.000
REMARK  Name = 
REMARK  5 active torsions:
REMARK  status: ('A' for Active; 'I' for Inactive)
REMARK    1  A    between atoms: C_4  and  S_5
REMARK    2  A    between atoms: S_5  and  C_6
REMARK    3  A    between atoms: C_6  and  C_7
REMARK    4  A    between atoms: C_7  and  O_8
REMARK    5  A    between atoms: O_8  and  C_9
REMARK                            x       y       z     vdW  Elec       q    Type
REMARK                         _______ _______ _______ _____ _____    ______ ____
ROOT
ATOM      1  O   UNL     1       2.925   3.628  17.013  0.00  0.00    +0.000 OA
ENDROOT
BRANCH   1   2
ATOM      2  C   UNL     1       2.411   3.688  18.297  0.00  0.00    +0.000 A 
ATOM      3  C   UNL     1       2.051   2.552  19.038  0.00  0.00    +0.000 A 
ATOM      4  C   UNL     1       1.541   2.674  20.329  0.00  0.00    +0.000 A 
ATOM      5  C   UNL     1       1.383   3.931  20.899  0.00  0.00    +0.000 A 
ATOM      6  C   UNL     1       1.734   5.086  20.189  0.00  0.00    +0.000 A 
ATOM      7  C   UNL     1       1.574   6.348  20.786  0.00  0.00    +0.000 A 
ATOM      8  C   UNL     1       1.920   7.511  20.101  0.00  0.00    +0.000 A 
ATOM      9  C   UNL     1       2.424   7.425  18.808  0.00  0.00    +0.000 A 
ATOM     10  C   UNL     1       2.586   6.177  18.201  0.00  0.00    +0.000 A 
ATOM     11  C   UNL     1       2.252   4.979  18.871  0.00  0.00    +0.000 A 
ENDBRANCH   1   2
BRANCH   1  12
ATOM     12  C   UNL     1       4.350   3.503  16.915  0.00  0.00    +0.000 C 
BRANCH  12  13
ATOM     13  C   UNL     1       4.896   4.300  15.729  0.00  0.00    +0.000 C 
BRANCH  13  14
ATOM     14  S   UNL     1       6.711   4.094  15.720  0.00  0.00    +0.000 S 
BRANCH  14  18
ATOM     15  C   UNL     1       8.101   7.028  18.792  0.00  0.00    +0.000 A 
ATOM     16  C   UNL     1       7.938   5.692  19.059  0.00  0.00    +0.000 A 
ATOM     17  N   UNL     1       7.496   4.806  18.149  0.00  0.00    +0.000 NA
ATOM     18  C   UNL     1       7.203   5.290  16.929  0.00  0.00    +0.000 A 
ATOM     19  N   UNL     1       7.324   6.577  16.566  0.00  0.00    +0.000 NA
ATOM     20  C   UNL     1       7.776   7.420  17.515  0.00  0.00    +0.000 A 
ENDBRANCH  14  18
ENDBRANCH  13  14
ENDBRANCH  12  13
ENDBRANCH   1  12
TORSDOF 5
ENDMDL
MODEL 2
REMARK VINA RESULT:      -7.3      2.358      3.555
REMARK  Name = 
REMARK  5 active torsions:
REMARK  status: ('A' for Active; 'I' for Inactive)
REMARK    1  A    between atoms: C_4  and  S_5
REMARK    2  A    between atoms: S_5  and  C_6
REMARK    3  A    between atoms: C_6  and  C_7
REMARK    4  A    between atoms: C_7  and  O_8
REMARK    5  A    between atoms: O_8  and  C_9
REMARK                            x       y       z     vdW  Elec       q    Type
REMARK                         _______ _______ _______ _____ _____    ______ ____
ROOT
ATOM      1  O   UNL     1       5.535   3.936  19.257  0.00  0.00    +0.000 OA
ENDROOT
BRANCH   1   2
ATOM      2  C   UNL     1       4.285   3.706  18.708  0.00  0.00    +0.000 A 
ATOM      3  C   UNL     1       4.026   3.751  17.330  0.00  0.00    +0.000 A 
ATOM      4  C   UNL     1       2.746   3.506  16.836  0.00  0.00    +0.000 A 
ATOM      5  C   UNL     1       1.706   3.215  17.709  0.00  0.00    +0.000 A 
ATOM      6  C   UNL     1       1.929   3.159  19.091  0.00  0.00    +0.000 A 
ATOM      7  C   UNL     1       0.866   2.855  19.958  0.00  0.00    +0.000 A 
ATOM      8  C   UNL     1       1.065   2.791  21.335  0.00  0.00    +0.000 A 
ATOM      9  C   UNL     1       2.327   3.037  21.863  0.00  0.00    +0.000 A 
ATOM     10  C   UNL     1       3.393   3.344  21.012  0.00  0.00    +0.000 A 
ATOM     11  C   UNL     1       3.227   3.410  19.611  0.00  0.00    +0.000 A 
ENDBRANCH   1   2
BRANCH   1  12
ATOM     12  C   UNL     1       5.893   5.312  19.445  0.00  0.00    +0.000 C 
BRANCH  12  13
ATOM     13  C   UNL     1       7.410   5.498  19.419  0.00  0.00    +0.000 C 
BRANCH  13  14
ATOM     14  S   UNL     1       7.781   6.799  18.192  0.00  0.00    +0.000 S 
BRANCH  14  18
ATOM     15  C   UNL     1       5.825   4.977  14.609  0.00  0.00    +0.000 A 
ATOM     16  C   UNL     1       6.943   4.443  15.200  0.00  0.00    +0.000 A 
ATOM     17  N   UNL     1       7.553   4.998  16.262  0.00  0.00    +0.000 NA
ATOM     18  C   UNL     1       7.018   6.136  16.739  0.00  0.00    +0.000 A 
ATOM     19  N   UNL     1       5.930   6.741  16.234  0.00  0.00    +0.000 NA
ATOM     20  C   UNL     1       5.355   6.139  15.175  0.00  0.00    +0.000 A 
ENDBRANCH  14  18
ENDBRANCH  13  14
ENDBRANCH  12  13
ENDBRANCH   1  12
TORSDOF 5
ENDMDL
MODEL 3
REMARK VINA RESULT:      -7.2      0.934      2.491
REMARK  Name = 
REMARK  5 active torsions:
REMARK  status: ('A' for Active; 'I' for Inactive)
REMARK    1  A    between atoms: C_4  and  S_5
REMARK    2  A    between atoms: S_5  and  C_6
REMARK    3  A    between atoms: C_6  and  C_7
REMARK    4  A    between atoms: C_7  and  O_8
REMARK    5  A    between atoms: O_8  and  C_9
REMARK                            x       y       z     vdW  Elec       q    Type
REMARK                         _______ _______ _______ _____ _____    ______ ____
ROOT
ATOM      1  O   UNL     1       3.705   3.788  16.466  0.00  0.00    +0.000 OA
ENDROOT
BRANCH   1   2
ATOM      2  C   UNL     1       3.353   4.671  17.473  0.00  0.00    +0.000 A 
ATOM      3  C   UNL     1       3.759   6.014  17.498  0.00  0.00    +0.000 A 
ATOM      4  C   UNL     1       3.369   6.858  18.537  0.00  0.00    +0.000 A 
ATOM      5  C   UNL     1       2.572   6.374  19.565  0.00  0.00    +0.000 A 
ATOM      6  C   UNL     1       2.147   5.039  19.571  0.00  0.00    +0.000 A 
ATOM      7  C   UNL     1       1.334   4.570  20.616  0.00  0.00    +0.000 A 
ATOM      8  C   UNL     1       0.896   3.247  20.642  0.00  0.00    +0.000 A 
ATOM      9  C   UNL     1       1.272   2.377  19.625  0.00  0.00    +0.000 A 
ATOM     10  C   UNL     1       2.083   2.829  18.581  0.00  0.00    +0.000 A 
ATOM     11  C   UNL     1       2.538   4.165  18.522  0.00  0.00    +0.000 A 
ENDBRANCH   1   2
BRANCH   1  12
ATOM     12  C   UNL     1       5.101   3.730  16.144  0.00  0.00    +0.000 C 
BRANCH  12  13
ATOM     13  C   UNL     1       5.369   4.282  14.743  0.00  0.00    +0.000 C 
BRANCH  13  14
ATOM     14  S   UNL     1       7.123   4.786  14.679  0.00  0.00    +0.000 S 
BRANCH  14  18
ATOM     15  C   UNL     1       7.868   6.383  18.788  0.00  0.00    +0.000 A 
ATOM     16  C   UNL     1       7.916   5.044  18.489  0.00  0.00    +0.000 A 
ATOM     17  N   UNL     1       7.669   4.552  17.262  0.00  0.00    +0.000 NA
ATOM     18  C   UNL     1       7.355   5.444  16.306  0.00  0.00    +0.000 A 
ATOM     19  N   UNL     1       7.278   6.772  16.493  0.00  0.00    +0.000 NA
ATOM     20  C   UNL     1       7.541   7.211  17.740  0.00  0.00    +0.000 A 
ENDBRANCH  14  18
ENDBRANCH  13  14
ENDBRANCH  12  13
ENDBRANCH   1  12
TORSDOF 5
ENDMDL
MODEL 4
REMARK VINA RESULT:      -7.1      0.481      1.155
REMARK  Name = 
REMARK  5 active torsions:
REMARK  status: ('A' for Active; 'I' for Inactive)
REMARK    1  A    between atoms: C_4  and  S_5
REMARK    2  A    between atoms: S_5  and  C_6
REMARK    3  A    between atoms: C_6  and  C_7
REMARK    4  A    between atoms: C_7  and  O_8
REMARK    5  A    between atoms: O_8  and  C_9
REMARK                            x       y       z     vdW  Elec       q    Type
REMARK                         _______ _______ _______ _____ _____    ______ ____
ROOT
ATOM      1  O   UNL     1       3.091   3.896  16.552  0.00  0.00    +0.000 OA
ENDROOT
BRANCH   1   2
ATOM      2  C   UNL     1       2.449   3.754  17.771  0.00  0.00    +0.000 A 
ATOM      3  C   UNL     1       1.955   2.529  18.244  0.00  0.00    +0.000 A 
ATOM      4  C   UNL     1       1.321   2.447  19.483  0.00  0.00    +0.000 A 
ATOM      5  C   UNL     1       1.170   3.584  20.265  0.00  0.00    +0.000 A 
ATOM      6  C   UNL     1       1.653   4.823  19.824  0.00  0.00    +0.000 A 
ATOM      7  C   UNL     1       1.497   5.961  20.633  0.00  0.00    +0.000 A 
ATOM      8  C   UNL     1       1.973   7.203  20.217  0.00  0.00    +0.000 A 
ATOM      9  C   UNL     1       2.603   7.322  18.984  0.00  0.00    +0.000 A 
ATOM     10  C   UNL     1       2.762   6.199  18.167  0.00  0.00    +0.000 A 
ATOM     11  C   UNL     1       2.298   4.925  18.562  0.00  0.00    +0.000 A 
ENDBRANCH   1   2
BRANCH   1  12
ATOM     12  C   UNL     1       4.523   3.934  16.599  0.00  0.00    +0.000 C 
BRANCH  12  13
ATOM     13  C   UNL     1       5.112   4.340  15.247  0.00  0.00    +0.000 C 
BRANCH  13  14
ATOM     14  S   UNL     1       6.918   4.087  15.338  0.00  0.00    +0.000 S 
BRANCH  14  18
ATOM     15  C   UNL     1       7.852   6.811  18.757  0.00  0.00    +0.000 A 
ATOM     16  C   UNL     1       7.587   7.270  17.491  0.00  0.00    +0.000 A 
ATOM     17  N   UNL     1       7.330   6.457  16.450  0.00  0.00    +0.000 NA
ATOM     18  C   UNL     1       7.348   5.135  16.698  0.00  0.00    +0.000 A 
ATOM     19  N   UNL     1       7.598   4.584  17.897  0.00  0.00    +0.000 NA
ATOM     20  C   UNL     1       7.844   5.444  18.905  0.00  0.00    +0.000 A 
ENDBRANCH  14  18
ENDBRANCH  13  14
ENDBRANCH  12  13
ENDBRANCH   1  12
TORSDOF 5
ENDMDL
MODEL 5
REMARK VINA RESULT:      -6.9      0.783      1.310
REMARK  Name = 
REMARK  5 active torsions:
REMARK  status: ('A' for Active; 'I' for Inactive)
REMARK    1  A    between atoms: C_4  and  S_5
REMARK    2  A    between atoms: S_5  and  C_6
REMARK    3  A    between atoms: C_6  and  C_7
REMARK    4  A    between atoms: C_7  and  O_8
REMARK    5  A    between atoms: O_8  and  C_9
REMARK                            x       y       z     vdW  Elec       q    Type
REMARK                         _______ _______ _______ _____ _____    ______ ____
ROOT
ATOM      1  O   UNL     1       4.591   3.739  18.257  0.00  0.00    +0.000 OA
ENDROOT
BRANCH   1   2
ATOM      2  C   UNL     1       3.595   3.713  19.219  0.00  0.00    +0.000 A 
ATOM      3  C   UNL     1       3.187   2.543  19.877  0.00  0.00    +0.000 A 
ATOM      4  C   UNL     1       2.181   2.580  20.841  0.00  0.00    +0.000 A 
ATOM      5  C   UNL     1       1.566   3.783  21.160  0.00  0.00    +0.000 A 
ATOM      6  C   UNL     1       1.950   4.971  20.524  0.00  0.00    +0.000 A 
ATOM      7  C   UNL     1       1.321   6.180  20.866  0.00  0.00    +0.000 A 
ATOM      8  C   UNL     1       1.688   7.375  20.250  0.00  0.00    +0.000 A 
ATOM      9  C   UNL     1       2.683   7.373  19.280  0.00  0.00    +0.000 A 
ATOM     10  C   UNL     1       3.314   6.177  18.927  0.00  0.00    +0.000 A 
ATOM     11  C   UNL     1       2.971   4.950  19.537  0.00  0.00    +0.000 A 
ENDBRANCH   1   2
BRANCH   1  12
ATOM     12  C   UNL     1       4.181   3.408  16.923  0.00  0.00    +0.000 C 
BRANCH  12  13
ATOM     13  C   UNL     1       4.760   4.392  15.906  0.00  0.00    +0.000 C 
BRANCH  13  14
ATOM     14  S   UNL     1       6.549   4.050  15.771  0.00  0.00    +0.000 S 
BRANCH  14  18
ATOM     15  C   UNL     1       8.079   7.068  18.692  0.00  0.00    +0.000 A 
ATOM     16  C   UNL     1       7.670   7.400  17.424  0.00  0.00    +0.000 A 
ATOM     17  N   UNL     1       7.233   6.496  16.530  0.00  0.00    +0.000 NA
ATOM     18  C   UNL     1       7.214   5.211  16.929  0.00  0.00    +0.000 A 
ATOM     19  N   UNL     1       7.593   4.782  18.144  0.00  0.00    +0.000 NA
ATOM     20  C   UNL     1       8.018   5.730  19.002  0.00  0.00    +0.000 A 
ENDBRANCH  14  18
ENDBRANCH  13  14
ENDBRANCH  12  13
ENDBRANCH   1  12
TORSDOF 5
ENDMDL
MODEL 6
REMARK VINA RESULT:      -6.8      0.966      2.696
REMARK  Name = 
REMARK  5 active torsions:
REMARK  status: ('A' for Active; 'I' for Inactive)
REMARK    1  A    between atoms: C_4  and  S_5
REMARK    2  A    between atoms: S_5  and  C_6
REMARK    3  A    between atoms: C_6  and  C_7
REMARK    4  A    between atoms: C_7  and  O_8
REMARK    5  A    between atoms: O_8  and  C_9
REMARK                            x       y       z     vdW  Elec       q    Type
REMARK                         _______ _______ _______ _____ _____    ______ ____
ROOT
ATOM      1  O   UNL     1       3.909   3.878  16.541  0.00  0.00    +0.000 OA
ENDROOT
BRANCH   1   2
ATOM      2  C   UNL     1       3.466   4.782  17.491  0.00  0.00    +0.000 A 
ATOM      3  C   UNL     1       3.781   6.149  17.462  0.00  0.00    +0.000 A 
ATOM      4  C   UNL     1       3.302   7.013  18.445  0.00  0.00    +0.000 A 
ATOM      5  C   UNL     1       2.503   6.526  19.471  0.00  0.00    +0.000 A 
ATOM      6  C   UNL     1       2.166   5.167  19.529  0.00  0.00    +0.000 A 
ATOM      7  C   UNL     1       1.349   4.694  20.570  0.00  0.00    +0.000 A 
ATOM      8  C   UNL     1       0.998   3.348  20.647  0.00  0.00    +0.000 A 
ATOM      9  C   UNL     1       1.465   2.458  19.687  0.00  0.00    +0.000 A 
ATOM     10  C   UNL     1       2.281   2.914  18.648  0.00  0.00    +0.000 A 
ATOM     11  C   UNL     1       2.649   4.273  18.537  0.00  0.00    +0.000 A 
ENDBRANCH   1   2
BRANCH   1  12
ATOM     12  C   UNL     1       5.310   3.573  16.572  0.00  0.00    +0.000 C 
BRANCH  12  13
ATOM     13  C   UNL     1       5.873   3.408  15.160  0.00  0.00    +0.000 C 
BRANCH  13  14
ATOM     14  S   UNL     1       6.806   4.926  14.761  0.00  0.00    +0.000 S 
BRANCH  14  18
ATOM     15  C   UNL     1       7.889   6.346  18.859  0.00  0.00    +0.000 A 
ATOM     16  C   UNL     1       7.433   7.188  17.876  0.00  0.00    +0.000 A 
ATOM     17  N   UNL     1       7.129   6.775  16.633  0.00  0.00    +0.000 NA
ATOM     18  C   UNL     1       7.298   5.466  16.373  0.00  0.00    +0.000 A 
ATOM     19  N   UNL     1       7.740   4.560  17.262  0.00  0.00    +0.000 NA
ATOM     20  C   UNL     1       8.024   5.028  18.493  0.00  0.00    +0.000 A 
ENDBRANCH  14  18
ENDBRANCH  13  14
ENDBRANCH  12  13
ENDBRANCH   1  12
TORSDOF 5
ENDMDL
MODEL 7
REMARK VINA RESULT:      -6.8      1.184      2.099
REMARK  Name = 
REMARK  5 active torsions:
REMARK  status: ('A' for Active; 'I' for Inactive)
REMARK    1  A    between atoms: C_4  and  S_5
REMARK    2  A    between atoms: S_5  and  C_6
REMARK    3  A    between atoms: C_6  and  C_7
REMARK    4  A    between atoms: C_7  and  O_8
REMARK    5  A    between atoms: O_8  and  C_9
REMARK                            x       y       z     vdW  Elec       q    Type
REMARK                         _______ _______ _______ _____ _____    ______ ____
ROOT
ATOM      1  O   UNL     1       3.744   5.803  17.188  0.00  0.00    +0.000 OA
ENDROOT
BRANCH   1   2
ATOM      2  C   UNL     1       3.081   5.969  18.392  0.00  0.00    +0.000 A 
ATOM      3  C   UNL     1       2.983   4.963  19.365  0.00  0.00    +0.000 A 
ATOM      4  C   UNL     1       2.305   5.190  20.561  0.00  0.00    +0.000 A 
ATOM      5  C   UNL     1       1.714   6.424  20.803  0.00  0.00    +0.000 A 
ATOM      6  C   UNL     1       1.794   7.451  19.855  0.00  0.00    +0.000 A 
ATOM      7  C   UNL     1       1.197   8.695  20.121  0.00  0.00    +0.000 A 
ATOM      8  C   UNL     1       1.266   9.733  19.195  0.00  0.00    +0.000 A 
ATOM      9  C   UNL     1       1.928   9.538  17.988  0.00  0.00    +0.000 A 
ATOM     10  C   UNL     1       2.524   8.305  17.709  0.00  0.00    +0.000 A 
ATOM     11  C   UNL     1       2.479   7.235  18.629  0.00  0.00    +0.000 A 
ENDBRANCH   1   2
BRANCH   1  12
ATOM     12  C   UNL     1       4.496   4.590  17.050  0.00  0.00    +0.000 C 
BRANCH  12  13
ATOM     13  C   UNL     1       4.915   4.360  15.597  0.00  0.00    +0.000 C 
BRANCH  13  14
ATOM     14  S   UNL     1       6.708   4.011  15.593  0.00  0.00    +0.000 S 
BRANCH  14  18
ATOM     15  C   UNL     1       8.007   6.903  18.744  0.00  0.00    +0.000 A 
ATOM     16  C   UNL     1       7.657   7.292  17.475  0.00  0.00    +0.000 A 
ATOM     17  N   UNL     1       7.289   6.427  16.513  0.00  0.00    +0.000 NA
ATOM     18  C   UNL     1       7.282   5.124  16.844  0.00  0.00    +0.000 A 
ATOM     19  N   UNL     1       7.609   4.639  18.054  0.00  0.00    +0.000 NA
ATOM     20  C   UNL     1       7.964   5.550  18.981  0.00  0.00    +0.000 A 
ENDBRANCH  14  18
ENDBRANCH  13  14
ENDBRANCH  12  13
ENDBRANCH   1  12
TORSDOF 5
ENDMDL
MODEL 8
REMARK VINA RESULT:      -6.8      2.433      4.079
REMARK  Name = 
REMARK  5 active torsions:
REMARK  status: ('A' for Active; 'I' for Inactive)
REMARK    1  A    between atoms: C_4  and  S_5
REMARK    2  A    between atoms: S_5  and  C_6
REMARK    3  A    between atoms: C_6  and  C_7
REMARK    4  A    between atoms: C_7  and  O_8
REMARK    5  A    between atoms: O_8  and  C_9
REMARK                            x       y       z     vdW  Elec       q    Type
REMARK                         _______ _______ _______ _____ _____    ______ ____
ROOT
ATOM      1  O   UNL     1       2.722   6.535  20.074  0.00  0.00    +0.000 OA
ENDROOT
BRANCH   1   2
ATOM      2  C   UNL     1       2.181   7.660  19.474  0.00  0.00    +0.000 A 
ATOM      3  C   UNL     1       2.383   7.988  18.125  0.00  0.00    +0.000 A 
ATOM      4  C   UNL     1       1.810   9.133  17.575  0.00  0.00    +0.000 A 
ATOM      5  C   UNL     1       1.028   9.968  18.364  0.00  0.00    +0.000 A 
ATOM      6  C   UNL     1       0.803   9.669  19.714  0.00  0.00    +0.000 A 
ATOM      7  C   UNL     1       0.003  10.521  20.493  0.00  0.00    +0.000 A 
ATOM      8  C   UNL     1      -0.237  10.243  21.837  0.00  0.00    +0.000 A 
ATOM      9  C   UNL     1       0.326   9.114  22.419  0.00  0.00    +0.000 A 
ATOM     10  C   UNL     1       1.127   8.259  21.657  0.00  0.00    +0.000 A 
ATOM     11  C   UNL     1       1.384   8.508  20.290  0.00  0.00    +0.000 A 
ENDBRANCH   1   2
BRANCH   1  12
ATOM     12  C   UNL     1       2.132   5.282  19.701  0.00  0.00    +0.000 C 
BRANCH  12  13
ATOM     13  C   UNL     1       2.921   4.611  18.576  0.00  0.00    +0.000 C 
BRANCH  13  14
ATOM     14  S   UNL     1       4.434   3.905  19.316  0.00  0.00    +0.000 S 
BRANCH  14  18
ATOM     15  C   UNL     1       7.608   6.803  18.089  0.00  0.00    +0.000 A 
ATOM     16  C   UNL     1       7.740   5.969  19.171  0.00  0.00    +0.000 A 
ATOM     17  N   UNL     1       6.780   5.112  19.563  0.00  0.00    +0.000 NA
ATOM     18  C   UNL     1       5.646   5.103  18.840  0.00  0.00    +0.000 A 
ATOM     19  N   UNL     1       5.416   5.879  17.768  0.00  0.00    +0.000 NA
ATOM     20  C   UNL     1       6.413   6.715  17.416  0.00  0.00    +0.000 A 
ENDBRANCH  14  18
ENDBRANCH  13  14
ENDBRANCH  12  13
ENDBRANCH   1  12
TORSDOF 5
ENDMDL
MODEL 9
REMARK VINA RESULT:      -6.8      2.244      3.967
REMARK  Name = 
REMARK  5 active torsions:
REMARK  status: ('A' for Active; 'I' for Inactive)
REMARK    1  A    between atoms: C_4  and  S_5
REMARK    2  A    between atoms: S_5  and  C_6
REMARK    3  A    between atoms: C_6  and  C_7
REMARK    4  A    between atoms: C_7  and  O_8
REMARK    5  A    between atoms: O_8  and  C_9
REMARK                            x       y       z     vdW  Elec       q    Type
REMARK                         _______ _______ _______ _____ _____    ______ ____
ROOT
ATOM      1  O   UNL     1       2.380   5.991  20.415  0.00  0.00    +0.000 OA
ENDROOT
BRANCH   1   2
ATOM      2  C   UNL     1       2.215   7.104  19.608  0.00  0.00    +0.000 A 
ATOM      3  C   UNL     1       2.756   7.210  18.318  0.00  0.00    +0.000 A 
ATOM      4  C   UNL     1       2.553   8.356  17.551  0.00  0.00    +0.000 A 
ATOM      5  C   UNL     1       1.808   9.411  18.060  0.00  0.00    +0.000 A 
ATOM      6  C   UNL     1       1.251   9.338  19.343  0.00  0.00    +0.000 A 
ATOM      7  C   UNL     1       0.494  10.414  19.838  0.00  0.00    +0.000 A 
ATOM      8  C   UNL     1      -0.072  10.363  21.110  0.00  0.00    +0.000 A 
ATOM      9  C   UNL     1       0.118   9.239  21.905  0.00  0.00    +0.000 A 
ATOM     10  C   UNL     1       0.871   8.163  21.427  0.00  0.00    +0.000 A 
ATOM     11  C   UNL     1       1.452   8.179  20.140  0.00  0.00    +0.000 A 
ENDBRANCH   1   2
BRANCH   1  12
ATOM     12  C   UNL     1       1.967   4.740  19.847  0.00  0.00    +0.000 C 
BRANCH  12  13
ATOM     13  C   UNL     1       3.111   3.725  19.853  0.00  0.00    +0.000 C 
BRANCH  13  14
ATOM     14  S   UNL     1       3.612   3.455  18.118  0.00  0.00    +0.000 S 
BRANCH  14  18
ATOM     15  C   UNL     1       7.592   5.491  18.126  0.00  0.00    +0.000 A 
ATOM     16  C   UNL     1       6.746   5.505  19.207  0.00  0.00    +0.000 A 
ATOM     17  N   UNL     1       5.536   4.918  19.205  0.00  0.00    +0.000 NA
ATOM     18  C   UNL     1       5.167   4.299  18.069  0.00  0.00    +0.000 A 
ATOM     19  N   UNL     1       5.917   4.230  16.957  0.00  0.00    +0.000 NA
ATOM     20  C   UNL     1       7.121   4.831  17.015  0.00  0.00    +0.000 A 
ENDBRANCH  14  18
ENDBRANCH  13  14
ENDBRANCH  12  13
ENDBRANCH   1  12
TORSDOF 5
ENDMDL
