MODEL 1
REMARK VINA RESULT:      -7.1      0.000      0.000
REMARK  Name = 
REMARK  5 active torsions:
REMARK  status: ('A' for Active; 'I' for Inactive)
REMARK    1  A    between atoms: C_2  and  S_3
REMARK    2  A    between atoms: C_2  and  N_17
REMARK    3  A    between atoms: S_3  and  S_4
REMARK    4  A    between atoms: S_4  and  C_5
REMARK    5  A    between atoms: C_5  and  N_7
REMARK                            x       y       z     vdW  Elec       q    Type
REMARK                         _______ _______ _______ _____ _____    ______ ____
ROOT
ATOM      1  S   UNL     1       2.117   7.304  19.907  0.00  0.00    +0.000 S 
ENDROOT
BRANCH   1   3
ATOM      2  S   UNL     1       1.579   9.537  17.949  0.00  0.00    +0.000 S 
ATOM      3  C   UNL     1       1.445   8.912  19.499  0.00  0.00    +0.000 C 
BRANCH   3   4
ATOM      4  N   UNL     1       0.920   9.576  20.615  0.00  0.00    +0.000 N 
ATOM      5  C   UNL     1       1.378   9.109  21.941  0.00  0.00    +0.000 C 
ATOM      6  C   UNL     1       0.291   9.283  22.999  0.00  0.00    +0.000 C 
ATOM      7  O   UNL     1      -0.158  10.643  23.050  0.00  0.00    +0.000 OA
ATOM      8  C   UNL     1      -0.661  11.061  21.769  0.00  0.00    +0.000 C 
ATOM      9  C   UNL     1      -1.272  12.448  21.945  0.00  0.00    +0.000 C 
ATOM     10  C   UNL     1      -1.765  13.012  20.622  0.00  0.00    +0.000 C 
ATOM     11  C   UNL     1      -0.636  13.040  19.605  0.00  0.00    +0.000 C 
ATOM     12  C   UNL     1      -0.034  11.650  19.383  0.00  0.00    +0.000 C 
ATOM     13  C   UNL     1       0.469  11.009  20.688  0.00  0.00    +0.000 C 
ENDBRANCH   3   4
ENDBRANCH   1   3
BRANCH   1  14
ATOM     14  S   UNL     1       3.195   6.771  18.223  0.00  0.00    +0.000 S 
BRANCH  14  15
ATOM     15  C   UNL     1       3.054   4.998  18.169  0.00  0.00    +0.000 C 
ATOM     16  S   UNL     1       1.629   4.206  17.756  0.00  0.00    +0.000 S 
BRANCH  15  17
ATOM     17  N   UNL     1       4.296   4.370  18.253  0.00  0.00    +0.000 N 
ATOM     18  C   UNL     1       5.022   4.337  19.534  0.00  0.00    +0.000 C 
ATOM     19  C   UNL     1       6.269   5.229  19.528  0.00  0.00    +0.000 C 
ATOM     20  O   UNL     1       7.122   4.902  18.423  0.00  0.00    +0.000 OA
ATOM     21  C   UNL     1       6.429   5.096  17.176  0.00  0.00    +0.000 C 
ATOM     22  C   UNL     1       7.428   4.816  16.052  0.00  0.00    +0.000 C 
ATOM     23  C   UNL     1       6.776   4.944  14.682  0.00  0.00    +0.000 C 
ATOM     24  C   UNL     1       5.546   4.048  14.570  0.00  0.00    +0.000 C 
ATOM     25  C   UNL     1       4.539   4.296  15.698  0.00  0.00    +0.000 C 
ATOM     26  C   UNL     1       5.187   4.161  17.080  0.00  0.00    +0.000 C 
ENDBRANCH  15  17
ENDBRANCH  14  15
ENDBRANCH   1  14
TORSDOF 5
ENDMDL
MODEL 2
REMARK VINA RESULT:      -7.0      1.929      8.982
REMARK  Name = 
REMARK  5 active torsions:
REMARK  status: ('A' for Active; 'I' for Inactive)
REMARK    1  A    between atoms: C_2  and  S_3
REMARK    2  A    between atoms: C_2  and  N_17
REMARK    3  A    between atoms: S_3  and  S_4
REMARK    4  A    between atoms: S_4  and  C_5
REMARK    5  A    between atoms: C_5  and  N_7
REMARK                            x       y       z     vdW  Elec       q    Type
REMARK                         _______ _______ _______ _____ _____    ______ ____
ROOT
ATOM      1  S   UNL     1       2.657   6.251  19.376  0.00  0.00    +0.000 S 
ENDROOT
BRANCH   1   3
ATOM      2  S   UNL     1       2.115   3.822  17.669  0.00  0.00    +0.000 S 
ATOM      3  C   UNL     1       3.202   4.935  18.293  0.00  0.00    +0.000 C 
BRANCH   3   4
ATOM      4  N   UNL     1       4.594   4.907  18.135  0.00  0.00    +0.000 N 
ATOM      5  C   UNL     1       5.398   4.779  19.369  0.00  0.00    +0.000 C 
ATOM      6  C   UNL     1       6.739   5.496  19.238  0.00  0.00    +0.000 C 
ATOM      7  O   UNL     1       7.460   5.023  18.093  0.00  0.00    +0.000 OA
ATOM      8  C   UNL     1       6.691   5.216  16.893  0.00  0.00    +0.000 C 
ATOM      9  C   UNL     1       7.583   4.852  15.710  0.00  0.00    +0.000 C 
ATOM     10  C   UNL     1       6.832   4.950  14.393  0.00  0.00    +0.000 C 
ATOM     11  C   UNL     1       5.589   4.075  14.427  0.00  0.00    +0.000 C 
ATOM     12  C   UNL     1       4.659   4.449  15.583  0.00  0.00    +0.000 C 
ATOM     13  C   UNL     1       5.362   4.392  16.949  0.00  0.00    +0.000 C 
ENDBRANCH   3   4
ENDBRANCH   1   3
BRANCH   1  14
ATOM     14  S   UNL     1       2.448   7.880  18.117  0.00  0.00    +0.000 S 
BRANCH  14  15
ATOM     15  C   UNL     1       1.465   9.025  19.060  0.00  0.00    +0.000 C 
ATOM     16  S   UNL     1       1.161   8.832  20.702  0.00  0.00    +0.000 S 
BRANCH  15  17
ATOM     17  N   UNL     1       1.205  10.199  18.353  0.00  0.00    +0.000 N 
ATOM     18  C   UNL     1       2.200  11.284  18.330  0.00  0.00    +0.000 C 
ATOM     19  C   UNL     1       1.753  12.511  19.134  0.00  0.00    +0.000 C 
ATOM     20  O   UNL     1       0.463  12.961  18.697  0.00  0.00    +0.000 OA
ATOM     21  C   UNL     1      -0.521  11.926  18.880  0.00  0.00    +0.000 C 
ATOM     22  C   UNL     1      -1.876  12.511  18.480  0.00  0.00    +0.000 C 
ATOM     23  C   UNL     1      -2.985  11.473  18.589  0.00  0.00    +0.000 C 
ATOM     24  C   UNL     1      -2.654  10.224  17.775  0.00  0.00    +0.000 C 
ATOM     25  C   UNL     1      -1.291   9.632  18.143  0.00  0.00    +0.000 C 
ATOM     26  C   UNL     1      -0.169  10.669  18.029  0.00  0.00    +0.000 C 
ENDBRANCH  15  17
ENDBRANCH  14  15
ENDBRANCH   1  14
TORSDOF 5
ENDMDL
MODEL 3
REMARK VINA RESULT:      -6.9      2.463      3.324
REMARK  Name = 
REMARK  5 active torsions:
REMARK  status: ('A' for Active; 'I' for Inactive)
REMARK    1  A    between atoms: C_2  and  S_3
REMARK    2  A    between atoms: C_2  and  N_17
REMARK    3  A    between atoms: S_3  and  S_4
REMARK    4  A    between atoms: S_4  and  C_5
REMARK    5  A    between atoms: C_5  and  N_7
REMARK                            x       y       z     vdW  Elec       q    Type
REMARK                         _______ _______ _______ _____ _____    ______ ____
ROOT
ATOM      1  S   UNL     1       1.231   9.323  19.610  0.00  0.00    +0.000 S 
ENDROOT
BRANCH   1   3
ATOM      2  S   UNL     1       1.850  12.091  18.579  0.00  0.00    +0.000 S 
ATOM      3  C   UNL     1       0.736  10.869  18.858  0.00  0.00    +0.000 C 
BRANCH   3   4
ATOM      4  N   UNL     1      -0.646  10.949  18.647  0.00  0.00    +0.000 N 
ATOM      5  C   UNL     1      -1.209  10.070  17.599  0.00  0.00    +0.000 C 
ATOM      6  C   UNL     1      -2.420  10.711  16.926  0.00  0.00    +0.000 C 
ATOM      7  O   UNL     1      -3.412  11.069  17.895  0.00  0.00    +0.000 OA
ATOM      8  C   UNL     1      -2.867  11.976  18.870  0.00  0.00    +0.000 C 
ATOM      9  C   UNL     1      -4.016  12.443  19.758  0.00  0.00    +0.000 C 
ATOM     10  C   UNL     1      -3.526  13.349  20.875  0.00  0.00    +0.000 C 
ATOM     11  C   UNL     1      -2.454  12.648  21.694  0.00  0.00    +0.000 C 
ATOM     12  C   UNL     1      -1.272  12.207  20.828  0.00  0.00    +0.000 C 
ATOM     13  C   UNL     1      -1.700  11.300  19.662  0.00  0.00    +0.000 C 
ENDBRANCH   3   4
ENDBRANCH   1   3
BRANCH   1  14
ATOM     14  S   UNL     1       2.156   8.293  18.071  0.00  0.00    +0.000 S 
BRANCH  14  15
ATOM     15  C   UNL     1       2.547   6.712  18.789  0.00  0.00    +0.000 C 
ATOM     16  S   UNL     1       2.140   6.300  20.367  0.00  0.00    +0.000 S 
BRANCH  15  17
ATOM     17  N   UNL     1       2.984   5.796  17.833  0.00  0.00    +0.000 N 
ATOM     18  C   UNL     1       2.251   4.535  17.629  0.00  0.00    +0.000 C 
ATOM     19  C   UNL     1       3.032   3.312  18.124  0.00  0.00    +0.000 C 
ATOM     20  O   UNL     1       4.339   3.271  17.534  0.00  0.00    +0.000 OA
ATOM     21  C   UNL     1       5.087   4.450  17.883  0.00  0.00    +0.000 C 
ATOM     22  C   UNL     1       6.490   4.289  17.296  0.00  0.00    +0.000 C 
ATOM     23  C   UNL     1       7.352   5.514  17.567  0.00  0.00    +0.000 C 
ATOM     24  C   UNL     1       6.678   6.787  17.060  0.00  0.00    +0.000 C 
ATOM     25  C   UNL     1       5.263   6.959  17.619  0.00  0.00    +0.000 C 
ATOM     26  C   UNL     1       4.387   5.733  17.343  0.00  0.00    +0.000 C 
ENDBRANCH  15  17
ENDBRANCH  14  15
ENDBRANCH   1  14
TORSDOF 5
ENDMDL
MODEL 4
REMARK VINA RESULT:      -6.9      2.662      4.136
REMARK  Name = 
REMARK  5 active torsions:
REMARK  status: ('A' for Active; 'I' for Inactive)
REMARK    1  A    between atoms: C_2  and  S_3
REMARK    2  A    between atoms: C_2  and  N_17
REMARK    3  A    between atoms: S_3  and  S_4
REMARK    4  A    between atoms: S_4  and  C_5
REMARK    5  A    between atoms: C_5  and  N_7
REMARK                            x       y       z     vdW  Elec       q    Type
REMARK                         _______ _______ _______ _____ _____    ______ ____
ROOT
ATOM      1  S   UNL     1       1.067   9.434  19.716  0.00  0.00    +0.000 S 
ENDROOT
BRANCH   1   3
ATOM      2  S   UNL     1      -0.183   9.290  22.459  0.00  0.00    +0.000 S 
ATOM      3  C   UNL     1      -0.127   9.980  20.932  0.00  0.00    +0.000 C 
BRANCH   3   4
ATOM      4  N   UNL     1      -1.019  10.931  20.422  0.00  0.00    +0.000 N 
ATOM      5  C   UNL     1      -1.010  12.262  21.067  0.00  0.00    +0.000 C 
ATOM      6  C   UNL     1      -2.392  12.908  21.032  0.00  0.00    +0.000 C 
ATOM      7  O   UNL     1      -2.887  12.982  19.689  0.00  0.00    +0.000 OA
ATOM      8  C   UNL     1      -2.952  11.672  19.098  0.00  0.00    +0.000 C 
ATOM      9  C   UNL     1      -3.643  11.811  17.745  0.00  0.00    +0.000 C 
ATOM     10  C   UNL     1      -3.691  10.484  17.004  0.00  0.00    +0.000 C 
ATOM     11  C   UNL     1      -2.290   9.917  16.845  0.00  0.00    +0.000 C 
ATOM     12  C   UNL     1      -1.593   9.731  18.195  0.00  0.00    +0.000 C 
ATOM     13  C   UNL     1      -1.527  11.034  19.010  0.00  0.00    +0.000 C 
ENDBRANCH   3   4
ENDBRANCH   1   3
BRANCH   1  14
ATOM     14  S   UNL     1       1.835   7.687  20.519  0.00  0.00    +0.000 S 
BRANCH  14  15
ATOM     15  C   UNL     1       2.685   6.928  19.152  0.00  0.00    +0.000 C 
ATOM     16  S   UNL     1       2.864   7.674  17.657  0.00  0.00    +0.000 S 
BRANCH  15  17
ATOM     17  N   UNL     1       3.388   5.787  19.541  0.00  0.00    +0.000 N 
ATOM     18  C   UNL     1       4.846   5.714  19.346  0.00  0.00    +0.000 C 
ATOM     19  C   UNL     1       5.245   4.719  18.250  0.00  0.00    +0.000 C 
ATOM     20  O   UNL     1       4.675   3.428  18.505  0.00  0.00    +0.000 OA
ATOM     21  C   UNL     1       3.238   3.507  18.534  0.00  0.00    +0.000 C 
ATOM     22  C   UNL     1       2.708   2.084  18.718  0.00  0.00    +0.000 C 
ATOM     23  C   UNL     1       1.189   2.063  18.814  0.00  0.00    +0.000 C 
ATOM     24  C   UNL     1       0.693   2.990  19.920  0.00  0.00    +0.000 C 
ATOM     25  C   UNL     1       1.228   4.417  19.769  0.00  0.00    +0.000 C 
ATOM     26  C   UNL     1       2.757   4.447  19.679  0.00  0.00    +0.000 C 
ENDBRANCH  15  17
ENDBRANCH  14  15
ENDBRANCH   1  14
TORSDOF 5
ENDMDL
MODEL 5
REMARK VINA RESULT:      -6.8      0.843      9.220
REMARK  Name = 
REMARK  5 active torsions:
REMARK  status: ('A' for Active; 'I' for Inactive)
REMARK    1  A    between atoms: C_2  and  S_3
REMARK    2  A    between atoms: C_2  and  N_17
REMARK    3  A    between atoms: S_3  and  S_4
REMARK    4  A    between atoms: S_4  and  C_5
REMARK    5  A    between atoms: C_5  and  N_7
REMARK                            x       y       z     vdW  Elec       q    Type
REMARK                         _______ _______ _______ _____ _____    ______ ____
ROOT
ATOM      1  S   UNL     1       2.748   7.390  18.166  0.00  0.00    +0.000 S 
ENDROOT
BRANCH   1   3
ATOM      2  S   UNL     1       1.737   4.549  18.039  0.00  0.00    +0.000 S 
ATOM      3  C   UNL     1       3.023   5.625  18.051  0.00  0.00    +0.000 C 
BRANCH   3   4
ATOM      4  N   UNL     1       4.382   5.288  18.079  0.00  0.00    +0.000 N 
ATOM      5  C   UNL     1       4.975   5.031  19.409  0.00  0.00    +0.000 C 
ATOM      6  C   UNL     1       6.447   5.432  19.449  0.00  0.00    +0.000 C 
ATOM      7  O   UNL     1       7.185   4.773  18.412  0.00  0.00    +0.000 OA
ATOM      8  C   UNL     1       6.635   5.085  17.120  0.00  0.00    +0.000 C 
ATOM      9  C   UNL     1       7.567   4.493  16.068  0.00  0.00    +0.000 C 
ATOM     10  C   UNL     1       7.029   4.704  14.662  0.00  0.00    +0.000 C 
ATOM     11  C   UNL     1       5.630   4.124  14.539  0.00  0.00    +0.000 C 
ATOM     12  C   UNL     1       4.667   4.735  15.560  0.00  0.00    +0.000 C 
ATOM     13  C   UNL     1       5.161   4.574  17.008  0.00  0.00    +0.000 C 
ENDBRANCH   3   4
ENDBRANCH   1   3
BRANCH   1  14
ATOM     14  S   UNL     1       1.798   7.629  19.989  0.00  0.00    +0.000 S 
BRANCH  14  15
ATOM     15  C   UNL     1       1.096   9.262  19.893  0.00  0.00    +0.000 C 
ATOM     16  S   UNL     1       0.208   9.799  18.570  0.00  0.00    +0.000 S 
BRANCH  15  17
ATOM     17  N   UNL     1       1.148   9.928  21.117  0.00  0.00    +0.000 N 
ATOM     18  C   UNL     1       0.881   9.199  22.368  0.00  0.00    +0.000 C 
ATOM     19  C   UNL     1      -0.450   9.602  23.013  0.00  0.00    +0.000 C 
ATOM     20  O   UNL     1      -0.513  11.023  23.200  0.00  0.00    +0.000 OA
ATOM     21  C   UNL     1      -0.406  11.703  21.936  0.00  0.00    +0.000 C 
ATOM     22  C   UNL     1      -0.573  13.199  22.210  0.00  0.00    +0.000 C 
ATOM     23  C   UNL     1      -0.424  14.018  20.935  0.00  0.00    +0.000 C 
ATOM     24  C   UNL     1       0.904  13.723  20.242  0.00  0.00    +0.000 C 
ATOM     25  C   UNL     1       1.103  12.228  19.976  0.00  0.00    +0.000 C 
ATOM     26  C   UNL     1       0.962  11.398  21.256  0.00  0.00    +0.000 C 
ENDBRANCH  15  17
ENDBRANCH  14  15
ENDBRANCH   1  14
TORSDOF 5
ENDMDL
MODEL 6
REMARK VINA RESULT:      -6.8      2.555      9.005
REMARK  Name = 
REMARK  5 active torsions:
REMARK  status: ('A' for Active; 'I' for Inactive)
REMARK    1  A    between atoms: C_2  and  S_3
REMARK    2  A    between atoms: C_2  and  N_17
REMARK    3  A    between atoms: S_3  and  S_4
REMARK    4  A    between atoms: S_4  and  C_5
REMARK    5  A    between atoms: C_5  and  N_7
REMARK                            x       y       z     vdW  Elec       q    Type
REMARK                         _______ _______ _______ _____ _____    ______ ____
ROOT
ATOM      1  S   UNL     1       2.201   7.507  19.520  0.00  0.00    +0.000 S 
ENDROOT
BRANCH   1   3
ATOM      2  S   UNL     1       3.745   7.598  16.928  0.00  0.00    +0.000 S 
ATOM      3  C   UNL     1       3.377   6.812  18.363  0.00  0.00    +0.000 C 
BRANCH   3   4
ATOM      4  N   UNL     1       3.836   5.548  18.754  0.00  0.00    +0.000 N 
ATOM      5  C   UNL     1       5.177   5.492  19.374  0.00  0.00    +0.000 C 
ATOM      6  C   UNL     1       5.881   4.175  19.061  0.00  0.00    +0.000 C 
ATOM      7  O   UNL     1       5.075   3.058  19.458  0.00  0.00    +0.000 OA
ATOM      8  C   UNL     1       3.799   3.092  18.795  0.00  0.00    +0.000 C 
ATOM      9  C   UNL     1       3.071   1.794  19.132  0.00  0.00    +0.000 C 
ATOM     10  C   UNL     1       1.672   1.768  18.538  0.00  0.00    +0.000 C 
ATOM     11  C   UNL     1       0.877   2.976  19.005  0.00  0.00    +0.000 C 
ATOM     12  C   UNL     1       1.569   4.291  18.642  0.00  0.00    +0.000 C 
ATOM     13  C   UNL     1       3.002   4.377  19.196  0.00  0.00    +0.000 C 
ENDBRANCH   3   4
ENDBRANCH   1   3
BRANCH   1  14
ATOM     14  S   UNL     1       1.530   9.224  18.580  0.00  0.00    +0.000 S 
BRANCH  14  15
ATOM     15  C   UNL     1       0.302   9.869  19.696  0.00  0.00    +0.000 C 
ATOM     16  S   UNL     1       0.069   9.266  21.247  0.00  0.00    +0.000 S 
BRANCH  15  17
ATOM     17  N   UNL     1      -0.246  11.067  19.236  0.00  0.00    +0.000 N 
ATOM     18  C   UNL     1      -0.024  12.316  19.982  0.00  0.00    +0.000 C 
ATOM     19  C   UNL     1      -1.295  12.825  20.673  0.00  0.00    +0.000 C 
ATOM     20  O   UNL     1      -2.369  12.950  19.731  0.00  0.00    +0.000 OA
ATOM     21  C   UNL     1      -2.666  11.675  19.132  0.00  0.00    +0.000 C 
ATOM     22  C   UNL     1      -3.874  11.874  18.214  0.00  0.00    +0.000 C 
ATOM     23  C   UNL     1      -4.240  10.587  17.488  0.00  0.00    +0.000 C 
ATOM     24  C   UNL     1      -3.044  10.026  16.723  0.00  0.00    +0.000 C 
ATOM     25  C   UNL     1      -1.815   9.837  17.617  0.00  0.00    +0.000 C 
ATOM     26  C   UNL     1      -1.436  11.131  18.346  0.00  0.00    +0.000 C 
ENDBRANCH  15  17
ENDBRANCH  14  15
ENDBRANCH   1  14
TORSDOF 5
ENDMDL
MODEL 7
REMARK VINA RESULT:      -6.7      1.813      2.380
REMARK  Name = 
REMARK  5 active torsions:
REMARK  status: ('A' for Active; 'I' for Inactive)
REMARK    1  A    between atoms: C_2  and  S_3
REMARK    2  A    between atoms: C_2  and  N_17
REMARK    3  A    between atoms: S_3  and  S_4
REMARK    4  A    between atoms: S_4  and  C_5
REMARK    5  A    between atoms: C_5  and  N_7
REMARK                            x       y       z     vdW  Elec       q    Type
REMARK                         _______ _______ _______ _____ _____    ______ ____
ROOT
ATOM      1  S   UNL     1       1.820   9.843  18.805  0.00  0.00    +0.000 S 
ENDROOT
BRANCH   1   3
ATOM      2  S   UNL     1      -1.081  10.152  18.030  0.00  0.00    +0.000 S 
ATOM      3  C   UNL     1       0.106  10.157  19.214  0.00  0.00    +0.000 C 
BRANCH   3   4
ATOM      4  N   UNL     1      -0.074  10.491  20.562  0.00  0.00    +0.000 N 
ATOM      5  C   UNL     1       0.445   9.530  21.559  0.00  0.00    +0.000 C 
ATOM      6  C   UNL     1      -0.401   9.533  22.829  0.00  0.00    +0.000 C 
ATOM      7  O   UNL     1      -0.495  10.854  23.377  0.00  0.00    +0.000 OA
ATOM      8  C   UNL     1      -1.062  11.763  22.418  0.00  0.00    +0.000 C 
ATOM      9  C   UNL     1      -1.287  13.096  23.124  0.00  0.00    +0.000 C 
ATOM     10  C   UNL     1      -1.816  14.152  22.168  0.00  0.00    +0.000 C 
ATOM     11  C   UNL     1      -0.875  14.315  20.986  0.00  0.00    +0.000 C 
ATOM     12  C   UNL     1      -0.666  12.996  20.237  0.00  0.00    +0.000 C 
ATOM     13  C   UNL     1      -0.149  11.873  21.152  0.00  0.00    +0.000 C 
ENDBRANCH   3   4
ENDBRANCH   1   3
BRANCH   1  14
ATOM     14  S   UNL     1       1.745   8.162  17.599  0.00  0.00    +0.000 S 
BRANCH  14  15
ATOM     15  C   UNL     1       2.490   6.889  18.594  0.00  0.00    +0.000 C 
ATOM     16  S   UNL     1       2.244   6.764  20.253  0.00  0.00    +0.000 S 
BRANCH  15  17
ATOM     17  N   UNL     1       3.072   5.888  17.816  0.00  0.00    +0.000 N 
ATOM     18  C   UNL     1       2.435   4.564  17.718  0.00  0.00    +0.000 C 
ATOM     19  C   UNL     1       3.230   3.473  18.445  0.00  0.00    +0.000 C 
ATOM     20  O   UNL     1       4.590   3.446  17.989  0.00  0.00    +0.000 OA
ATOM     21  C   UNL     1       5.232   4.710  18.243  0.00  0.00    +0.000 C 
ATOM     22  C   UNL     1       6.694   4.571  17.815  0.00  0.00    +0.000 C 
ATOM     23  C   UNL     1       7.453   5.878  17.996  0.00  0.00    +0.000 C 
ATOM     24  C   UNL     1       6.764   7.024  17.261  0.00  0.00    +0.000 C 
ATOM     25  C   UNL     1       5.292   7.169  17.658  0.00  0.00    +0.000 C 
ATOM     26  C   UNL     1       4.519   5.860  17.471  0.00  0.00    +0.000 C 
ENDBRANCH  15  17
ENDBRANCH  14  15
ENDBRANCH   1  14
TORSDOF 5
ENDMDL
MODEL 8
REMARK VINA RESULT:      -6.7      2.550      8.552
REMARK  Name = 
REMARK  5 active torsions:
REMARK  status: ('A' for Active; 'I' for Inactive)
REMARK    1  A    between atoms: C_2  and  S_3
REMARK    2  A    between atoms: C_2  and  N_17
REMARK    3  A    between atoms: S_3  and  S_4
REMARK    4  A    between atoms: S_4  and  C_5
REMARK    5  A    between atoms: C_5  and  N_7
REMARK                            x       y       z     vdW  Elec       q    Type
REMARK                         _______ _______ _______ _____ _____    ______ ____
ROOT
ATOM      1  S   UNL     1       1.912   9.068  18.245  0.00  0.00    +0.000 S 
ENDROOT
BRANCH   1   3
ATOM      2  S   UNL     1       1.549   7.875  20.993  0.00  0.00    +0.000 S 
ATOM      3  C   UNL     1       2.026   7.702  19.395  0.00  0.00    +0.000 C 
BRANCH   3   4
ATOM      4  N   UNL     1       2.632   6.572  18.832  0.00  0.00    +0.000 N 
ATOM      5  C   UNL     1       3.958   6.771  18.209  0.00  0.00    +0.000 C 
ATOM      6  C   UNL     1       4.171   5.818  17.035  0.00  0.00    +0.000 C 
ATOM      7  O   UNL     1       3.983   4.457  17.442  0.00  0.00    +0.000 OA
ATOM      8  C   UNL     1       2.665   4.266  17.985  0.00  0.00    +0.000 C 
ATOM      9  C   UNL     1       2.482   2.771  18.234  0.00  0.00    +0.000 C 
ATOM     10  C   UNL     1       1.141   2.474  18.883  0.00  0.00    +0.000 C 
ATOM     11  C   UNL     1       0.991   3.263  20.174  0.00  0.00    +0.000 C 
ATOM     12  C   UNL     1       1.131   4.769  19.941  0.00  0.00    +0.000 C 
ATOM     13  C   UNL     1       2.462   5.141  19.265  0.00  0.00    +0.000 C 
ENDBRANCH   3   4
ENDBRANCH   1   3
BRANCH   1  14
ATOM     14  S   UNL     1      -0.114   9.482  18.160  0.00  0.00    +0.000 S 
BRANCH  14  15
ATOM     15  C   UNL     1      -0.218  11.199  18.615  0.00  0.00    +0.000 C 
ATOM     16  S   UNL     1      -1.391  12.238  18.005  0.00  0.00    +0.000 S 
BRANCH  15  17
ATOM     17  N   UNL     1       0.601  11.504  19.702  0.00  0.00    +0.000 N 
ATOM     18  C   UNL     1       0.125  11.270  21.076  0.00  0.00    +0.000 C 
ATOM     19  C   UNL     1      -0.157  12.574  21.832  0.00  0.00    +0.000 C 
ATOM     20  O   UNL     1       0.990  13.434  21.804  0.00  0.00    +0.000 OA
ATOM     21  C   UNL     1       1.335  13.771  20.448  0.00  0.00    +0.000 C 
ATOM     22  C   UNL     1       2.503  14.758  20.508  0.00  0.00    +0.000 C 
ATOM     23  C   UNL     1       2.981  15.140  19.114  0.00  0.00    +0.000 C 
ATOM     24  C   UNL     1       3.338  13.902  18.294  0.00  0.00    +0.000 C 
ATOM     25  C   UNL     1       2.191  12.890  18.237  0.00  0.00    +0.000 C 
ATOM     26  C   UNL     1       1.709  12.495  19.637  0.00  0.00    +0.000 C 
ENDBRANCH  15  17
ENDBRANCH  14  15
ENDBRANCH   1  14
TORSDOF 5
ENDMDL
MODEL 9
REMARK VINA RESULT:      -6.7      2.829      8.853
REMARK  Name = 
REMARK  5 active torsions:
REMARK  status: ('A' for Active; 'I' for Inactive)
REMARK    1  A    between atoms: C_2  and  S_3
REMARK    2  A    between atoms: C_2  and  N_17
REMARK    3  A    between atoms: S_3  and  S_4
REMARK    4  A    between atoms: S_4  and  C_5
REMARK    5  A    between atoms: C_5  and  N_7
REMARK                            x       y       z     vdW  Elec       q    Type
REMARK                         _______ _______ _______ _____ _____    ______ ____
ROOT
ATOM      1  S   UNL     1       2.338   7.246  19.266  0.00  0.00    +0.000 S 
ENDROOT
BRANCH   1   3
ATOM      2  S   UNL     1       4.500   7.181  17.161  0.00  0.00    +0.000 S 
ATOM      3  C   UNL     1       3.430   6.361  18.158  0.00  0.00    +0.000 C 
BRANCH   3   4
ATOM      4  N   UNL     1       3.202   4.979  18.166  0.00  0.00    +0.000 N 
ATOM      5  C   UNL     1       3.734   4.213  17.019  0.00  0.00    +0.000 C 
ATOM      6  C   UNL     1       2.857   3.004  16.701  0.00  0.00    +0.000 C 
ATOM      7  O   UNL     1       2.697   2.172  17.857  0.00  0.00    +0.000 OA
ATOM      8  C   UNL     1       2.117   2.916  18.942  0.00  0.00    +0.000 C 
ATOM      9  C   UNL     1       1.820   1.931  20.069  0.00  0.00    +0.000 C 
ATOM     10  C   UNL     1       1.273   2.638  21.298  0.00  0.00    +0.000 C 
ATOM     11  C   UNL     1       2.236   3.718  21.760  0.00  0.00    +0.000 C 
ATOM     12  C   UNL     1       2.517   4.742  20.657  0.00  0.00    +0.000 C 
ATOM     13  C   UNL     1       3.056   4.091  19.371  0.00  0.00    +0.000 C 
ENDBRANCH   3   4
ENDBRANCH   1   3
BRANCH   1  14
ATOM     14  S   UNL     1       1.903   8.994  18.247  0.00  0.00    +0.000 S 
BRANCH  14  15
ATOM     15  C   UNL     1       0.764   9.842  19.321  0.00  0.00    +0.000 C 
ATOM     16  S   UNL     1       0.612   9.484  20.957  0.00  0.00    +0.000 S 
BRANCH  15  17
ATOM     17  N   UNL     1       0.220  10.976  18.718  0.00  0.00    +0.000 N 
ATOM     18  C   UNL     1       0.666  12.317  19.130  0.00  0.00    +0.000 C 
ATOM     19  C   UNL     1      -0.412  13.084  19.906  0.00  0.00    +0.000 C 
ATOM     20  O   UNL     1      -1.635  13.135  19.159  0.00  0.00    +0.000 OA
ATOM     21  C   UNL     1      -2.128  11.805  18.907  0.00  0.00    +0.000 C 
ATOM     22  C   UNL     1      -3.472  11.946  18.191  0.00  0.00    +0.000 C 
ATOM     23  C   UNL     1      -4.057  10.587  17.832  0.00  0.00    +0.000 C 
ATOM     24  C   UNL     1      -3.071   9.763  17.008  0.00  0.00    +0.000 C 
ATOM     25  C   UNL     1      -1.709   9.625  17.696  0.00  0.00    +0.000 C 
ATOM     26  C   UNL     1      -1.111  10.989  18.054  0.00  0.00    +0.000 C 
ENDBRANCH  15  17
ENDBRANCH  14  15
ENDBRANCH   1  14
TORSDOF 5
ENDMDL
