MODEL 1
REMARK VINA RESULT:      -8.5      0.000      0.000
REMARK  Name = 
REMARK  10 active torsions:
REMARK  status: ('A' for Active; 'I' for Inactive)
REMARK    1  A    between atoms: C_2  and  C_3
REMARK    2  A    between atoms: C_2  and  C_10
REMARK    3  A    between atoms: C_3  and  C_4
REMARK    4  A    between atoms: C_10  and  N_11
REMARK    5  A    between atoms: N_14  and  C_15
REMARK    6  A    between atoms: C_15  and  C_16
REMARK    7  A    between atoms: C_16  and  O_17
REMARK    8  A    between atoms: O_17  and  C_18
REMARK    9  A    between atoms: C_18  and  C_19
REMARK   10  A    between atoms: C_18  and  C_26
REMARK                            x       y       z     vdW  Elec       q    Type
REMARK                         _______ _______ _______ _____ _____    ______ ____
ROOT
ATOM      1  C   UNL     1       1.284   9.116  17.909  0.00  0.00    +0.000 C 
ENDROOT
BRANCH   1   5
ATOM      2  N   UNL     1      -0.845  11.751  20.161  0.00  0.00    +0.000 NA
ATOM      3  C   UNL     1      -0.043  12.072  18.961  0.00  0.00    +0.000 C 
ATOM      4  C   UNL     1       1.326  11.350  18.909  0.00  0.00    +0.000 C 
ATOM      5  N   UNL     1       1.308   9.895  19.151  0.00  0.00    +0.000 NA
ATOM      6  C   UNL     1       0.289   9.475  20.132  0.00  0.00    +0.000 C 
ATOM      7  C   UNL     1      -1.025  10.285  20.149  0.00  0.00    +0.000 C 
BRANCH   2   8
ATOM      8  C   UNL     1      -0.158  12.283  21.369  0.00  0.00    +0.000 C 
BRANCH   8  10
ATOM      9  O   UNL     1      -0.809  10.962  23.331  0.00  0.00    +0.000 OA
ATOM     10  C   UNL     1      -0.852  12.030  22.707  0.00  0.00    +0.000 C 
BRANCH  10  11
ATOM     11  C   UNL     1      -1.620  13.218  23.283  0.00  0.00    +0.000 C 
BRANCH  11  12
ATOM     12  C   UNL     1      -3.114  13.040  23.195  0.00  0.00    +0.000 A 
ATOM     13  C   UNL     1      -3.761  13.169  21.958  0.00  0.00    +0.000 A 
ATOM     14  C   UNL     1      -5.149  13.078  21.870  0.00  0.00    +0.000 A 
ATOM     15  C   UNL     1      -5.907  12.848  23.016  0.00  0.00    +0.000 A 
ATOM     16  C   UNL     1      -5.274  12.677  24.245  0.00  0.00    +0.000 A 
ATOM     17  C   UNL     1      -3.882  12.768  24.336  0.00  0.00    +0.000 A 
ENDBRANCH  11  12
ENDBRANCH  10  11
ENDBRANCH   8  10
ENDBRANCH   2   8
ENDBRANCH   1   5
BRANCH   1  18
ATOM     18  C   UNL     1       2.627   8.391  17.649  0.00  0.00    +0.000 C 
BRANCH  18  19
ATOM     19  O   UNL     1       2.913   7.320  18.562  0.00  0.00    +0.000 OA
BRANCH  19  20
ATOM     20  C   UNL     1       2.789   5.996  18.016  0.00  0.00    +0.000 C 
BRANCH  20  21
ATOM     21  C   UNL     1       4.121   5.608  17.389  0.00  0.00    +0.000 A 
ATOM     22  C   UNL     1       4.239   4.422  16.642  0.00  0.00    +0.000 A 
ATOM     23  C   UNL     1       5.492   3.971  16.231  0.00  0.00    +0.000 A 
ATOM     24  C   UNL     1       6.625   4.704  16.561  0.00  0.00    +0.000 A 
ATOM     25  F   UNL     1       7.833   4.245  16.208  0.00  0.00    +0.000 F 
ATOM     26  C   UNL     1       6.529   5.894  17.274  0.00  0.00    +0.000 A 
ATOM     27  C   UNL     1       5.279   6.353  17.679  0.00  0.00    +0.000 A 
ENDBRANCH  20  21
BRANCH  20  28
ATOM     28  C   UNL     1       2.300   5.009  19.078  0.00  0.00    +0.000 A 
ATOM     29  C   UNL     1       2.705   5.097  20.423  0.00  0.00    +0.000 A 
ATOM     30  C   UNL     1       2.202   4.211  21.379  0.00  0.00    +0.000 A 
ATOM     31  C   UNL     1       1.291   3.232  20.998  0.00  0.00    +0.000 A 
ATOM     32  F   UNL     1       0.809   2.385  21.917  0.00  0.00    +0.000 F 
ATOM     33  C   UNL     1       0.872   3.124  19.679  0.00  0.00    +0.000 A 
ATOM     34  C   UNL     1       1.371   4.010  18.723  0.00  0.00    +0.000 A 
ENDBRANCH  20  28
ENDBRANCH  19  20
ENDBRANCH  18  19
ENDBRANCH   1  18
TORSDOF 10
ENDMDL
MODEL 2
REMARK VINA RESULT:      -8.4      0.761      1.131
REMARK  Name = 
REMARK  10 active torsions:
REMARK  status: ('A' for Active; 'I' for Inactive)
REMARK    1  A    between atoms: C_2  and  C_3
REMARK    2  A    between atoms: C_2  and  C_10
REMARK    3  A    between atoms: C_3  and  C_4
REMARK    4  A    between atoms: C_10  and  N_11
REMARK    5  A    between atoms: N_14  and  C_15
REMARK    6  A    between atoms: C_15  and  C_16
REMARK    7  A    between atoms: C_16  and  O_17
REMARK    8  A    between atoms: O_17  and  C_18
REMARK    9  A    between atoms: C_18  and  C_19
REMARK   10  A    between atoms: C_18  and  C_26
REMARK                            x       y       z     vdW  Elec       q    Type
REMARK                         _______ _______ _______ _____ _____    ______ ____
ROOT
ATOM      1  C   UNL     1       1.263   8.938  17.937  0.00  0.00    +0.000 C 
ENDROOT
BRANCH   1   5
ATOM      2  N   UNL     1      -0.879  11.020  20.700  0.00  0.00    +0.000 NA
ATOM      3  C   UNL     1      -0.754  11.343  19.261  0.00  0.00    +0.000 C 
ATOM      4  C   UNL     1       0.682  11.188  18.705  0.00  0.00    +0.000 C 
ATOM      5  N   UNL     1       1.373   9.923  19.018  0.00  0.00    +0.000 NA
ATOM      6  C   UNL     1       1.034   9.382  20.348  0.00  0.00    +0.000 C 
ATOM      7  C   UNL     1      -0.406   9.627  20.845  0.00  0.00    +0.000 C 
BRANCH   2   8
ATOM      8  C   UNL     1      -0.120  12.020  21.496  0.00  0.00    +0.000 C 
BRANCH   8  10
ATOM      9  O   UNL     1      -0.833  14.007  22.746  0.00  0.00    +0.000 OA
ATOM     10  C   UNL     1      -0.915  12.788  22.552  0.00  0.00    +0.000 C 
BRANCH  10  11
ATOM     11  C   UNL     1      -1.881  11.946  23.385  0.00  0.00    +0.000 C 
BRANCH  11  12
ATOM     12  C   UNL     1      -3.317  12.369  23.209  0.00  0.00    +0.000 A 
ATOM     13  C   UNL     1      -3.814  12.637  21.925  0.00  0.00    +0.000 A 
ATOM     14  C   UNL     1      -5.119  13.097  21.752  0.00  0.00    +0.000 A 
ATOM     15  C   UNL     1      -5.946  13.285  22.857  0.00  0.00    +0.000 A 
ATOM     16  C   UNL     1      -5.477  12.983  24.134  0.00  0.00    +0.000 A 
ATOM     17  C   UNL     1      -4.170  12.522  24.311  0.00  0.00    +0.000 A 
ENDBRANCH  11  12
ENDBRANCH  10  11
ENDBRANCH   8  10
ENDBRANCH   2   8
ENDBRANCH   1   5
BRANCH   1  18
ATOM     18  C   UNL     1       2.624   8.279  17.607  0.00  0.00    +0.000 C 
BRANCH  18  19
ATOM     19  O   UNL     1       3.008   7.222  18.502  0.00  0.00    +0.000 OA
BRANCH  19  20
ATOM     20  C   UNL     1       2.868   5.891  17.979  0.00  0.00    +0.000 C 
BRANCH  20  21
ATOM     21  C   UNL     1       4.196   5.475  17.362  0.00  0.00    +0.000 A 
ATOM     22  C   UNL     1       5.299   6.347  17.387  0.00  0.00    +0.000 A 
ATOM     23  C   UNL     1       6.450   6.047  16.661  0.00  0.00    +0.000 A 
ATOM     24  C   UNL     1       6.503   4.876  15.916  0.00  0.00    +0.000 A 
ATOM     25  F   UNL     1       7.590   4.611  15.179  0.00  0.00    +0.000 F 
ATOM     26  C   UNL     1       5.436   3.985  15.900  0.00  0.00    +0.000 A 
ATOM     27  C   UNL     1       4.287   4.277  16.631  0.00  0.00    +0.000 A 
ENDBRANCH  20  21
BRANCH  20  28
ATOM     28  C   UNL     1       2.363   4.929  19.056  0.00  0.00    +0.000 A 
ATOM     29  C   UNL     1       2.794   5.013  20.393  0.00  0.00    +0.000 A 
ATOM     30  C   UNL     1       2.276   4.151  21.364  0.00  0.00    +0.000 A 
ATOM     31  C   UNL     1       1.326   3.202  21.006  0.00  0.00    +0.000 A 
ATOM     32  F   UNL     1       0.832   2.378  21.939  0.00  0.00    +0.000 F 
ATOM     33  C   UNL     1       0.882   3.099  19.696  0.00  0.00    +0.000 A 
ATOM     34  C   UNL     1       1.395   3.960  18.725  0.00  0.00    +0.000 A 
ENDBRANCH  20  28
ENDBRANCH  19  20
ENDBRANCH  18  19
ENDBRANCH   1  18
TORSDOF 10
ENDMDL
MODEL 3
REMARK VINA RESULT:      -8.4      0.741      1.111
REMARK  Name = 
REMARK  10 active torsions:
REMARK  status: ('A' for Active; 'I' for Inactive)
REMARK    1  A    between atoms: C_2  and  C_3
REMARK    2  A    between atoms: C_2  and  C_10
REMARK    3  A    between atoms: C_3  and  C_4
REMARK    4  A    between atoms: C_10  and  N_11
REMARK    5  A    between atoms: N_14  and  C_15
REMARK    6  A    between atoms: C_15  and  C_16
REMARK    7  A    between atoms: C_16  and  O_17
REMARK    8  A    between atoms: O_17  and  C_18
REMARK    9  A    between atoms: C_18  and  C_19
REMARK   10  A    between atoms: C_18  and  C_26
REMARK                            x       y       z     vdW  Elec       q    Type
REMARK                         _______ _______ _______ _____ _____    ______ ____
ROOT
ATOM      1  C   UNL     1       1.138   9.066  17.949  0.00  0.00    +0.000 C 
ENDROOT
BRANCH   1   5
ATOM      2  N   UNL     1      -0.919  10.989  20.885  0.00  0.00    +0.000 NA
ATOM      3  C   UNL     1      -0.894  11.351  19.451  0.00  0.00    +0.000 C 
ATOM      4  C   UNL     1       0.512  11.271  18.808  0.00  0.00    +0.000 C 
ATOM      5  N   UNL     1       1.272  10.029  19.046  0.00  0.00    +0.000 NA
ATOM      6  C   UNL     1       1.035   9.443  20.379  0.00  0.00    +0.000 C 
ATOM      7  C   UNL     1      -0.381   9.615  20.966  0.00  0.00    +0.000 C 
BRANCH   2   8
ATOM      8  C   UNL     1      -0.155  12.002  21.661  0.00  0.00    +0.000 C 
BRANCH   8  10
ATOM      9  O   UNL     1      -0.839  14.039  22.846  0.00  0.00    +0.000 OA
ATOM     10  C   UNL     1      -0.955  12.818  22.677  0.00  0.00    +0.000 C 
BRANCH  10  11
ATOM     11  C   UNL     1      -1.970  12.028  23.501  0.00  0.00    +0.000 C 
BRANCH  11  12
ATOM     12  C   UNL     1      -3.391  12.453  23.232  0.00  0.00    +0.000 A 
ATOM     13  C   UNL     1      -4.303  12.548  24.294  0.00  0.00    +0.000 A 
ATOM     14  C   UNL     1      -5.638  12.871  24.055  0.00  0.00    +0.000 A 
ATOM     15  C   UNL     1      -6.076  13.112  22.755  0.00  0.00    +0.000 A 
ATOM     16  C   UNL     1      -5.171  13.060  21.696  0.00  0.00    +0.000 A 
ATOM     17  C   UNL     1      -3.832  12.737  21.933  0.00  0.00    +0.000 A 
ENDBRANCH  11  12
ENDBRANCH  10  11
ENDBRANCH   8  10
ENDBRANCH   2   8
ENDBRANCH   1   5
BRANCH   1  18
ATOM     18  C   UNL     1       2.493   8.423  17.567  0.00  0.00    +0.000 C 
BRANCH  18  19
ATOM     19  O   UNL     1       2.926   7.375  18.449  0.00  0.00    +0.000 OA
BRANCH  19  20
ATOM     20  C   UNL     1       2.813   6.042  17.923  0.00  0.00    +0.000 C 
BRANCH  20  21
ATOM     21  C   UNL     1       4.150   5.654  17.307  0.00  0.00    +0.000 A 
ATOM     22  C   UNL     1       4.289   4.440  16.612  0.00  0.00    +0.000 A 
ATOM     23  C   UNL     1       5.549   3.997  16.215  0.00  0.00    +0.000 A 
ATOM     24  C   UNL     1       6.669   4.766  16.506  0.00  0.00    +0.000 A 
ATOM     25  F   UNL     1       7.884   4.318  16.167  0.00  0.00    +0.000 F 
ATOM     26  C   UNL     1       6.551   5.984  17.166  0.00  0.00    +0.000 A 
ATOM     27  C   UNL     1       5.293   6.435  17.558  0.00  0.00    +0.000 A 
ENDBRANCH  20  21
BRANCH  20  28
ATOM     28  C   UNL     1       2.327   5.068  18.998  0.00  0.00    +0.000 A 
ATOM     29  C   UNL     1       2.707   5.194  20.347  0.00  0.00    +0.000 A 
ATOM     30  C   UNL     1       2.206   4.318  21.314  0.00  0.00    +0.000 A 
ATOM     31  C   UNL     1       1.324   3.311  20.940  0.00  0.00    +0.000 A 
ATOM     32  F   UNL     1       0.845   2.474  21.869  0.00  0.00    +0.000 F 
ATOM     33  C   UNL     1       0.930   3.165  19.617  0.00  0.00    +0.000 A 
ATOM     34  C   UNL     1       1.427   4.041  18.650  0.00  0.00    +0.000 A 
ENDBRANCH  20  28
ENDBRANCH  19  20
ENDBRANCH  18  19
ENDBRANCH   1  18
TORSDOF 10
ENDMDL
MODEL 4
REMARK VINA RESULT:      -8.3      0.875      1.272
REMARK  Name = 
REMARK  10 active torsions:
REMARK  status: ('A' for Active; 'I' for Inactive)
REMARK    1  A    between atoms: C_2  and  C_3
REMARK    2  A    between atoms: C_2  and  C_10
REMARK    3  A    between atoms: C_3  and  C_4
REMARK    4  A    between atoms: C_10  and  N_11
REMARK    5  A    between atoms: N_14  and  C_15
REMARK    6  A    between atoms: C_15  and  C_16
REMARK    7  A    between atoms: C_16  and  O_17
REMARK    8  A    between atoms: O_17  and  C_18
REMARK    9  A    between atoms: C_18  and  C_19
REMARK   10  A    between atoms: C_18  and  C_26
REMARK                            x       y       z     vdW  Elec       q    Type
REMARK                         _______ _______ _______ _____ _____    ______ ____
ROOT
ATOM      1  C   UNL     1       2.287   9.911  18.182  0.00  0.00    +0.000 C 
ENDROOT
BRANCH   1   5
ATOM      2  N   UNL     1       0.665  11.691  21.462  0.00  0.00    +0.000 NA
ATOM      3  C   UNL     1       0.975  10.252  21.308  0.00  0.00    +0.000 C 
ATOM      4  C   UNL     1       0.586   9.670  19.926  0.00  0.00    +0.000 C 
ATOM      5  N   UNL     1       1.036  10.431  18.745  0.00  0.00    +0.000 NA
ATOM      6  C   UNL     1       1.045  11.891  18.955  0.00  0.00    +0.000 C 
ATOM      7  C   UNL     1       1.393  12.381  20.377  0.00  0.00    +0.000 C 
BRANCH   2   8
ATOM      8  C   UNL     1      -0.810  11.881  21.439  0.00  0.00    +0.000 C 
BRANCH   8  10
ATOM      9  O   UNL     1      -1.556  10.706  23.460  0.00  0.00    +0.000 OA
ATOM     10  C   UNL     1      -1.530  11.740  22.781  0.00  0.00    +0.000 C 
BRANCH  10  11
ATOM     11  C   UNL     1      -2.232  13.000  23.283  0.00  0.00    +0.000 C 
BRANCH  11  12
ATOM     12  C   UNL     1      -3.734  12.884  23.240  0.00  0.00    +0.000 A 
ATOM     13  C   UNL     1      -4.415  13.083  22.029  0.00  0.00    +0.000 A 
ATOM     14  C   UNL     1      -5.808  13.049  21.985  0.00  0.00    +0.000 A 
ATOM     15  C   UNL     1      -6.537  12.806  23.147  0.00  0.00    +0.000 A 
ATOM     16  C   UNL     1      -5.872  12.566  24.348  0.00  0.00    +0.000 A 
ATOM     17  C   UNL     1      -4.475  12.599  24.395  0.00  0.00    +0.000 A 
ENDBRANCH  11  12
ENDBRANCH  10  11
ENDBRANCH   8  10
ENDBRANCH   2   8
ENDBRANCH   1   5
BRANCH   1  18
ATOM     18  C   UNL     1       2.150   8.442  17.714  0.00  0.00    +0.000 C 
BRANCH  18  19
ATOM     19  O   UNL     1       2.946   7.503  18.454  0.00  0.00    +0.000 OA
BRANCH  19  20
ATOM     20  C   UNL     1       2.951   6.161  17.941  0.00  0.00    +0.000 C 
BRANCH  20  21
ATOM     21  C   UNL     1       4.358   5.834  17.461  0.00  0.00    +0.000 A 
ATOM     22  C   UNL     1       4.751   6.136  16.146  0.00  0.00    +0.000 A 
ATOM     23  C   UNL     1       5.967   5.670  15.650  0.00  0.00    +0.000 A 
ATOM     24  C   UNL     1       6.791   4.905  16.466  0.00  0.00    +0.000 A 
ATOM     25  F   UNL     1       7.936   4.415  15.974  0.00  0.00    +0.000 F 
ATOM     26  C   UNL     1       6.436   4.618  17.779  0.00  0.00    +0.000 A 
ATOM     27  C   UNL     1       5.225   5.090  18.282  0.00  0.00    +0.000 A 
ENDBRANCH  20  21
BRANCH  20  28
ATOM     28  C   UNL     1       2.413   5.174  18.980  0.00  0.00    +0.000 A 
ATOM     29  C   UNL     1       2.697   5.306  20.352  0.00  0.00    +0.000 A 
ATOM     30  C   UNL     1       2.149   4.418  21.282  0.00  0.00    +0.000 A 
ATOM     31  C   UNL     1       1.315   3.395  20.848  0.00  0.00    +0.000 A 
ATOM     32  F   UNL     1       0.791   2.546  21.742  0.00  0.00    +0.000 F 
ATOM     33  C   UNL     1       1.015   3.243  19.502  0.00  0.00    +0.000 A 
ATOM     34  C   UNL     1       1.559   4.131  18.571  0.00  0.00    +0.000 A 
ENDBRANCH  20  28
ENDBRANCH  19  20
ENDBRANCH  18  19
ENDBRANCH   1  18
TORSDOF 10
ENDMDL
MODEL 5
REMARK VINA RESULT:      -8.3      1.408      2.264
REMARK  Name = 
REMARK  10 active torsions:
REMARK  status: ('A' for Active; 'I' for Inactive)
REMARK    1  A    between atoms: C_2  and  C_3
REMARK    2  A    between atoms: C_2  and  C_10
REMARK    3  A    between atoms: C_3  and  C_4
REMARK    4  A    between atoms: C_10  and  N_11
REMARK    5  A    between atoms: N_14  and  C_15
REMARK    6  A    between atoms: C_15  and  C_16
REMARK    7  A    between atoms: C_16  and  O_17
REMARK    8  A    between atoms: O_17  and  C_18
REMARK    9  A    between atoms: C_18  and  C_19
REMARK   10  A    between atoms: C_18  and  C_26
REMARK                            x       y       z     vdW  Elec       q    Type
REMARK                         _______ _______ _______ _____ _____    ______ ____
ROOT
ATOM      1  C   UNL     1       2.166   9.614  18.215  0.00  0.00    +0.000 C 
ENDROOT
BRANCH   1   5
ATOM      2  N   UNL     1       0.601  11.216  21.610  0.00  0.00    +0.000 NA
ATOM      3  C   UNL     1       1.147   9.850  21.456  0.00  0.00    +0.000 C 
ATOM      4  C   UNL     1       0.728   9.151  20.140  0.00  0.00    +0.000 C 
ATOM      5  N   UNL     1       0.908   9.928  18.899  0.00  0.00    +0.000 NA
ATOM      6  C   UNL     1       0.676  11.375  19.074  0.00  0.00    +0.000 C 
ATOM      7  C   UNL     1       1.076  11.978  20.437  0.00  0.00    +0.000 C 
BRANCH   2   8
ATOM      8  C   UNL     1      -0.879  11.142  21.745  0.00  0.00    +0.000 C 
BRANCH   8  10
ATOM      9  O   UNL     1      -1.777  12.809  23.305  0.00  0.00    +0.000 OA
ATOM     10  C   UNL     1      -1.587  12.438  22.140  0.00  0.00    +0.000 C 
BRANCH  10  11
ATOM     11  C   UNL     1      -2.053  13.311  20.976  0.00  0.00    +0.000 C 
BRANCH  11  12
ATOM     12  C   UNL     1      -3.240  12.728  20.252  0.00  0.00    +0.000 A 
ATOM     13  C   UNL     1      -4.521  12.839  20.812  0.00  0.00    +0.000 A 
ATOM     14  C   UNL     1      -5.619  12.244  20.192  0.00  0.00    +0.000 A 
ATOM     15  C   UNL     1      -5.452  11.541  19.001  0.00  0.00    +0.000 A 
ATOM     16  C   UNL     1      -4.191  11.459  18.413  0.00  0.00    +0.000 A 
ATOM     17  C   UNL     1      -3.089  12.055  19.033  0.00  0.00    +0.000 A 
ENDBRANCH  11  12
ENDBRANCH  10  11
ENDBRANCH   8  10
ENDBRANCH   2   8
ENDBRANCH   1   5
BRANCH   1  18
ATOM     18  C   UNL     1       2.170   8.181  17.630  0.00  0.00    +0.000 C 
BRANCH  18  19
ATOM     19  O   UNL     1       2.888   7.217  18.417  0.00  0.00    +0.000 OA
BRANCH  19  20
ATOM     20  C   UNL     1       2.820   5.862  17.943  0.00  0.00    +0.000 C 
BRANCH  20  21
ATOM     21  C   UNL     1       4.180   5.482  17.374  0.00  0.00    +0.000 A 
ATOM     22  C   UNL     1       5.257   6.384  17.439  0.00  0.00    +0.000 A 
ATOM     23  C   UNL     1       6.441   6.117  16.756  0.00  0.00    +0.000 A 
ATOM     24  C   UNL     1       6.553   4.949  16.011  0.00  0.00    +0.000 A 
ATOM     25  F   UNL     1       7.673   4.716  15.314  0.00  0.00    +0.000 F 
ATOM     26  C   UNL     1       5.512   4.030  15.956  0.00  0.00    +0.000 A 
ATOM     27  C   UNL     1       4.329   4.289  16.645  0.00  0.00    +0.000 A 
ENDBRANCH  20  21
BRANCH  20  28
ATOM     28  C   UNL     1       2.332   4.919  19.045  0.00  0.00    +0.000 A 
ATOM     29  C   UNL     1       2.808   5.005  20.367  0.00  0.00    +0.000 A 
ATOM     30  C   UNL     1       2.305   4.163  21.362  0.00  0.00    +0.000 A 
ATOM     31  C   UNL     1       1.325   3.230  21.044  0.00  0.00    +0.000 A 
ATOM     32  F   UNL     1       0.845   2.425  22.000  0.00  0.00    +0.000 F 
ATOM     33  C   UNL     1       0.836   3.125  19.750  0.00  0.00    +0.000 A 
ATOM     34  C   UNL     1       1.334   3.967  18.755  0.00  0.00    +0.000 A 
ENDBRANCH  20  28
ENDBRANCH  19  20
ENDBRANCH  18  19
ENDBRANCH   1  18
TORSDOF 10
ENDMDL
MODEL 6
REMARK VINA RESULT:      -8.2      0.501      1.263
REMARK  Name = 
REMARK  10 active torsions:
REMARK  status: ('A' for Active; 'I' for Inactive)
REMARK    1  A    between atoms: C_2  and  C_3
REMARK    2  A    between atoms: C_2  and  C_10
REMARK    3  A    between atoms: C_3  and  C_4
REMARK    4  A    between atoms: C_10  and  N_11
REMARK    5  A    between atoms: N_14  and  C_15
REMARK    6  A    between atoms: C_15  and  C_16
REMARK    7  A    between atoms: C_16  and  O_17
REMARK    8  A    between atoms: O_17  and  C_18
REMARK    9  A    between atoms: C_18  and  C_19
REMARK   10  A    between atoms: C_18  and  C_26
REMARK                            x       y       z     vdW  Elec       q    Type
REMARK                         _______ _______ _______ _____ _____    ______ ____
ROOT
ATOM      1  C   UNL     1       1.655   9.295  18.072  0.00  0.00    +0.000 C 
ENDROOT
BRANCH   1   5
ATOM      2  N   UNL     1      -1.101  11.318  20.276  0.00  0.00    +0.000 NA
ATOM      3  C   UNL     1      -0.620  11.682  18.925  0.00  0.00    +0.000 C 
ATOM      4  C   UNL     1       0.909  11.528  18.740  0.00  0.00    +0.000 C 
ATOM      5  N   UNL     1       1.496  10.247  19.176  0.00  0.00    +0.000 NA
ATOM      6  C   UNL     1       0.834   9.671  20.362  0.00  0.00    +0.000 C 
ATOM      7  C   UNL     1      -0.684   9.917  20.492  0.00  0.00    +0.000 C 
BRANCH   2   8
ATOM      8  C   UNL     1      -0.561  12.287  21.267  0.00  0.00    +0.000 C 
BRANCH   8  10
ATOM      9  O   UNL     1      -0.927  11.132  23.401  0.00  0.00    +0.000 OA
ATOM     10  C   UNL     1      -1.072  12.143  22.701  0.00  0.00    +0.000 C 
BRANCH  10  11
ATOM     11  C   UNL     1      -1.784  13.368  23.270  0.00  0.00    +0.000 C 
BRANCH  11  12
ATOM     12  C   UNL     1      -3.284  13.225  23.260  0.00  0.00    +0.000 A 
ATOM     13  C   UNL     1      -3.953  12.810  24.421  0.00  0.00    +0.000 A 
ATOM     14  C   UNL     1      -5.332  12.604  24.410  0.00  0.00    +0.000 A 
ATOM     15  C   UNL     1      -6.060  12.818  23.241  0.00  0.00    +0.000 A 
ATOM     16  C   UNL     1      -5.413  13.270  22.092  0.00  0.00    +0.000 A 
ATOM     17  C   UNL     1      -4.031  13.478  22.102  0.00  0.00    +0.000 A 
ENDBRANCH  11  12
ENDBRANCH  10  11
ENDBRANCH   8  10
ENDBRANCH   2   8
ENDBRANCH   1   5
BRANCH   1  18
ATOM     18  C   UNL     1       1.781   7.836  18.574  0.00  0.00    +0.000 C 
BRANCH  18  19
ATOM     19  O   UNL     1       3.031   7.201  18.257  0.00  0.00    +0.000 OA
BRANCH  19  20
ATOM     20  C   UNL     1       2.931   5.847  17.785  0.00  0.00    +0.000 C 
BRANCH  20  21
ATOM     21  C   UNL     1       4.281   5.437  17.213  0.00  0.00    +0.000 A 
ATOM     22  C   UNL     1       5.328   6.371  17.116  0.00  0.00    +0.000 A 
ATOM     23  C   UNL     1       6.493   6.051  16.422  0.00  0.00    +0.000 A 
ATOM     24  C   UNL     1       6.617   4.801  15.830  0.00  0.00    +0.000 A 
ATOM     25  F   UNL     1       7.716   4.511  15.122  0.00  0.00    +0.000 F 
ATOM     26  C   UNL     1       5.606   3.852  15.938  0.00  0.00    +0.000 A 
ATOM     27  C   UNL     1       4.443   4.164  16.637  0.00  0.00    +0.000 A 
ENDBRANCH  20  21
BRANCH  20  28
ATOM     28  C   UNL     1       2.426   4.917  18.890  0.00  0.00    +0.000 A 
ATOM     29  C   UNL     1       2.904   4.998  20.211  0.00  0.00    +0.000 A 
ATOM     30  C   UNL     1       2.386   4.168  21.209  0.00  0.00    +0.000 A 
ATOM     31  C   UNL     1       1.388   3.253  20.894  0.00  0.00    +0.000 A 
ATOM     32  F   UNL     1       0.893   2.460  21.853  0.00  0.00    +0.000 F 
ATOM     33  C   UNL     1       0.895   3.155  19.601  0.00  0.00    +0.000 A 
ATOM     34  C   UNL     1       1.409   3.985  18.603  0.00  0.00    +0.000 A 
ENDBRANCH  20  28
ENDBRANCH  19  20
ENDBRANCH  18  19
ENDBRANCH   1  18
TORSDOF 10
ENDMDL
MODEL 7
REMARK VINA RESULT:      -8.2      1.236      4.174
REMARK  Name = 
REMARK  10 active torsions:
REMARK  status: ('A' for Active; 'I' for Inactive)
REMARK    1  A    between atoms: C_2  and  C_3
REMARK    2  A    between atoms: C_2  and  C_10
REMARK    3  A    between atoms: C_3  and  C_4
REMARK    4  A    between atoms: C_10  and  N_11
REMARK    5  A    between atoms: N_14  and  C_15
REMARK    6  A    between atoms: C_15  and  C_16
REMARK    7  A    between atoms: C_16  and  O_17
REMARK    8  A    between atoms: O_17  and  C_18
REMARK    9  A    between atoms: C_18  and  C_19
REMARK   10  A    between atoms: C_18  and  C_26
REMARK                            x       y       z     vdW  Elec       q    Type
REMARK                         _______ _______ _______ _____ _____    ______ ____
ROOT
ATOM      1  C   UNL     1       1.894   9.887  18.131  0.00  0.00    +0.000 C 
ENDROOT
BRANCH   1   5
ATOM      2  N   UNL     1       0.635  11.746  21.523  0.00  0.00    +0.000 NA
ATOM      3  C   UNL     1       0.745  10.286  21.312  0.00  0.00    +0.000 C 
ATOM      4  C   UNL     1       0.236   9.811  19.930  0.00  0.00    +0.000 C 
ATOM      5  N   UNL     1       0.744  10.547  18.757  0.00  0.00    +0.000 NA
ATOM      6  C   UNL     1       0.954  11.985  19.011  0.00  0.00    +0.000 C 
ATOM      7  C   UNL     1       1.412  12.373  20.433  0.00  0.00    +0.000 C 
BRANCH   2   8
ATOM      8  C   UNL     1      -0.801  12.131  21.562  0.00  0.00    +0.000 C 
BRANCH   8  10
ATOM      9  O   UNL     1      -0.771  13.503  23.596  0.00  0.00    +0.000 OA
ATOM     10  C   UNL     1      -1.327  12.641  22.904  0.00  0.00    +0.000 C 
BRANCH  10  11
ATOM     11  C   UNL     1      -2.647  12.027  23.367  0.00  0.00    +0.000 C 
BRANCH  11  12
ATOM     12  C   UNL     1      -3.833  12.908  23.068  0.00  0.00    +0.000 A 
ATOM     13  C   UNL     1      -4.494  12.792  21.836  0.00  0.00    +0.000 A 
ATOM     14  C   UNL     1      -5.548  13.647  21.514  0.00  0.00    +0.000 A 
ATOM     15  C   UNL     1      -5.960  14.620  22.422  0.00  0.00    +0.000 A 
ATOM     16  C   UNL     1      -5.338  14.717  23.666  0.00  0.00    +0.000 A 
ATOM     17  C   UNL     1      -4.282  13.862  23.991  0.00  0.00    +0.000 A 
ENDBRANCH  11  12
ENDBRANCH  10  11
ENDBRANCH   8  10
ENDBRANCH   2   8
ENDBRANCH   1   5
BRANCH   1  18
ATOM     18  C   UNL     1       2.054   8.421  18.603  0.00  0.00    +0.000 C 
BRANCH  18  19
ATOM     19  O   UNL     1       2.885   7.609  17.758  0.00  0.00    +0.000 OA
BRANCH  19  20
ATOM     20  C   UNL     1       3.581   6.542  18.422  0.00  0.00    +0.000 C 
BRANCH  20  21
ATOM     21  C   UNL     1       2.559   5.505  18.867  0.00  0.00    +0.000 A 
ATOM     22  C   UNL     1       2.278   5.322  20.233  0.00  0.00    +0.000 A 
ATOM     23  C   UNL     1       1.490   4.252  20.651  0.00  0.00    +0.000 A 
ATOM     24  C   UNL     1       0.980   3.367  19.709  0.00  0.00    +0.000 A 
ATOM     25  F   UNL     1       0.264   2.311  20.115  0.00  0.00    +0.000 F 
ATOM     26  C   UNL     1       1.222   3.546  18.351  0.00  0.00    +0.000 A 
ATOM     27  C   UNL     1       2.001   4.619  17.928  0.00  0.00    +0.000 A 
ENDBRANCH  20  21
BRANCH  20  28
ATOM     28  C   UNL     1       4.687   5.970  17.532  0.00  0.00    +0.000 A 
ATOM     29  C   UNL     1       4.790   6.297  16.167  0.00  0.00    +0.000 A 
ATOM     30  C   UNL     1       5.840   5.798  15.391  0.00  0.00    +0.000 A 
ATOM     31  C   UNL     1       6.793   4.971  15.974  0.00  0.00    +0.000 A 
ATOM     32  F   UNL     1       7.799   4.496  15.229  0.00  0.00    +0.000 F 
ATOM     33  C   UNL     1       6.718   4.635  17.318  0.00  0.00    +0.000 A 
ATOM     34  C   UNL     1       5.671   5.134  18.095  0.00  0.00    +0.000 A 
ENDBRANCH  20  28
ENDBRANCH  19  20
ENDBRANCH  18  19
ENDBRANCH   1  18
TORSDOF 10
ENDMDL
MODEL 8
REMARK VINA RESULT:      -8.1      0.539      1.235
REMARK  Name = 
REMARK  10 active torsions:
REMARK  status: ('A' for Active; 'I' for Inactive)
REMARK    1  A    between atoms: C_2  and  C_3
REMARK    2  A    between atoms: C_2  and  C_10
REMARK    3  A    between atoms: C_3  and  C_4
REMARK    4  A    between atoms: C_10  and  N_11
REMARK    5  A    between atoms: N_14  and  C_15
REMARK    6  A    between atoms: C_15  and  C_16
REMARK    7  A    between atoms: C_16  and  O_17
REMARK    8  A    between atoms: O_17  and  C_18
REMARK    9  A    between atoms: C_18  and  C_19
REMARK   10  A    between atoms: C_18  and  C_26
REMARK                            x       y       z     vdW  Elec       q    Type
REMARK                         _______ _______ _______ _____ _____    ______ ____
ROOT
ATOM      1  C   UNL     1       1.686   8.914  17.775  0.00  0.00    +0.000 C 
ENDROOT
BRANCH   1   5
ATOM      2  N   UNL     1      -0.680  11.257  20.113  0.00  0.00    +0.000 NA
ATOM      3  C   UNL     1      -0.085  11.633  18.811  0.00  0.00    +0.000 C 
ATOM      4  C   UNL     1       1.387  11.184  18.640  0.00  0.00    +0.000 C 
ATOM      5  N   UNL     1       1.683   9.775  18.962  0.00  0.00    +0.000 NA
ATOM      6  C   UNL     1       0.874   9.244  20.075  0.00  0.00    +0.000 C 
ATOM      7  C   UNL     1      -0.566   9.787  20.201  0.00  0.00    +0.000 C 
BRANCH   2   8
ATOM      8  C   UNL     1       0.009  12.000  21.201  0.00  0.00    +0.000 C 
BRANCH   8  10
ATOM      9  O   UNL     1      -0.583  10.947  23.337  0.00  0.00    +0.000 OA
ATOM     10  C   UNL     1      -0.639  11.928  22.584  0.00  0.00    +0.000 C 
BRANCH  10  11
ATOM     11  C   UNL     1      -1.377  13.189  23.030  0.00  0.00    +0.000 C 
BRANCH  11  12
ATOM     12  C   UNL     1      -2.854  13.132  22.735  0.00  0.00    +0.000 A 
ATOM     13  C   UNL     1      -3.331  13.537  21.480  0.00  0.00    +0.000 A 
ATOM     14  C   UNL     1      -4.700  13.558  21.215  0.00  0.00    +0.000 A 
ATOM     15  C   UNL     1      -5.607  13.165  22.196  0.00  0.00    +0.000 A 
ATOM     16  C   UNL     1      -5.143  12.722  23.433  0.00  0.00    +0.000 A 
ATOM     17  C   UNL     1      -3.772  12.699  23.702  0.00  0.00    +0.000 A 
ENDBRANCH  11  12
ENDBRANCH  10  11
ENDBRANCH   8  10
ENDBRANCH   2   8
ENDBRANCH   1   5
BRANCH   1  18
ATOM     18  C   UNL     1       2.996   8.100  17.648  0.00  0.00    +0.000 C 
BRANCH  18  19
ATOM     19  O   UNL     1       3.132   7.035  18.603  0.00  0.00    +0.000 OA
BRANCH  19  20
ATOM     20  C   UNL     1       2.899   5.713  18.089  0.00  0.00    +0.000 C 
BRANCH  20  21
ATOM     21  C   UNL     1       4.202   5.190  17.501  0.00  0.00    +0.000 A 
ATOM     22  C   UNL     1       5.410   5.329  18.207  0.00  0.00    +0.000 A 
ATOM     23  C   UNL     1       6.623   5.025  17.594  0.00  0.00    +0.000 A 
ATOM     24  C   UNL     1       6.633   4.579  16.278  0.00  0.00    +0.000 A 
ATOM     25  F   UNL     1       7.801   4.333  15.673  0.00  0.00    +0.000 F 
ATOM     26  C   UNL     1       5.448   4.406  15.570  0.00  0.00    +0.000 A 
ATOM     27  C   UNL     1       4.232   4.700  16.183  0.00  0.00    +0.000 A 
ENDBRANCH  20  21
BRANCH  20  28
ATOM     28  C   UNL     1       2.303   4.803  19.164  0.00  0.00    +0.000 A 
ATOM     29  C   UNL     1       1.362   3.803  18.858  0.00  0.00    +0.000 A 
ATOM     30  C   UNL     1       0.873   2.954  19.855  0.00  0.00    +0.000 A 
ATOM     31  C   UNL     1       1.320   3.100  21.163  0.00  0.00    +0.000 A 
ATOM     32  F   UNL     1       0.851   2.284  22.116  0.00  0.00    +0.000 F 
ATOM     33  C   UNL     1       2.250   4.076  21.493  0.00  0.00    +0.000 A 
ATOM     34  C   UNL     1       2.742   4.922  20.498  0.00  0.00    +0.000 A 
ENDBRANCH  20  28
ENDBRANCH  19  20
ENDBRANCH  18  19
ENDBRANCH   1  18
TORSDOF 10
ENDMDL
MODEL 9
REMARK VINA RESULT:      -8.1      1.182      1.617
REMARK  Name = 
REMARK  10 active torsions:
REMARK  status: ('A' for Active; 'I' for Inactive)
REMARK    1  A    between atoms: C_2  and  C_3
REMARK    2  A    between atoms: C_2  and  C_10
REMARK    3  A    between atoms: C_3  and  C_4
REMARK    4  A    between atoms: C_10  and  N_11
REMARK    5  A    between atoms: N_14  and  C_15
REMARK    6  A    between atoms: C_15  and  C_16
REMARK    7  A    between atoms: C_16  and  O_17
REMARK    8  A    between atoms: O_17  and  C_18
REMARK    9  A    between atoms: C_18  and  C_19
REMARK   10  A    between atoms: C_18  and  C_26
REMARK                            x       y       z     vdW  Elec       q    Type
REMARK                         _______ _______ _______ _____ _____    ______ ____
ROOT
ATOM      1  C   UNL     1       1.528   8.749  19.811  0.00  0.00    +0.000 C 
ENDROOT
BRANCH   1   5
ATOM      2  N   UNL     1      -1.569  11.345  20.281  0.00  0.00    +0.000 NA
ATOM      3  C   UNL     1      -1.250  10.573  19.060  0.00  0.00    +0.000 C 
ATOM      4  C   UNL     1       0.260  10.535  18.718  0.00  0.00    +0.000 C 
ATOM      5  N   UNL     1       1.172  10.172  19.819  0.00  0.00    +0.000 NA
ATOM      6  C   UNL     1       0.726  10.661  21.137  0.00  0.00    +0.000 C 
ATOM      7  C   UNL     1      -0.799  10.714  21.373  0.00  0.00    +0.000 C 
BRANCH   2   8
ATOM      8  C   UNL     1      -1.259  12.781  20.050  0.00  0.00    +0.000 C 
BRANCH   8  10
ATOM      9  O   UNL     1      -2.008  14.930  20.964  0.00  0.00    +0.000 OA
ATOM     10  C   UNL     1      -2.281  13.787  20.579  0.00  0.00    +0.000 C 
BRANCH  10  11
ATOM     11  C   UNL     1      -3.731  13.304  20.591  0.00  0.00    +0.000 C 
BRANCH  11  12
ATOM     12  C   UNL     1      -4.260  13.093  21.986  0.00  0.00    +0.000 A 
ATOM     13  C   UNL     1      -3.393  12.675  23.006  0.00  0.00    +0.000 A 
ATOM     14  C   UNL     1      -3.879  12.407  24.285  0.00  0.00    +0.000 A 
ATOM     15  C   UNL     1      -5.236  12.562  24.562  0.00  0.00    +0.000 A 
ATOM     16  C   UNL     1      -6.101  13.015  23.568  0.00  0.00    +0.000 A 
ATOM     17  C   UNL     1      -5.616  13.285  22.286  0.00  0.00    +0.000 A 
ENDBRANCH  11  12
ENDBRANCH  10  11
ENDBRANCH   8  10
ENDBRANCH   2   8
ENDBRANCH   1   5
BRANCH   1  18
ATOM     18  C   UNL     1       1.945   8.260  18.402  0.00  0.00    +0.000 C 
BRANCH  18  19
ATOM     19  O   UNL     1       3.097   7.401  18.386  0.00  0.00    +0.000 OA
BRANCH  19  20
ATOM     20  C   UNL     1       2.879   6.089  17.842  0.00  0.00    +0.000 C 
BRANCH  20  21
ATOM     21  C   UNL     1       4.155   5.638  17.147  0.00  0.00    +0.000 A 
ATOM     22  C   UNL     1       4.302   4.306  16.720  0.00  0.00    +0.000 A 
ATOM     23  C   UNL     1       5.534   3.847  16.258  0.00  0.00    +0.000 A 
ATOM     24  C   UNL     1       6.618   4.716  16.219  0.00  0.00    +0.000 A 
ATOM     25  F   UNL     1       7.814   4.262  15.822  0.00  0.00    +0.000 F 
ATOM     26  C   UNL     1       6.488   6.044  16.610  0.00  0.00    +0.000 A 
ATOM     27  C   UNL     1       5.256   6.510  17.063  0.00  0.00    +0.000 A 
ENDBRANCH  20  21
BRANCH  20  28
ATOM     28  C   UNL     1       2.394   5.121  18.924  0.00  0.00    +0.000 A 
ATOM     29  C   UNL     1       2.840   5.206  20.256  0.00  0.00    +0.000 A 
ATOM     30  C   UNL     1       2.341   4.339  21.232  0.00  0.00    +0.000 A 
ATOM     31  C   UNL     1       1.394   3.383  20.883  0.00  0.00    +0.000 A 
ATOM     32  F   UNL     1       0.917   2.555  21.821  0.00  0.00    +0.000 F 
ATOM     33  C   UNL     1       0.934   3.279  19.578  0.00  0.00    +0.000 A 
ATOM     34  C   UNL     1       1.429   4.146  18.603  0.00  0.00    +0.000 A 
ENDBRANCH  20  28
ENDBRANCH  19  20
ENDBRANCH  18  19
ENDBRANCH   1  18
TORSDOF 10
ENDMDL
