MODEL 1
REMARK VINA RESULT:      -7.3      0.000      0.000
REMARK  Name = 
REMARK  7 active torsions:
REMARK  status: ('A' for Active; 'I' for Inactive)
REMARK    1  A    between atoms: C_1  and  N_2
REMARK    2  A    between atoms: C_5  and  C_6
REMARK    3  A    between atoms: C_6  and  O_7
REMARK    4  A    between atoms: O_7  and  C_8
REMARK    5  A    between atoms: CA_11  and  C_12
REMARK    6  A    between atoms: C_12  and  O_13
REMARK    7  A    between atoms: C_16  and  C_17
REMARK                            x       y       z     vdW  Elec       q    Type
REMARK                         _______ _______ _______ _____ _____    ______ ____
ROOT
ATOM      1  C   UNL     1       4.214   3.440  17.836  0.00  0.00    +0.000 C 
ENDROOT
BRANCH   1   6
ATOM      2  C   UNL     1       1.528   2.501  21.997  0.00  0.00    +0.000 C 
ATOM      3  N   UNL     1       2.563   2.604  20.993  0.00  0.00    +0.000 N 
ATOM      4  N   UNL     1       3.788   2.125  21.284  0.00  0.00    +0.000 NA
ATOM      5  C   UNL     1       4.509   2.387  20.195  0.00  0.00    +0.000 A 
ATOM      6  C   UNL     1       3.754   3.020  19.190  0.00  0.00    +0.000 A 
ATOM      7  C   UNL     1       2.482   3.141  19.737  0.00  0.00    +0.000 A 
BRANCH   7   8
ATOM      8  C   UNL     1       1.243   3.704  19.155  0.00  0.00    +0.000 C 
ATOM      9  F   UNL     1       0.522   2.798  18.447  0.00  0.00    +0.000 F 
ATOM     10  F   UNL     1       0.411   4.199  20.103  0.00  0.00    +0.000 F 
ATOM     11  F   UNL     1       1.525   4.722  18.303  0.00  0.00    +0.000 F 
ENDBRANCH   7   8
ENDBRANCH   1   6
BRANCH   1  12
ATOM     12  O   UNL     1       5.485   4.088  17.918  0.00  0.00    +0.000 OA
BRANCH  12  13
ATOM     13  C   UNL     1       6.057   4.412  16.724  0.00  0.00    +0.000 A 
ATOM     14  C   UNL     1       5.636   3.671  15.624  0.00  0.00    +0.000 A 
ATOM     15  C   UNL     1       6.186   3.922  14.366  0.00  0.00    +0.000 A 
ATOM     16  CA  UNL     1       7.145   4.922  14.239  0.00  0.00    +0.000 A 
ATOM     17  N   UNL     1       7.561   5.671  15.296  0.00  0.00    +0.000 NA
ATOM     18  C   UNL     1       6.996   5.409  16.500  0.00  0.00    +0.000 A 
BRANCH  16  19
ATOM     19  C   UNL     1       7.785   5.225  12.908  0.00  0.00    +0.000 C 
BRANCH  19  20
ATOM     20  O   UNL     1       8.936   6.045  13.086  0.00  0.00    +0.000 OA
ATOM     21  H   UNL     1       9.257   6.231  12.181  0.00  0.00    +0.000 HD
ENDBRANCH  19  20
ENDBRANCH  16  19
ENDBRANCH  12  13
ENDBRANCH   1  12
TORSDOF 6
ENDMDL
MODEL 2
REMARK VINA RESULT:      -7.3      1.666      2.018
REMARK  Name = 
REMARK  7 active torsions:
REMARK  status: ('A' for Active; 'I' for Inactive)
REMARK    1  A    between atoms: C_1  and  N_2
REMARK    2  A    between atoms: C_5  and  C_6
REMARK    3  A    between atoms: C_6  and  O_7
REMARK    4  A    between atoms: O_7  and  C_8
REMARK    5  A    between atoms: CA_11  and  C_12
REMARK    6  A    between atoms: C_12  and  O_13
REMARK    7  A    between atoms: C_16  and  C_17
REMARK                            x       y       z     vdW  Elec       q    Type
REMARK                         _______ _______ _______ _____ _____    ______ ____
ROOT
ATOM      1  C   UNL     1       5.072   4.192  19.496  0.00  0.00    +0.000 C 
ENDROOT
BRANCH   1   6
ATOM      2  C   UNL     1       0.437   2.328  18.819  0.00  0.00    +0.000 C 
ATOM      3  N   UNL     1       1.844   2.651  18.726  0.00  0.00    +0.000 N 
ATOM      4  N   UNL     1       2.579   2.043  17.774  0.00  0.00    +0.000 NA
ATOM      5  C   UNL     1       3.810   2.517  17.959  0.00  0.00    +0.000 A 
ATOM      6  C   UNL     1       3.876   3.443  19.018  0.00  0.00    +0.000 A 
ATOM      7  C   UNL     1       2.572   3.518  19.494  0.00  0.00    +0.000 A 
BRANCH   7   8
ATOM      8  C   UNL     1       2.002   4.339  20.584  0.00  0.00    +0.000 C 
ATOM      9  F   UNL     1       0.645   4.359  20.590  0.00  0.00    +0.000 F 
ATOM     10  F   UNL     1       2.383   3.901  21.809  0.00  0.00    +0.000 F 
ATOM     11  F   UNL     1       2.405   5.631  20.482  0.00  0.00    +0.000 F 
ENDBRANCH   7   8
ENDBRANCH   1   6
BRANCH   1  12
ATOM     12  O   UNL     1       5.237   5.400  18.751  0.00  0.00    +0.000 OA
BRANCH  12  13
ATOM     13  C   UNL     1       5.813   5.259  17.524  0.00  0.00    +0.000 A 
ATOM     14  C   UNL     1       5.067   5.718  16.442  0.00  0.00    +0.000 A 
ATOM     15  C   UNL     1       5.573   5.594  15.147  0.00  0.00    +0.000 A 
ATOM     16  CA  UNL     1       6.824   5.015  14.966  0.00  0.00    +0.000 A 
ATOM     17  N   UNL     1       7.580   4.573  16.009  0.00  0.00    +0.000 NA
ATOM     18  C   UNL     1       7.064   4.722  17.253  0.00  0.00    +0.000 A 
BRANCH  16  19
ATOM     19  C   UNL     1       7.411   4.840  13.589  0.00  0.00    +0.000 C 
BRANCH  19  20
ATOM     20  O   UNL     1       8.454   5.786  13.370  0.00  0.00    +0.000 OA
ATOM     21  H   UNL     1       9.035   5.709  14.153  0.00  0.00    +0.000 HD
ENDBRANCH  19  20
ENDBRANCH  16  19
ENDBRANCH  12  13
ENDBRANCH   1  12
TORSDOF 6
ENDMDL
MODEL 3
REMARK VINA RESULT:      -7.0      2.074      2.866
REMARK  Name = 
REMARK  7 active torsions:
REMARK  status: ('A' for Active; 'I' for Inactive)
REMARK    1  A    between atoms: C_1  and  N_2
REMARK    2  A    between atoms: C_5  and  C_6
REMARK    3  A    between atoms: C_6  and  O_7
REMARK    4  A    between atoms: O_7  and  C_8
REMARK    5  A    between atoms: CA_11  and  C_12
REMARK    6  A    between atoms: C_12  and  O_13
REMARK    7  A    between atoms: C_16  and  C_17
REMARK                            x       y       z     vdW  Elec       q    Type
REMARK                         _______ _______ _______ _____ _____    ______ ____
ROOT
ATOM      1  C   UNL     1       4.346   3.798  17.466  0.00  0.00    +0.000 C 
ENDROOT
BRANCH   1   6
ATOM      2  C   UNL     1       1.789   2.436  21.591  0.00  0.00    +0.000 C 
ATOM      3  N   UNL     1       2.805   2.687  20.593  0.00  0.00    +0.000 N 
ATOM      4  N   UNL     1       4.077   2.345  20.873  0.00  0.00    +0.000 NA
ATOM      5  C   UNL     1       4.763   2.720  19.794  0.00  0.00    +0.000 A 
ATOM      6  C   UNL     1       3.938   3.290  18.805  0.00  0.00    +0.000 A 
ATOM      7  C   UNL     1       2.661   3.246  19.352  0.00  0.00    +0.000 A 
BRANCH   7   8
ATOM      8  C   UNL     1       1.366   3.677  18.782  0.00  0.00    +0.000 C 
ATOM      9  F   UNL     1       1.483   4.275  17.570  0.00  0.00    +0.000 F 
ATOM     10  F   UNL     1       0.509   2.639  18.617  0.00  0.00    +0.000 F 
ATOM     11  F   UNL     1       0.750   4.573  19.596  0.00  0.00    +0.000 F 
ENDBRANCH   7   8
ENDBRANCH   1   6
BRANCH   1  12
ATOM     12  O   UNL     1       5.771   3.830  17.355  0.00  0.00    +0.000 OA
BRANCH  12  13
ATOM     13  C   UNL     1       6.338   5.067  17.435  0.00  0.00    +0.000 A 
ATOM     14  C   UNL     1       7.282   5.243  18.442  0.00  0.00    +0.000 A 
ATOM     15  C   UNL     1       7.897   6.485  18.609  0.00  0.00    +0.000 A 
ATOM     16  CA  UNL     1       7.554   7.525  17.752  0.00  0.00    +0.000 A 
ATOM     17  N   UNL     1       6.646   7.374  16.750  0.00  0.00    +0.000 NA
ATOM     18  C   UNL     1       6.079   6.152  16.608  0.00  0.00    +0.000 A 
BRANCH  16  19
ATOM     19  C   UNL     1       8.174   8.892  17.897  0.00  0.00    +0.000 C 
BRANCH  19  20
ATOM     20  O   UNL     1       8.968   8.954  19.079  0.00  0.00    +0.000 OA
ATOM     21  H   UNL     1       9.556   9.723  18.949  0.00  0.00    +0.000 HD
ENDBRANCH  19  20
ENDBRANCH  16  19
ENDBRANCH  12  13
ENDBRANCH   1  12
TORSDOF 6
ENDMDL
MODEL 4
REMARK VINA RESULT:      -7.0      2.589      3.385
REMARK  Name = 
REMARK  7 active torsions:
REMARK  status: ('A' for Active; 'I' for Inactive)
REMARK    1  A    between atoms: C_1  and  N_2
REMARK    2  A    between atoms: C_5  and  C_6
REMARK    3  A    between atoms: C_6  and  O_7
REMARK    4  A    between atoms: O_7  and  C_8
REMARK    5  A    between atoms: CA_11  and  C_12
REMARK    6  A    between atoms: C_12  and  O_13
REMARK    7  A    between atoms: C_16  and  C_17
REMARK                            x       y       z     vdW  Elec       q    Type
REMARK                         _______ _______ _______ _____ _____    ______ ____
ROOT
ATOM      1  C   UNL     1       4.385   4.026  17.053  0.00  0.00    +0.000 C 
ENDROOT
BRANCH   1   6
ATOM      2  C   UNL     1       1.285   2.970  20.885  0.00  0.00    +0.000 C 
ATOM      3  N   UNL     1       2.103   2.927  19.693  0.00  0.00    +0.000 N 
ATOM      4  N   UNL     1       2.170   1.772  19.004  0.00  0.00    +0.000 NA
ATOM      5  C   UNL     1       3.004   2.037  17.999  0.00  0.00    +0.000 A 
ATOM      6  C   UNL     1       3.466   3.367  18.023  0.00  0.00    +0.000 A 
ATOM      7  C   UNL     1       2.852   3.928  19.137  0.00  0.00    +0.000 A 
BRANCH   7   8
ATOM      8  C   UNL     1       2.926   5.305  19.674  0.00  0.00    +0.000 C 
ATOM      9  F   UNL     1       4.194   5.720  19.918  0.00  0.00    +0.000 F 
ATOM     10  F   UNL     1       2.381   6.213  18.828  0.00  0.00    +0.000 F 
ATOM     11  F   UNL     1       2.254   5.405  20.849  0.00  0.00    +0.000 F 
ENDBRANCH   7   8
ENDBRANCH   1   6
BRANCH   1  12
ATOM     12  O   UNL     1       5.721   4.039  17.559  0.00  0.00    +0.000 OA
BRANCH  12  13
ATOM     13  C   UNL     1       6.325   5.261  17.591  0.00  0.00    +0.000 A 
ATOM     14  C   UNL     1       7.366   5.405  18.503  0.00  0.00    +0.000 A 
ATOM     15  C   UNL     1       8.025   6.630  18.616  0.00  0.00    +0.000 A 
ATOM     16  CA  UNL     1       7.627   7.686  17.803  0.00  0.00    +0.000 A 
ATOM     17  N   UNL     1       6.623   7.565  16.892  0.00  0.00    +0.000 NA
ATOM     18  C   UNL     1       6.014   6.358  16.799  0.00  0.00    +0.000 A 
BRANCH  16  19
ATOM     19  C   UNL     1       8.293   9.035  17.894  0.00  0.00    +0.000 C 
BRANCH  19  20
ATOM     20  O   UNL     1       9.021   9.147  19.114  0.00  0.00    +0.000 OA
ATOM     21  H   UNL     1       8.488   9.745  19.674  0.00  0.00    +0.000 HD
ENDBRANCH  19  20
ENDBRANCH  16  19
ENDBRANCH  12  13
ENDBRANCH   1  12
TORSDOF 6
ENDMDL
MODEL 5
REMARK VINA RESULT:      -7.0      2.326      2.790
REMARK  Name = 
REMARK  7 active torsions:
REMARK  status: ('A' for Active; 'I' for Inactive)
REMARK    1  A    between atoms: C_1  and  N_2
REMARK    2  A    between atoms: C_5  and  C_6
REMARK    3  A    between atoms: C_6  and  O_7
REMARK    4  A    between atoms: O_7  and  C_8
REMARK    5  A    between atoms: CA_11  and  C_12
REMARK    6  A    between atoms: C_12  and  O_13
REMARK    7  A    between atoms: C_16  and  C_17
REMARK                            x       y       z     vdW  Elec       q    Type
REMARK                         _______ _______ _______ _____ _____    ______ ____
ROOT
ATOM      1  C   UNL     1       3.603   4.159  17.507  0.00  0.00    +0.000 C 
ENDROOT
BRANCH   1   6
ATOM      2  C   UNL     1       1.629   7.633  20.580  0.00  0.00    +0.000 C 
ATOM      3  N   UNL     1       2.304   6.931  19.512  0.00  0.00    +0.000 N 
ATOM      4  N   UNL     1       2.863   7.655  18.522  0.00  0.00    +0.000 NA
ATOM      5  C   UNL     1       3.371   6.742  17.695  0.00  0.00    +0.000 A 
ATOM      6  C   UNL     1       3.159   5.427  18.152  0.00  0.00    +0.000 A 
ATOM      7  C   UNL     1       2.467   5.582  19.347  0.00  0.00    +0.000 A 
BRANCH   7   8
ATOM      8  C   UNL     1       1.982   4.566  20.307  0.00  0.00    +0.000 C 
ATOM      9  F   UNL     1       2.438   4.759  21.570  0.00  0.00    +0.000 F 
ATOM     10  F   UNL     1       0.629   4.543  20.387  0.00  0.00    +0.000 F 
ATOM     11  F   UNL     1       2.379   3.321  19.939  0.00  0.00    +0.000 F 
ENDBRANCH   7   8
ENDBRANCH   1   6
BRANCH   1  12
ATOM     12  O   UNL     1       5.017   4.000  17.637  0.00  0.00    +0.000 OA
BRANCH  12  13
ATOM     13  C   UNL     1       5.751   4.353  16.544  0.00  0.00    +0.000 A 
ATOM     14  C   UNL     1       5.377   3.764  15.340  0.00  0.00    +0.000 A 
ATOM     15  C   UNL     1       6.087   4.055  14.174  0.00  0.00    +0.000 A 
ATOM     16  CA  UNL     1       7.158   4.939  14.242  0.00  0.00    +0.000 A 
ATOM     17  N   UNL     1       7.533   5.541  15.404  0.00  0.00    +0.000 NA
ATOM     18  C   UNL     1       6.813   5.247  16.513  0.00  0.00    +0.000 A 
BRANCH  16  19
ATOM     19  C   UNL     1       7.971   5.276  13.018  0.00  0.00    +0.000 C 
BRANCH  19  20
ATOM     20  O   UNL     1       9.100   6.069  13.375  0.00  0.00    +0.000 OA
ATOM     21  H   UNL     1       9.784   5.848  12.712  0.00  0.00    +0.000 HD
ENDBRANCH  19  20
ENDBRANCH  16  19
ENDBRANCH  12  13
ENDBRANCH   1  12
TORSDOF 6
ENDMDL
MODEL 6
REMARK VINA RESULT:      -7.0      1.767      2.115
REMARK  Name = 
REMARK  7 active torsions:
REMARK  status: ('A' for Active; 'I' for Inactive)
REMARK    1  A    between atoms: C_1  and  N_2
REMARK    2  A    between atoms: C_5  and  C_6
REMARK    3  A    between atoms: C_6  and  O_7
REMARK    4  A    between atoms: O_7  and  C_8
REMARK    5  A    between atoms: CA_11  and  C_12
REMARK    6  A    between atoms: C_12  and  O_13
REMARK    7  A    between atoms: C_16  and  C_17
REMARK                            x       y       z     vdW  Elec       q    Type
REMARK                         _______ _______ _______ _____ _____    ______ ____
ROOT
ATOM      1  C   UNL     1       3.633   5.227  17.722  0.00  0.00    +0.000 C 
ENDROOT
BRANCH   1   6
ATOM      2  C   UNL     1       1.511   2.747  21.565  0.00  0.00    +0.000 C 
ATOM      3  N   UNL     1       2.035   3.750  20.665  0.00  0.00    +0.000 N 
ATOM      4  N   UNL     1       1.908   5.047  21.007  0.00  0.00    +0.000 NA
ATOM      5  C   UNL     1       2.450   5.710  19.987  0.00  0.00    +0.000 A 
ATOM      6  C   UNL     1       2.944   4.849  18.989  0.00  0.00    +0.000 A 
ATOM      7  C   UNL     1       2.667   3.572  19.464  0.00  0.00    +0.000 A 
BRANCH   7   8
ATOM      8  C   UNL     1       2.966   2.249  18.874  0.00  0.00    +0.000 C 
ATOM      9  F   UNL     1       4.077   1.667  19.392  0.00  0.00    +0.000 F 
ATOM     10  F   UNL     1       1.952   1.368  19.053  0.00  0.00    +0.000 F 
ATOM     11  F   UNL     1       3.172   2.349  17.536  0.00  0.00    +0.000 F 
ENDBRANCH   7   8
ENDBRANCH   1   6
BRANCH   1  12
ATOM     12  O   UNL     1       5.028   4.930  17.803  0.00  0.00    +0.000 OA
BRANCH  12  13
ATOM     13  C   UNL     1       5.703   4.958  16.620  0.00  0.00    +0.000 A 
ATOM     14  C   UNL     1       5.092   4.309  15.551  0.00  0.00    +0.000 A 
ATOM     15  C   UNL     1       5.725   4.271  14.308  0.00  0.00    +0.000 A 
ATOM     16  CA  UNL     1       6.959   4.895  14.162  0.00  0.00    +0.000 A 
ATOM     17  N   UNL     1       7.570   5.550  15.187  0.00  0.00    +0.000 NA
ATOM     18  C   UNL     1       6.921   5.578  16.376  0.00  0.00    +0.000 A 
BRANCH  16  19
ATOM     19  C   UNL     1       7.695   4.871  12.846  0.00  0.00    +0.000 C 
BRANCH  19  20
ATOM     20  O   UNL     1       7.059   3.975  11.938  0.00  0.00    +0.000 OA
ATOM     21  H   UNL     1       7.587   4.030  11.117  0.00  0.00    +0.000 HD
ENDBRANCH  19  20
ENDBRANCH  16  19
ENDBRANCH  12  13
ENDBRANCH   1  12
TORSDOF 6
ENDMDL
MODEL 7
REMARK VINA RESULT:      -7.0      1.821      2.241
REMARK  Name = 
REMARK  7 active torsions:
REMARK  status: ('A' for Active; 'I' for Inactive)
REMARK    1  A    between atoms: C_1  and  N_2
REMARK    2  A    between atoms: C_5  and  C_6
REMARK    3  A    between atoms: C_6  and  O_7
REMARK    4  A    between atoms: O_7  and  C_8
REMARK    5  A    between atoms: CA_11  and  C_12
REMARK    6  A    between atoms: C_12  and  O_13
REMARK    7  A    between atoms: C_16  and  C_17
REMARK                            x       y       z     vdW  Elec       q    Type
REMARK                         _______ _______ _______ _____ _____    ______ ____
ROOT
ATOM      1  C   UNL     1       5.161   4.259  19.493  0.00  0.00    +0.000 C 
ENDROOT
BRANCH   1   6
ATOM      2  C   UNL     1       0.502   2.425  18.910  0.00  0.00    +0.000 C 
ATOM      3  N   UNL     1       1.914   2.718  18.806  0.00  0.00    +0.000 N 
ATOM      4  N   UNL     1       2.647   2.031  17.908  0.00  0.00    +0.000 NA
ATOM      5  C   UNL     1       3.885   2.497  18.070  0.00  0.00    +0.000 A 
ATOM      6  C   UNL     1       3.957   3.497  19.059  0.00  0.00    +0.000 A 
ATOM      7  C   UNL     1       2.651   3.626  19.516  0.00  0.00    +0.000 A 
BRANCH   7   8
ATOM      8  C   UNL     1       2.085   4.534  20.538  0.00  0.00    +0.000 C 
ATOM      9  F   UNL     1       2.506   5.818  20.411  0.00  0.00    +0.000 F 
ATOM     10  F   UNL     1       0.730   4.570  20.497  0.00  0.00    +0.000 F 
ATOM     11  F   UNL     1       2.433   4.137  21.789  0.00  0.00    +0.000 F 
ENDBRANCH   7   8
ENDBRANCH   1   6
BRANCH   1  12
ATOM     12  O   UNL     1       5.326   5.432  18.693  0.00  0.00    +0.000 OA
BRANCH  12  13
ATOM     13  C   UNL     1       5.831   5.225  17.444  0.00  0.00    +0.000 A 
ATOM     14  C   UNL     1       5.005   5.584  16.383  0.00  0.00    +0.000 A 
ATOM     15  C   UNL     1       5.435   5.386  15.071  0.00  0.00    +0.000 A 
ATOM     16  CA  UNL     1       6.693   4.837  14.851  0.00  0.00    +0.000 A 
ATOM     17  N   UNL     1       7.526   4.493  15.870  0.00  0.00    +0.000 NA
ATOM     18  C   UNL     1       7.082   4.711  17.132  0.00  0.00    +0.000 A 
BRANCH  16  19
ATOM     19  C   UNL     1       7.202   4.586  13.454  0.00  0.00    +0.000 C 
BRANCH  19  20
ATOM     20  O   UNL     1       6.606   3.410  12.913  0.00  0.00    +0.000 OA
ATOM     21  H   UNL     1       7.084   3.246  12.076  0.00  0.00    +0.000 HD
ENDBRANCH  19  20
ENDBRANCH  16  19
ENDBRANCH  12  13
ENDBRANCH   1  12
TORSDOF 6
ENDMDL
MODEL 8
REMARK VINA RESULT:      -6.9      2.659      3.582
REMARK  Name = 
REMARK  7 active torsions:
REMARK  status: ('A' for Active; 'I' for Inactive)
REMARK    1  A    between atoms: C_1  and  N_2
REMARK    2  A    between atoms: C_5  and  C_6
REMARK    3  A    between atoms: C_6  and  O_7
REMARK    4  A    between atoms: O_7  and  C_8
REMARK    5  A    between atoms: CA_11  and  C_12
REMARK    6  A    between atoms: C_12  and  O_13
REMARK    7  A    between atoms: C_16  and  C_17
REMARK                            x       y       z     vdW  Elec       q    Type
REMARK                         _______ _______ _______ _____ _____    ______ ____
ROOT
ATOM      1  C   UNL     1       4.369   3.948  16.670  0.00  0.00    +0.000 C 
ENDROOT
BRANCH   1   6
ATOM      2  C   UNL     1       1.219   4.088  20.604  0.00  0.00    +0.000 C 
ATOM      3  N   UNL     1       2.056   4.407  19.468  0.00  0.00    +0.000 N 
ATOM      4  N   UNL     1       2.095   5.683  19.040  0.00  0.00    +0.000 NA
ATOM      5  C   UNL     1       2.912   5.651  17.988  0.00  0.00    +0.000 A 
ATOM      6  C   UNL     1       3.416   4.360  17.739  0.00  0.00    +0.000 A 
ATOM      7  C   UNL     1       2.846   3.569  18.730  0.00  0.00    +0.000 A 
BRANCH   7   8
ATOM      8  C   UNL     1       3.012   2.125  19.010  0.00  0.00    +0.000 C 
ATOM      9  F   UNL     1       1.838   1.481  19.228  0.00  0.00    +0.000 F 
ATOM     10  F   UNL     1       3.622   1.473  17.990  0.00  0.00    +0.000 F 
ATOM     11  F   UNL     1       3.772   1.929  20.117  0.00  0.00    +0.000 F 
ENDBRANCH   7   8
ENDBRANCH   1   6
BRANCH   1  12
ATOM     12  O   UNL     1       5.704   3.905  17.178  0.00  0.00    +0.000 OA
BRANCH  12  13
ATOM     13  C   UNL     1       6.314   5.115  17.327  0.00  0.00    +0.000 A 
ATOM     14  C   UNL     1       7.175   5.236  18.413  0.00  0.00    +0.000 A 
ATOM     15  C   UNL     1       7.826   6.447  18.651  0.00  0.00    +0.000 A 
ATOM     16  CA  UNL     1       7.602   7.513  17.786  0.00  0.00    +0.000 A 
ATOM     17  N   UNL     1       6.778   7.415  16.708  0.00  0.00    +0.000 NA
ATOM     18  C   UNL     1       6.173   6.220  16.498  0.00  0.00    +0.000 A 
BRANCH  16  19
ATOM     19  C   UNL     1       8.265   8.849  18.005  0.00  0.00    +0.000 C 
BRANCH  19  20
ATOM     20  O   UNL     1       9.042   8.827  19.200  0.00  0.00    +0.000 OA
ATOM     21  H   UNL     1       8.646   9.513  19.772  0.00  0.00    +0.000 HD
ENDBRANCH  19  20
ENDBRANCH  16  19
ENDBRANCH  12  13
ENDBRANCH   1  12
TORSDOF 6
ENDMDL
MODEL 9
REMARK VINA RESULT:      -6.9      1.723      2.068
REMARK  Name = 
REMARK  7 active torsions:
REMARK  status: ('A' for Active; 'I' for Inactive)
REMARK    1  A    between atoms: C_1  and  N_2
REMARK    2  A    between atoms: C_5  and  C_6
REMARK    3  A    between atoms: C_6  and  O_7
REMARK    4  A    between atoms: O_7  and  C_8
REMARK    5  A    between atoms: CA_11  and  C_12
REMARK    6  A    between atoms: C_12  and  O_13
REMARK    7  A    between atoms: C_16  and  C_17
REMARK                            x       y       z     vdW  Elec       q    Type
REMARK                         _______ _______ _______ _____ _____    ______ ____
ROOT
ATOM      1  C   UNL     1       3.682   5.318  17.663  0.00  0.00    +0.000 C 
ENDROOT
BRANCH   1   6
ATOM      2  C   UNL     1       1.317   2.712  21.273  0.00  0.00    +0.000 C 
ATOM      3  N   UNL     1       2.025   3.709  20.502  0.00  0.00    +0.000 N 
ATOM      4  N   UNL     1       2.333   4.879  21.096  0.00  0.00    +0.000 NA
ATOM      5  C   UNL     1       2.942   5.581  20.142  0.00  0.00    +0.000 A 
ATOM      6  C   UNL     1       3.046   4.866  18.933  0.00  0.00    +0.000 A 
ATOM      7  C   UNL     1       2.446   3.642  19.202  0.00  0.00    +0.000 A 
BRANCH   7   8
ATOM      8  C   UNL     1       2.267   2.457  18.334  0.00  0.00    +0.000 C 
ATOM      9  F   UNL     1       1.037   1.895  18.437  0.00  0.00    +0.000 F 
ATOM     10  F   UNL     1       2.444   2.752  17.022  0.00  0.00    +0.000 F 
ATOM     11  F   UNL     1       3.163   1.486  18.646  0.00  0.00    +0.000 F 
ENDBRANCH   7   8
ENDBRANCH   1   6
BRANCH   1  12
ATOM     12  O   UNL     1       5.079   5.016  17.668  0.00  0.00    +0.000 OA
BRANCH  12  13
ATOM     13  C   UNL     1       5.657   4.894  16.440  0.00  0.00    +0.000 A 
ATOM     14  C   UNL     1       4.900   4.248  15.468  0.00  0.00    +0.000 A 
ATOM     15  C   UNL     1       5.424   4.062  14.188  0.00  0.00    +0.000 A 
ATOM     16  CA  UNL     1       6.701   4.539  13.909  0.00  0.00    +0.000 A 
ATOM     17  N   UNL     1       7.455   5.189  14.837  0.00  0.00    +0.000 NA
ATOM     18  C   UNL     1       6.909   5.363  16.065  0.00  0.00    +0.000 A 
BRANCH  16  19
ATOM     19  C   UNL     1       7.323   4.351  12.549  0.00  0.00    +0.000 C 
BRANCH  19  20
ATOM     20  O   UNL     1       6.989   3.070  12.023  0.00  0.00    +0.000 OA
ATOM     21  H   UNL     1       7.320   3.079  11.103  0.00  0.00    +0.000 HD
ENDBRANCH  19  20
ENDBRANCH  16  19
ENDBRANCH  12  13
ENDBRANCH   1  12
TORSDOF 6
ENDMDL
