MODEL 1
REMARK VINA RESULT:      -7.8      0.000      0.000
REMARK  Name = 
REMARK  0 active torsions:
REMARK  status: ('A' for Active; 'I' for Inactive)
REMARK                            x       y       z     vdW  Elec       q    Type
REMARK                         _______ _______ _______ _____ _____    ______ ____
ROOT
ATOM      1  O   UNL     1       3.663   1.413  17.828  0.00  0.00    +0.000 OA
ATOM      2  C   UNL     1       3.703   2.636  17.905  0.00  0.00    +0.000 C 
ATOM      3  C   UNL     1       4.337   3.498  16.848  0.00  0.00    +0.000 C 
ATOM      4  C   UNL     1       4.941   4.750  17.492  0.00  0.00    +0.000 C 
ATOM      5  C   UNL     1       6.134   4.414  18.425  0.00  0.00    +0.000 C 
ATOM      6  C   UNL     1       6.782   5.670  19.004  0.00  0.00    +0.000 C 
ATOM      7  C   UNL     1       7.248   6.610  17.899  0.00  0.00    +0.000 C 
ATOM      8  C   UNL     1       6.114   6.955  16.940  0.00  0.00    +0.000 C 
ATOM      9  C   UNL     1       5.441   5.698  16.379  0.00  0.00    +0.000 C 
ATOM     10  O   UNL     1       3.923   5.478  18.211  0.00  0.00    +0.000 OA
ATOM     11  C   UNL     1       3.193   4.737  19.098  0.00  0.00    +0.000 A 
ATOM     12  C   UNL     1       2.562   5.443  20.122  0.00  0.00    +0.000 A 
ATOM     13  C   UNL     1       1.840   4.752  21.095  0.00  0.00    +0.000 A 
ATOM     14  C   UNL     1       1.745   3.365  21.029  0.00  0.00    +0.000 A 
ATOM     15  F   UNL     1       1.059   2.708  21.973  0.00  0.00    +0.000 F 
ATOM     16  C   UNL     1       2.347   2.651  20.000  0.00  0.00    +0.000 A 
ATOM     17  C   UNL     1       3.065   3.348  19.028  0.00  0.00    +0.000 A 
ENDROOT
TORSDOF 0
ENDMDL
MODEL 2
REMARK VINA RESULT:      -7.6      1.919      3.146
REMARK  Name = 
REMARK  0 active torsions:
REMARK  status: ('A' for Active; 'I' for Inactive)
REMARK                            x       y       z     vdW  Elec       q    Type
REMARK                         _______ _______ _______ _____ _____    ______ ____
ROOT
ATOM      1  O   UNL     1       2.115   6.783  18.202  0.00  0.00    +0.000 OA
ATOM      2  C   UNL     1       3.034   5.973  18.146  0.00  0.00    +0.000 C 
ATOM      3  C   UNL     1       4.478   6.386  18.057  0.00  0.00    +0.000 C 
ATOM      4  C   UNL     1       5.264   5.353  17.244  0.00  0.00    +0.000 C 
ATOM      5  C   UNL     1       4.824   5.317  15.757  0.00  0.00    +0.000 C 
ATOM      6  C   UNL     1       5.663   4.342  14.932  0.00  0.00    +0.000 C 
ATOM      7  C   UNL     1       7.146   4.682  15.017  0.00  0.00    +0.000 C 
ATOM      8  C   UNL     1       7.625   4.752  16.463  0.00  0.00    +0.000 C 
ATOM      9  C   UNL     1       6.768   5.705  17.301  0.00  0.00    +0.000 C 
ATOM     10  O   UNL     1       5.136   4.047  17.844  0.00  0.00    +0.000 OA
ATOM     11  C   UNL     1       3.854   3.645  18.095  0.00  0.00    +0.000 A 
ATOM     12  C   UNL     1       3.648   2.271  18.213  0.00  0.00    +0.000 A 
ATOM     13  C   UNL     1       2.359   1.779  18.419  0.00  0.00    +0.000 A 
ATOM     14  C   UNL     1       1.290   2.666  18.518  0.00  0.00    +0.000 A 
ATOM     15  F   UNL     1       0.055   2.185  18.705  0.00  0.00    +0.000 F 
ATOM     16  C   UNL     1       1.484   4.039  18.428  0.00  0.00    +0.000 A 
ATOM     17  C   UNL     1       2.777   4.524  18.225  0.00  0.00    +0.000 A 
ENDROOT
TORSDOF 0
ENDMDL
MODEL 3
REMARK VINA RESULT:      -7.6      2.716      5.218
REMARK  Name = 
REMARK  0 active torsions:
REMARK  status: ('A' for Active; 'I' for Inactive)
REMARK                            x       y       z     vdW  Elec       q    Type
REMARK                         _______ _______ _______ _____ _____    ______ ____
ROOT
ATOM      1  O   UNL     1       5.290   6.424  15.149  0.00  0.00    +0.000 OA
ATOM      2  C   UNL     1       5.197   5.624  16.075  0.00  0.00    +0.000 C 
ATOM      3  C   UNL     1       4.275   4.437  16.033  0.00  0.00    +0.000 C 
ATOM      4  C   UNL     1       3.772   4.122  17.446  0.00  0.00    +0.000 C 
ATOM      5  C   UNL     1       2.863   5.245  18.009  0.00  0.00    +0.000 C 
ATOM      6  C   UNL     1       2.300   4.892  19.386  0.00  0.00    +0.000 C 
ATOM      7  C   UNL     1       1.524   3.581  19.345  0.00  0.00    +0.000 C 
ATOM      8  C   UNL     1       2.369   2.447  18.776  0.00  0.00    +0.000 C 
ATOM      9  C   UNL     1       2.961   2.807  17.410  0.00  0.00    +0.000 C 
ATOM     10  O   UNL     1       4.888   3.880  18.329  0.00  0.00    +0.000 OA
ATOM     11  C   UNL     1       5.854   4.847  18.324  0.00  0.00    +0.000 A 
ATOM     12  C   UNL     1       6.671   4.910  19.452  0.00  0.00    +0.000 A 
ATOM     13  C   UNL     1       7.648   5.901  19.544  0.00  0.00    +0.000 A 
ATOM     14  C   UNL     1       7.807   6.812  18.504  0.00  0.00    +0.000 A 
ATOM     15  F   UNL     1       8.739   7.768  18.605  0.00  0.00    +0.000 F 
ATOM     16  C   UNL     1       7.017   6.745  17.362  0.00  0.00    +0.000 A 
ATOM     17  C   UNL     1       6.044   5.748  17.275  0.00  0.00    +0.000 A 
ENDROOT
TORSDOF 0
ENDMDL
MODEL 4
REMARK VINA RESULT:      -7.5      2.735      5.186
REMARK  Name = 
REMARK  0 active torsions:
REMARK  status: ('A' for Active; 'I' for Inactive)
REMARK                            x       y       z     vdW  Elec       q    Type
REMARK                         _______ _______ _______ _____ _____    ______ ____
ROOT
ATOM      1  O   UNL     1       4.669   4.463  15.337  0.00  0.00    +0.000 OA
ATOM      2  C   UNL     1       4.845   4.243  16.531  0.00  0.00    +0.000 C 
ATOM      3  C   UNL     1       4.155   3.124  17.262  0.00  0.00    +0.000 C 
ATOM      4  C   UNL     1       3.907   3.530  18.718  0.00  0.00    +0.000 C 
ATOM      5  C   UNL     1       2.893   4.697  18.838  0.00  0.00    +0.000 C 
ATOM      6  C   UNL     1       2.589   5.048  20.294  0.00  0.00    +0.000 C 
ATOM      7  C   UNL     1       2.064   3.836  21.055  0.00  0.00    +0.000 C 
ATOM      8  C   UNL     1       3.018   2.651  20.950  0.00  0.00    +0.000 C 
ATOM      9  C   UNL     1       3.350   2.315  19.493  0.00  0.00    +0.000 C 
ATOM     10  O   UNL     1       5.155   3.874  19.357  0.00  0.00    +0.000 OA
ATOM     11  C   UNL     1       5.921   4.785  18.686  0.00  0.00    +0.000 A 
ATOM     12  C   UNL     1       6.855   5.488  19.447  0.00  0.00    +0.000 A 
ATOM     13  C   UNL     1       7.640   6.471  18.843  0.00  0.00    +0.000 A 
ATOM     14  C   UNL     1       7.493   6.733  17.484  0.00  0.00    +0.000 A 
ATOM     15  F   UNL     1       8.243   7.685  16.915  0.00  0.00    +0.000 F 
ATOM     16  C   UNL     1       6.585   6.022  16.708  0.00  0.00    +0.000 A 
ATOM     17  C   UNL     1       5.806   5.038  17.318  0.00  0.00    +0.000 A 
ENDROOT
TORSDOF 0
ENDMDL
MODEL 5
REMARK VINA RESULT:      -7.5      2.953      5.537
REMARK  Name = 
REMARK  0 active torsions:
REMARK  status: ('A' for Active; 'I' for Inactive)
REMARK                            x       y       z     vdW  Elec       q    Type
REMARK                         _______ _______ _______ _____ _____    ______ ____
ROOT
ATOM      1  O   UNL     1       6.860   5.265  19.687  0.00  0.00    +0.000 OA
ATOM      2  C   UNL     1       5.828   5.096  19.046  0.00  0.00    +0.000 C 
ATOM      3  C   UNL     1       4.463   5.150  19.674  0.00  0.00    +0.000 C 
ATOM      4  C   UNL     1       3.518   4.189  18.944  0.00  0.00    +0.000 C 
ATOM      5  C   UNL     1       3.927   2.706  19.135  0.00  0.00    +0.000 C 
ATOM      6  C   UNL     1       2.938   1.747  18.471  0.00  0.00    +0.000 C 
ATOM      7  C   UNL     1       1.525   1.959  19.001  0.00  0.00    +0.000 C 
ATOM      8  C   UNL     1       1.083   3.411  18.856  0.00  0.00    +0.000 C 
ATOM      9  C   UNL     1       2.086   4.377  19.493  0.00  0.00    +0.000 C 
ATOM     10  O   UNL     1       3.456   4.524  17.541  0.00  0.00    +0.000 OA
ATOM     11  C   UNL     1       4.666   4.639  16.916  0.00  0.00    +0.000 A 
ATOM     12  C   UNL     1       4.663   4.483  15.531  0.00  0.00    +0.000 A 
ATOM     13  C   UNL     1       5.866   4.537  14.826  0.00  0.00    +0.000 A 
ATOM     14  C   UNL     1       7.058   4.756  15.511  0.00  0.00    +0.000 A 
ATOM     15  F   UNL     1       8.209   4.795  14.829  0.00  0.00    +0.000 F 
ATOM     16  C   UNL     1       7.073   4.938  16.889  0.00  0.00    +0.000 A 
ATOM     17  C   UNL     1       5.865   4.887  17.587  0.00  0.00    +0.000 A 
ENDROOT
TORSDOF 0
ENDMDL
MODEL 6
REMARK VINA RESULT:      -7.3      2.613      5.369
REMARK  Name = 
REMARK  0 active torsions:
REMARK  status: ('A' for Active; 'I' for Inactive)
REMARK                            x       y       z     vdW  Elec       q    Type
REMARK                         _______ _______ _______ _____ _____    ______ ____
ROOT
ATOM      1  O   UNL     1       2.917   7.893  17.626  0.00  0.00    +0.000 OA
ATOM      2  C   UNL     1       3.056   6.689  17.815  0.00  0.00    +0.000 C 
ATOM      3  C   UNL     1       1.894   5.736  17.879  0.00  0.00    +0.000 C 
ATOM      4  C   UNL     1       2.214   4.592  18.846  0.00  0.00    +0.000 C 
ATOM      5  C   UNL     1       2.341   5.079  20.313  0.00  0.00    +0.000 C 
ATOM      6  C   UNL     1       2.584   3.924  21.284  0.00  0.00    +0.000 C 
ATOM      7  C   UNL     1       1.476   2.882  21.187  0.00  0.00    +0.000 C 
ATOM      8  C   UNL     1       1.296   2.385  19.757  0.00  0.00    +0.000 C 
ATOM      9  C   UNL     1       1.083   3.541  18.775  0.00  0.00    +0.000 C 
ATOM     10  O   UNL     1       3.418   3.912  18.430  0.00  0.00    +0.000 OA
ATOM     11  C   UNL     1       4.496   4.722  18.207  0.00  0.00    +0.000 A 
ATOM     12  C   UNL     1       5.749   4.116  18.276  0.00  0.00    +0.000 A 
ATOM     13  C   UNL     1       6.901   4.886  18.109  0.00  0.00    +0.000 A 
ATOM     14  C   UNL     1       6.788   6.252  17.864  0.00  0.00    +0.000 A 
ATOM     15  F   UNL     1       7.898   6.986  17.716  0.00  0.00    +0.000 F 
ATOM     16  C   UNL     1       5.545   6.865  17.767  0.00  0.00    +0.000 A 
ATOM     17  C   UNL     1       4.397   6.088  17.931  0.00  0.00    +0.000 A 
ENDROOT
TORSDOF 0
ENDMDL
MODEL 7
REMARK VINA RESULT:      -7.2      3.001      5.088
REMARK  Name = 
REMARK  0 active torsions:
REMARK  status: ('A' for Active; 'I' for Inactive)
REMARK                            x       y       z     vdW  Elec       q    Type
REMARK                         _______ _______ _______ _____ _____    ______ ____
ROOT
ATOM      1  O   UNL     1       4.487   5.877  16.561  0.00  0.00    +0.000 OA
ATOM      2  C   UNL     1       4.031   5.772  17.695  0.00  0.00    +0.000 C 
ATOM      3  C   UNL     1       4.360   4.616  18.600  0.00  0.00    +0.000 C 
ATOM      4  C   UNL     1       3.164   4.308  19.505  0.00  0.00    +0.000 C 
ATOM      5  C   UNL     1       1.942   3.784  18.707  0.00  0.00    +0.000 C 
ATOM      6  C   UNL     1       0.777   3.406  19.622  0.00  0.00    +0.000 C 
ATOM      7  C   UNL     1       1.200   2.363  20.649  0.00  0.00    +0.000 C 
ATOM      8  C   UNL     1       2.415   2.822  21.448  0.00  0.00    +0.000 C 
ATOM      9  C   UNL     1       3.574   3.232  20.535  0.00  0.00    +0.000 C 
ATOM     10  O   UNL     1       2.807   5.479  20.271  0.00  0.00    +0.000 OA
ATOM     11  C   UNL     1       2.627   6.620  19.540  0.00  0.00    +0.000 A 
ATOM     12  C   UNL     1       1.846   7.614  20.129  0.00  0.00    +0.000 A 
ATOM     13  C   UNL     1       1.574   8.788  19.425  0.00  0.00    +0.000 A 
ATOM     14  C   UNL     1       2.096   8.961  18.146  0.00  0.00    +0.000 A 
ATOM     15  F   UNL     1       1.822  10.086  17.473  0.00  0.00    +0.000 F 
ATOM     16  C   UNL     1       2.898   7.991  17.558  0.00  0.00    +0.000 A 
ATOM     17  C   UNL     1       3.168   6.820  18.269  0.00  0.00    +0.000 A 
ENDROOT
TORSDOF 0
ENDMDL
MODEL 8
REMARK VINA RESULT:      -7.2      1.936      2.495
REMARK  Name = 
REMARK  0 active torsions:
REMARK  status: ('A' for Active; 'I' for Inactive)
REMARK                            x       y       z     vdW  Elec       q    Type
REMARK                         _______ _______ _______ _____ _____    ______ ____
ROOT
ATOM      1  O   UNL     1       2.867   2.935  20.059  0.00  0.00    +0.000 OA
ATOM      2  C   UNL     1       3.142   3.683  19.126  0.00  0.00    +0.000 C 
ATOM      3  C   UNL     1       3.762   3.193  17.847  0.00  0.00    +0.000 C 
ATOM      4  C   UNL     1       4.674   4.278  17.264  0.00  0.00    +0.000 C 
ATOM      5  C   UNL     1       5.908   4.554  18.162  0.00  0.00    +0.000 C 
ATOM      6  C   UNL     1       6.854   5.580  17.539  0.00  0.00    +0.000 C 
ATOM      7  C   UNL     1       7.319   5.134  16.158  0.00  0.00    +0.000 C 
ATOM      8  C   UNL     1       6.140   4.829  15.241  0.00  0.00    +0.000 C 
ATOM      9  C   UNL     1       5.172   3.824  15.873  0.00  0.00    +0.000 C 
ATOM     10  O   UNL     1       3.924   5.491  17.043  0.00  0.00    +0.000 OA
ATOM     11  C   UNL     1       3.207   5.936  18.119  0.00  0.00    +0.000 A 
ATOM     12  C   UNL     1       2.874   7.290  18.122  0.00  0.00    +0.000 A 
ATOM     13  C   UNL     1       2.187   7.830  19.210  0.00  0.00    +0.000 A 
ATOM     14  C   UNL     1       1.830   7.011  20.277  0.00  0.00    +0.000 A 
ATOM     15  F   UNL     1       1.180   7.540  21.321  0.00  0.00    +0.000 F 
ATOM     16  C   UNL     1       2.133   5.655  20.275  0.00  0.00    +0.000 A 
ATOM     17  C   UNL     1       2.818   5.120  19.183  0.00  0.00    +0.000 A 
ENDROOT
TORSDOF 0
ENDMDL
MODEL 9
REMARK VINA RESULT:      -7.1      2.607      3.503
REMARK  Name = 
REMARK  0 active torsions:
REMARK  status: ('A' for Active; 'I' for Inactive)
REMARK                            x       y       z     vdW  Elec       q    Type
REMARK                         _______ _______ _______ _____ _____    ______ ____
ROOT
ATOM      1  O   UNL     1       2.237   4.614  21.311  0.00  0.00    +0.000 OA
ATOM      2  C   UNL     1       2.577   4.935  20.177  0.00  0.00    +0.000 C 
ATOM      3  C   UNL     1       3.177   3.960  19.201  0.00  0.00    +0.000 C 
ATOM      4  C   UNL     1       4.172   4.685  18.290  0.00  0.00    +0.000 C 
ATOM      5  C   UNL     1       5.411   5.203  19.066  0.00  0.00    +0.000 C 
ATOM      6  C   UNL     1       6.438   5.857  18.141  0.00  0.00    +0.000 C 
ATOM      7  C   UNL     1       6.886   4.894  17.048  0.00  0.00    +0.000 C 
ATOM      8  C   UNL     1       5.700   4.338  16.267  0.00  0.00    +0.000 C 
ATOM      9  C   UNL     1       4.654   3.709  17.192  0.00  0.00    +0.000 C 
ATOM     10  O   UNL     1       3.515   5.769  17.599  0.00  0.00    +0.000 OA
ATOM     11  C   UNL     1       2.819   6.631  18.400  0.00  0.00    +0.000 A 
ATOM     12  C   UNL     1       2.584   7.904  17.880  0.00  0.00    +0.000 A 
ATOM     13  C   UNL     1       1.924   8.857  18.656  0.00  0.00    +0.000 A 
ATOM     14  C   UNL     1       1.495   8.526  19.938  0.00  0.00    +0.000 A 
ATOM     15  F   UNL     1       0.872   9.450  20.681  0.00  0.00    +0.000 F 
ATOM     16  C   UNL     1       1.699   7.254  20.459  0.00  0.00    +0.000 A 
ATOM     17  C   UNL     1       2.357   6.304  19.676  0.00  0.00    +0.000 A 
ENDROOT
TORSDOF 0
ENDMDL
