MODEL 1
REMARK VINA RESULT:      -6.3      0.000      0.000
REMARK  Name = 
REMARK  14 active torsions:
REMARK  status: ('A' for Active; 'I' for Inactive)
REMARK    1  A    between atoms: C_1  and  O_2
REMARK    2  A    between atoms: O_2  and  C_3
REMARK    3  A    between atoms: C_5  and  C_6
REMARK    4  A    between atoms: C_7  and  C_8
REMARK    5  A    between atoms: C_8  and  O_10
REMARK    6  A    between atoms: O_10  and  C_11
REMARK    7  A    between atoms: C_11  and  C_12
REMARK    8  A    between atoms: C_12  and  C_13
REMARK    9  A    between atoms: C_13  and  C_14
REMARK   10  A    between atoms: C_14  and  C_15
REMARK   11  A    between atoms: C_15  and  C_16
REMARK   12  A    between atoms: C_16  and  O_17
REMARK   13  A    between atoms: O_17  and  N_18
REMARK   14  A    between atoms: C_23  and  O_24
REMARK                            x       y       z     vdW  Elec       q    Type
REMARK                         _______ _______ _______ _____ _____    ______ ____
ROOT
ATOM      1  C   UNL     1       1.883   3.699  20.866  0.00  0.00    +0.000 C 
ATOM      2  O   UNL     1       1.265   2.996  21.643  0.00  0.00    +0.000 OA
ENDROOT
BRANCH   1   4
ATOM      3  C   UNL     1       2.373   5.960  19.978  0.00  0.00    +0.000 C 
ATOM      4  C   UNL     1       1.480   5.066  20.458  0.00  0.00    +0.000 C 
BRANCH   3   7
ATOM      5  C   UNL     1       1.163   9.629  19.952  0.00  0.00    +0.000 A 
ATOM      6  C   UNL     1       1.455   8.314  20.399  0.00  0.00    +0.000 A 
ATOM      7  C   UNL     1       2.056   7.357  19.556  0.00  0.00    +0.000 A 
ATOM      8  C   UNL     1       2.333   7.750  18.235  0.00  0.00    +0.000 A 
ATOM      9  C   UNL     1       2.046   9.042  17.779  0.00  0.00    +0.000 A 
ATOM     10  C   UNL     1       1.463   9.974  18.625  0.00  0.00    +0.000 A 
BRANCH   5  12
ATOM     11  C   UNL     1      -0.761  10.841  20.678  0.00  0.00    +0.000 C 
ATOM     12  O   UNL     1       0.600  10.457  20.899  0.00  0.00    +0.000 OA
ENDBRANCH   5  12
BRANCH  10  13
ATOM     13  O   UNL     1       1.198  11.215  18.111  0.00  0.00    +0.000 OA
ATOM     14  H   UNL     1       2.001  11.596  17.722  0.00  0.00    +0.000 HD
ENDBRANCH  10  13
ENDBRANCH   3   7
ENDBRANCH   1   4
BRANCH   1  15
ATOM     15  O   UNL     1       3.042   3.328  20.230  0.00  0.00    +0.000 OA
BRANCH  15  16
ATOM     16  C   UNL     1       2.838   2.504  19.056  0.00  0.00    +0.000 C 
BRANCH  16  17
ATOM     17  C   UNL     1       4.000   2.637  18.072  0.00  0.00    +0.000 C 
BRANCH  17  18
ATOM     18  C   UNL     1       3.738   3.715  17.015  0.00  0.00    +0.000 C 
BRANCH  18  19
ATOM     19  C   UNL     1       4.554   4.982  17.293  0.00  0.00    +0.000 C 
BRANCH  19  20
ATOM     20  C   UNL     1       5.997   4.647  17.665  0.00  0.00    +0.000 C 
BRANCH  20  21
ATOM     21  C   UNL     1       7.007   5.404  16.800  0.00  0.00    +0.000 C 
BRANCH  21  22
ATOM     22  O   UNL     1       6.386   5.648  15.542  0.00  0.00    +0.000 OA
BRANCH  22  23
ATOM     23  N   UNL     1       6.985   4.944  14.473  0.00  0.00    +0.000 N 
ATOM     24  O   UNL     1       7.921   5.511  13.884  0.00  0.00    +0.000 OA
ATOM     25  O   UNL     1       6.486   3.846  14.275  0.00  0.00    +0.000 OA
ENDBRANCH  22  23
ENDBRANCH  21  22
ENDBRANCH  20  21
ENDBRANCH  19  20
ENDBRANCH  18  19
ENDBRANCH  17  18
ENDBRANCH  16  17
ENDBRANCH  15  16
ENDBRANCH   1  15
TORSDOF 13
ENDMDL
MODEL 2
REMARK VINA RESULT:      -6.3      5.455      7.765
REMARK  Name = 
REMARK  14 active torsions:
REMARK  status: ('A' for Active; 'I' for Inactive)
REMARK    1  A    between atoms: C_1  and  O_2
REMARK    2  A    between atoms: O_2  and  C_3
REMARK    3  A    between atoms: C_5  and  C_6
REMARK    4  A    between atoms: C_7  and  C_8
REMARK    5  A    between atoms: C_8  and  O_10
REMARK    6  A    between atoms: O_10  and  C_11
REMARK    7  A    between atoms: C_11  and  C_12
REMARK    8  A    between atoms: C_12  and  C_13
REMARK    9  A    between atoms: C_13  and  C_14
REMARK   10  A    between atoms: C_14  and  C_15
REMARK   11  A    between atoms: C_15  and  C_16
REMARK   12  A    between atoms: C_16  and  O_17
REMARK   13  A    between atoms: O_17  and  N_18
REMARK   14  A    between atoms: C_23  and  O_24
REMARK                            x       y       z     vdW  Elec       q    Type
REMARK                         _______ _______ _______ _____ _____    ______ ____
ROOT
ATOM      1  C   UNL     1       7.515   6.892  17.662  0.00  0.00    +0.000 C 
ATOM      2  O   UNL     1       7.093   6.937  16.522  0.00  0.00    +0.000 OA
ENDROOT
BRANCH   1   4
ATOM      3  C   UNL     1       8.235   9.256  17.848  0.00  0.00    +0.000 C 
ATOM      4  C   UNL     1       8.220   8.000  18.348  0.00  0.00    +0.000 C 
BRANCH   3   7
ATOM      5  C   UNL     1       9.754  12.756  18.456  0.00  0.00    +0.000 A 
ATOM      6  C   UNL     1       9.077  11.676  17.833  0.00  0.00    +0.000 A 
ATOM      7  C   UNL     1       8.929  10.424  18.467  0.00  0.00    +0.000 A 
ATOM      8  C   UNL     1       9.506  10.279  19.740  0.00  0.00    +0.000 A 
ATOM      9  C   UNL     1      10.181  11.335  20.365  0.00  0.00    +0.000 A 
ATOM     10  C   UNL     1      10.309  12.562  19.731  0.00  0.00    +0.000 A 
BRANCH   5  12
ATOM     11  C   UNL     1       8.967  14.994  18.187  0.00  0.00    +0.000 C 
ATOM     12  O   UNL     1       9.794  13.922  17.722  0.00  0.00    +0.000 OA
ENDBRANCH   5  12
BRANCH  10  13
ATOM     13  O   UNL     1      10.991  13.547  20.393  0.00  0.00    +0.000 OA
ATOM     14  H   UNL     1      10.760  14.417  20.032  0.00  0.00    +0.000 HD
ENDBRANCH  10  13
ENDBRANCH   3   7
ENDBRANCH   1   4
BRANCH   1  15
ATOM     15  O   UNL     1       7.422   5.797  18.486  0.00  0.00    +0.000 OA
BRANCH  15  16
ATOM     16  C   UNL     1       6.070   5.468  18.887  0.00  0.00    +0.000 C 
BRANCH  16  17
ATOM     17  C   UNL     1       5.527   4.279  18.094  0.00  0.00    +0.000 C 
BRANCH  17  18
ATOM     18  C   UNL     1       4.479   3.491  18.886  0.00  0.00    +0.000 C 
BRANCH  18  19
ATOM     19  C   UNL     1       3.478   2.797  17.954  0.00  0.00    +0.000 C 
BRANCH  19  20
ATOM     20  C   UNL     1       2.059   3.317  18.173  0.00  0.00    +0.000 C 
BRANCH  20  21
ATOM     21  C   UNL     1       1.293   2.485  19.203  0.00  0.00    +0.000 C 
BRANCH  21  22
ATOM     22  O   UNL     1       0.796   3.386  20.189  0.00  0.00    +0.000 OA
BRANCH  22  23
ATOM     23  N   UNL     1       1.666   3.549  21.291  0.00  0.00    +0.000 N 
ATOM     24  O   UNL     1       2.313   4.609  21.341  0.00  0.00    +0.000 OA
ATOM     25  O   UNL     1       1.657   2.599  22.060  0.00  0.00    +0.000 OA
ENDBRANCH  22  23
ENDBRANCH  21  22
ENDBRANCH  20  21
ENDBRANCH  19  20
ENDBRANCH  18  19
ENDBRANCH  17  18
ENDBRANCH  16  17
ENDBRANCH  15  16
ENDBRANCH   1  15
TORSDOF 13
ENDMDL
MODEL 3
REMARK VINA RESULT:      -6.3      1.891      2.016
REMARK  Name = 
REMARK  14 active torsions:
REMARK  status: ('A' for Active; 'I' for Inactive)
REMARK    1  A    between atoms: C_1  and  O_2
REMARK    2  A    between atoms: O_2  and  C_3
REMARK    3  A    between atoms: C_5  and  C_6
REMARK    4  A    between atoms: C_7  and  C_8
REMARK    5  A    between atoms: C_8  and  O_10
REMARK    6  A    between atoms: O_10  and  C_11
REMARK    7  A    between atoms: C_11  and  C_12
REMARK    8  A    between atoms: C_12  and  C_13
REMARK    9  A    between atoms: C_13  and  C_14
REMARK   10  A    between atoms: C_14  and  C_15
REMARK   11  A    between atoms: C_15  and  C_16
REMARK   12  A    between atoms: C_16  and  O_17
REMARK   13  A    between atoms: O_17  and  N_18
REMARK   14  A    between atoms: C_23  and  O_24
REMARK                            x       y       z     vdW  Elec       q    Type
REMARK                         _______ _______ _______ _____ _____    ______ ____
ROOT
ATOM      1  C   UNL     1       1.968   3.284  21.000  0.00  0.00    +0.000 C 
ATOM      2  O   UNL     1       2.033   3.190  22.210  0.00  0.00    +0.000 OA
ENDROOT
BRANCH   1   4
ATOM      3  C   UNL     1       2.496   5.618  20.353  0.00  0.00    +0.000 C 
ATOM      4  C   UNL     1       1.687   4.539  20.262  0.00  0.00    +0.000 C 
BRANCH   3   7
ATOM      5  C   UNL     1       1.332   9.198  19.487  0.00  0.00    +0.000 A 
ATOM      6  C   UNL     1       1.517   7.980  20.190  0.00  0.00    +0.000 A 
ATOM      7  C   UNL     1       2.281   6.921  19.657  0.00  0.00    +0.000 A 
ATOM      8  C   UNL     1       2.835   7.110  18.379  0.00  0.00    +0.000 A 
ATOM      9  C   UNL     1       2.656   8.306  17.672  0.00  0.00    +0.000 A 
ATOM     10  C   UNL     1       1.909   9.341  18.216  0.00  0.00    +0.000 A 
BRANCH   5  12
ATOM     11  C   UNL     1       0.323   9.897  21.535  0.00  0.00    +0.000 C 
ATOM     12  O   UNL     1       0.582  10.147  20.150  0.00  0.00    +0.000 OA
ENDBRANCH   5  12
BRANCH  10  13
ATOM     13  O   UNL     1       1.764  10.477  17.466  0.00  0.00    +0.000 OA
ATOM     14  H   UNL     1       2.348  10.446  16.692  0.00  0.00    +0.000 HD
ENDBRANCH  10  13
ENDBRANCH   3   7
ENDBRANCH   1   4
BRANCH   1  15
ATOM     15  O   UNL     1       2.124   2.236  20.125  0.00  0.00    +0.000 OA
BRANCH  15  16
ATOM     16  C   UNL     1       3.483   2.044  19.665  0.00  0.00    +0.000 C 
BRANCH  16  17
ATOM     17  C   UNL     1       3.563   2.055  18.139  0.00  0.00    +0.000 C 
BRANCH  17  18
ATOM     18  C   UNL     1       2.751   3.201  17.528  0.00  0.00    +0.000 C 
BRANCH  18  19
ATOM     19  C   UNL     1       3.628   4.111  16.662  0.00  0.00    +0.000 C 
BRANCH  19  20
ATOM     20  C   UNL     1       5.088   4.071  17.110  0.00  0.00    +0.000 C 
BRANCH  20  21
ATOM     21  C   UNL     1       5.750   5.448  17.045  0.00  0.00    +0.000 C 
BRANCH  21  22
ATOM     22  O   UNL     1       5.999   5.861  18.385  0.00  0.00    +0.000 OA
BRANCH  22  23
ATOM     23  N   UNL     1       7.375   5.962  18.696  0.00  0.00    +0.000 N 
ATOM     24  O   UNL     1       7.996   6.909  18.185  0.00  0.00    +0.000 OA
ATOM     25  O   UNL     1       7.768   5.079  19.445  0.00  0.00    +0.000 OA
ENDBRANCH  22  23
ENDBRANCH  21  22
ENDBRANCH  20  21
ENDBRANCH  19  20
ENDBRANCH  18  19
ENDBRANCH  17  18
ENDBRANCH  16  17
ENDBRANCH  15  16
ENDBRANCH   1  15
TORSDOF 13
ENDMDL
MODEL 4
REMARK VINA RESULT:      -6.3      1.298      1.758
REMARK  Name = 
REMARK  14 active torsions:
REMARK  status: ('A' for Active; 'I' for Inactive)
REMARK    1  A    between atoms: C_1  and  O_2
REMARK    2  A    between atoms: O_2  and  C_3
REMARK    3  A    between atoms: C_5  and  C_6
REMARK    4  A    between atoms: C_7  and  C_8
REMARK    5  A    between atoms: C_8  and  O_10
REMARK    6  A    between atoms: O_10  and  C_11
REMARK    7  A    between atoms: C_11  and  C_12
REMARK    8  A    between atoms: C_12  and  C_13
REMARK    9  A    between atoms: C_13  and  C_14
REMARK   10  A    between atoms: C_14  and  C_15
REMARK   11  A    between atoms: C_15  and  C_16
REMARK   12  A    between atoms: C_16  and  O_17
REMARK   13  A    between atoms: O_17  and  N_18
REMARK   14  A    between atoms: C_23  and  O_24
REMARK                            x       y       z     vdW  Elec       q    Type
REMARK                         _______ _______ _______ _____ _____    ______ ____
ROOT
ATOM      1  C   UNL     1       1.932   3.506  21.008  0.00  0.00    +0.000 C 
ATOM      2  O   UNL     1       2.224   3.477  22.188  0.00  0.00    +0.000 OA
ENDROOT
BRANCH   1   4
ATOM      3  C   UNL     1       1.833   5.958  20.663  0.00  0.00    +0.000 C 
ATOM      4  C   UNL     1       1.980   4.715  20.152  0.00  0.00    +0.000 C 
BRANCH   3   7
ATOM      5  C   UNL     1       1.256   9.594  19.491  0.00  0.00    +0.000 A 
ATOM      6  C   UNL     1       1.217   8.415  20.279  0.00  0.00    +0.000 A 
ATOM      7  C   UNL     1       1.855   7.225  19.873  0.00  0.00    +0.000 A 
ATOM      8  C   UNL     1       2.516   7.243  18.633  0.00  0.00    +0.000 A 
ATOM      9  C   UNL     1       2.560   8.398  17.842  0.00  0.00    +0.000 A 
ATOM     10  C   UNL     1       1.933   9.563  18.262  0.00  0.00    +0.000 A 
BRANCH   5  12
ATOM     11  C   UNL     1      -0.172  10.436  21.209  0.00  0.00    +0.000 C 
ATOM     12  O   UNL     1       0.607  10.682  20.034  0.00  0.00    +0.000 OA
ENDBRANCH   5  12
BRANCH  10  13
ATOM     13  O   UNL     1       2.005  10.652  17.434  0.00  0.00    +0.000 OA
ATOM     14  H   UNL     1       2.817  11.153  17.608  0.00  0.00    +0.000 HD
ENDBRANCH  10  13
ENDBRANCH   3   7
ENDBRANCH   1   4
BRANCH   1  15
ATOM     15  O   UNL     1       1.491   2.423  20.286  0.00  0.00    +0.000 OA
BRANCH  15  16
ATOM     16  C   UNL     1       0.820   2.766  19.050  0.00  0.00    +0.000 C 
BRANCH  16  17
ATOM     17  C   UNL     1       1.822   3.043  17.930  0.00  0.00    +0.000 C 
BRANCH  17  18
ATOM     18  C   UNL     1       2.922   1.980  17.865  0.00  0.00    +0.000 C 
BRANCH  18  19
ATOM     19  C   UNL     1       4.308   2.615  17.713  0.00  0.00    +0.000 C 
BRANCH  19  20
ATOM     20  C   UNL     1       4.208   4.101  17.375  0.00  0.00    +0.000 C 
BRANCH  20  21
ATOM     21  C   UNL     1       4.981   4.458  16.105  0.00  0.00    +0.000 C 
BRANCH  21  22
ATOM     22  O   UNL     1       6.285   3.900  16.233  0.00  0.00    +0.000 OA
BRANCH  22  23
ATOM     23  N   UNL     1       7.219   4.783  16.822  0.00  0.00    +0.000 N 
ATOM     24  O   UNL     1       7.719   4.429  17.903  0.00  0.00    +0.000 OA
ATOM     25  O   UNL     1       7.408   5.796  16.165  0.00  0.00    +0.000 OA
ENDBRANCH  22  23
ENDBRANCH  21  22
ENDBRANCH  20  21
ENDBRANCH  19  20
ENDBRANCH  18  19
ENDBRANCH  17  18
ENDBRANCH  16  17
ENDBRANCH  15  16
ENDBRANCH   1  15
TORSDOF 13
ENDMDL
MODEL 5
REMARK VINA RESULT:      -6.2      1.142      1.421
REMARK  Name = 
REMARK  14 active torsions:
REMARK  status: ('A' for Active; 'I' for Inactive)
REMARK    1  A    between atoms: C_1  and  O_2
REMARK    2  A    between atoms: O_2  and  C_3
REMARK    3  A    between atoms: C_5  and  C_6
REMARK    4  A    between atoms: C_7  and  C_8
REMARK    5  A    between atoms: C_8  and  O_10
REMARK    6  A    between atoms: O_10  and  C_11
REMARK    7  A    between atoms: C_11  and  C_12
REMARK    8  A    between atoms: C_12  and  C_13
REMARK    9  A    between atoms: C_13  and  C_14
REMARK   10  A    between atoms: C_14  and  C_15
REMARK   11  A    between atoms: C_15  and  C_16
REMARK   12  A    between atoms: C_16  and  O_17
REMARK   13  A    between atoms: O_17  and  N_18
REMARK   14  A    between atoms: C_23  and  O_24
REMARK                            x       y       z     vdW  Elec       q    Type
REMARK                         _______ _______ _______ _____ _____    ______ ____
ROOT
ATOM      1  C   UNL     1       2.014   3.459  21.181  0.00  0.00    +0.000 C 
ATOM      2  O   UNL     1       1.453   2.847  22.069  0.00  0.00    +0.000 OA
ENDROOT
BRANCH   1   4
ATOM      3  C   UNL     1       2.492   5.692  20.219  0.00  0.00    +0.000 C 
ATOM      4  C   UNL     1       1.597   4.788  20.673  0.00  0.00    +0.000 C 
BRANCH   3   7
ATOM      5  C   UNL     1       1.184   9.315  19.925  0.00  0.00    +0.000 A 
ATOM      6  C   UNL     1       1.487   8.036  20.459  0.00  0.00    +0.000 A 
ATOM      7  C   UNL     1       2.160   7.053  19.704  0.00  0.00    +0.000 A 
ATOM      8  C   UNL     1       2.498   7.383  18.380  0.00  0.00    +0.000 A 
ATOM      9  C   UNL     1       2.201   8.639  17.837  0.00  0.00    +0.000 A 
ATOM     10  C   UNL     1       1.546   9.597  18.598  0.00  0.00    +0.000 A 
BRANCH   5  12
ATOM     11  C   UNL     1      -0.724  10.678  20.369  0.00  0.00    +0.000 C 
ATOM     12  O   UNL     1       0.547  10.176  20.793  0.00  0.00    +0.000 OA
ENDBRANCH   5  12
BRANCH  10  13
ATOM     13  O   UNL     1       1.276  10.800  18.002  0.00  0.00    +0.000 OA
ATOM     14  H   UNL     1       0.700  11.335  18.571  0.00  0.00    +0.000 HD
ENDBRANCH  10  13
ENDBRANCH   3   7
ENDBRANCH   1   4
BRANCH   1  15
ATOM     15  O   UNL     1       3.113   3.004  20.493  0.00  0.00    +0.000 OA
BRANCH  15  16
ATOM     16  C   UNL     1       2.808   2.035  19.461  0.00  0.00    +0.000 C 
BRANCH  16  17
ATOM     17  C   UNL     1       2.081   2.683  18.284  0.00  0.00    +0.000 C 
BRANCH  17  18
ATOM     18  C   UNL     1       3.015   2.932  17.096  0.00  0.00    +0.000 C 
BRANCH  18  19
ATOM     19  C   UNL     1       3.771   4.257  17.245  0.00  0.00    +0.000 C 
BRANCH  19  20
ATOM     20  C   UNL     1       5.236   4.027  17.611  0.00  0.00    +0.000 C 
BRANCH  20  21
ATOM     21  C   UNL     1       5.788   5.136  18.507  0.00  0.00    +0.000 C 
BRANCH  21  22
ATOM     22  O   UNL     1       7.032   5.550  17.951  0.00  0.00    +0.000 OA
BRANCH  22  23
ATOM     23  N   UNL     1       6.899   6.237  16.723  0.00  0.00    +0.000 N 
ATOM     24  O   UNL     1       6.094   7.183  16.696  0.00  0.00    +0.000 OA
ATOM     25  O   UNL     1       7.615   5.791  15.838  0.00  0.00    +0.000 OA
ENDBRANCH  22  23
ENDBRANCH  21  22
ENDBRANCH  20  21
ENDBRANCH  19  20
ENDBRANCH  18  19
ENDBRANCH  17  18
ENDBRANCH  16  17
ENDBRANCH  15  16
ENDBRANCH   1  15
TORSDOF 13
ENDMDL
MODEL 6
REMARK VINA RESULT:      -6.2      2.771      4.731
REMARK  Name = 
REMARK  14 active torsions:
REMARK  status: ('A' for Active; 'I' for Inactive)
REMARK    1  A    between atoms: C_1  and  O_2
REMARK    2  A    between atoms: O_2  and  C_3
REMARK    3  A    between atoms: C_5  and  C_6
REMARK    4  A    between atoms: C_7  and  C_8
REMARK    5  A    between atoms: C_8  and  O_10
REMARK    6  A    between atoms: O_10  and  C_11
REMARK    7  A    between atoms: C_11  and  C_12
REMARK    8  A    between atoms: C_12  and  C_13
REMARK    9  A    between atoms: C_13  and  C_14
REMARK   10  A    between atoms: C_14  and  C_15
REMARK   11  A    between atoms: C_15  and  C_16
REMARK   12  A    between atoms: C_16  and  O_17
REMARK   13  A    between atoms: O_17  and  N_18
REMARK   14  A    between atoms: C_23  and  O_24
REMARK                            x       y       z     vdW  Elec       q    Type
REMARK                         _______ _______ _______ _____ _____    ______ ____
ROOT
ATOM      1  C   UNL     1       5.563   4.579  18.812  0.00  0.00    +0.000 C 
ATOM      2  O   UNL     1       6.738   4.840  18.982  0.00  0.00    +0.000 OA
ENDROOT
BRANCH   1   4
ATOM      3  C   UNL     1       4.050   6.494  18.381  0.00  0.00    +0.000 C 
ATOM      4  C   UNL     1       4.436   5.472  19.176  0.00  0.00    +0.000 C 
BRANCH   3   7
ATOM      5  C   UNL     1       1.159   8.376  20.122  0.00  0.00    +0.000 A 
ATOM      6  C   UNL     1       2.216   7.458  19.888  0.00  0.00    +0.000 A 
ATOM      7  C   UNL     1       2.938   7.446  18.677  0.00  0.00    +0.000 A 
ATOM      8  C   UNL     1       2.549   8.368  17.689  0.00  0.00    +0.000 A 
ATOM      9  C   UNL     1       1.504   9.276  17.904  0.00  0.00    +0.000 A 
ATOM     10  C   UNL     1       0.811   9.280  19.106  0.00  0.00    +0.000 A 
BRANCH   5  12
ATOM     11  C   UNL     1       1.025   9.204  22.356  0.00  0.00    +0.000 C 
ATOM     12  O   UNL     1       0.567   8.281  21.363  0.00  0.00    +0.000 OA
ENDBRANCH   5  12
BRANCH  10  13
ATOM     13  O   UNL     1      -0.206  10.186  19.245  0.00  0.00    +0.000 OA
ATOM     14  H   UNL     1       0.029  10.858  19.903  0.00  0.00    +0.000 HD
ENDBRANCH  10  13
ENDBRANCH   3   7
ENDBRANCH   1   4
BRANCH   1  15
ATOM     15  O   UNL     1       5.093   3.406  18.272  0.00  0.00    +0.000 OA
BRANCH  15  16
ATOM     16  C   UNL     1       4.332   2.591  19.196  0.00  0.00    +0.000 C 
BRANCH  16  17
ATOM     17  C   UNL     1       3.250   1.789  18.471  0.00  0.00    +0.000 C 
BRANCH  17  18
ATOM     18  C   UNL     1       2.666   2.555  17.280  0.00  0.00    +0.000 C 
BRANCH  18  19
ATOM     19  C   UNL     1       1.646   3.605  17.735  0.00  0.00    +0.000 C 
BRANCH  19  20
ATOM     20  C   UNL     1       0.676   3.031  18.766  0.00  0.00    +0.000 C 
BRANCH  20  21
ATOM     21  C   UNL     1       0.672   3.838  20.065  0.00  0.00    +0.000 C 
BRANCH  21  22
ATOM     22  O   UNL     1       0.970   2.934  21.125  0.00  0.00    +0.000 OA
BRANCH  22  23
ATOM     23  N   UNL     1       2.191   3.218  21.780  0.00  0.00    +0.000 N 
ATOM     24  O   UNL     1       2.834   2.246  22.209  0.00  0.00    +0.000 OA
ATOM     25  O   UNL     1       2.447   4.412  21.830  0.00  0.00    +0.000 OA
ENDBRANCH  22  23
ENDBRANCH  21  22
ENDBRANCH  20  21
ENDBRANCH  19  20
ENDBRANCH  18  19
ENDBRANCH  17  18
ENDBRANCH  16  17
ENDBRANCH  15  16
ENDBRANCH   1  15
TORSDOF 13
ENDMDL
MODEL 7
REMARK VINA RESULT:      -6.2      0.922      1.156
REMARK  Name = 
REMARK  14 active torsions:
REMARK  status: ('A' for Active; 'I' for Inactive)
REMARK    1  A    between atoms: C_1  and  O_2
REMARK    2  A    between atoms: O_2  and  C_3
REMARK    3  A    between atoms: C_5  and  C_6
REMARK    4  A    between atoms: C_7  and  C_8
REMARK    5  A    between atoms: C_8  and  O_10
REMARK    6  A    between atoms: O_10  and  C_11
REMARK    7  A    between atoms: C_11  and  C_12
REMARK    8  A    between atoms: C_12  and  C_13
REMARK    9  A    between atoms: C_13  and  C_14
REMARK   10  A    between atoms: C_14  and  C_15
REMARK   11  A    between atoms: C_15  and  C_16
REMARK   12  A    between atoms: C_16  and  O_17
REMARK   13  A    between atoms: O_17  and  N_18
REMARK   14  A    between atoms: C_23  and  O_24
REMARK                            x       y       z     vdW  Elec       q    Type
REMARK                         _______ _______ _______ _____ _____    ______ ____
ROOT
ATOM      1  C   UNL     1       2.260   3.734  20.814  0.00  0.00    +0.000 C 
ATOM      2  O   UNL     1       1.587   2.776  21.143  0.00  0.00    +0.000 OA
ENDROOT
BRANCH   1   4
ATOM      3  C   UNL     1       2.335   6.048  19.930  0.00  0.00    +0.000 C 
ATOM      4  C   UNL     1       1.771   5.131  20.748  0.00  0.00    +0.000 C 
BRANCH   3   7
ATOM      5  C   UNL     1       0.955   9.572  20.707  0.00  0.00    +0.000 A 
ATOM      6  C   UNL     1       1.351   8.219  20.869  0.00  0.00    +0.000 A 
ATOM      7  C   UNL     1       1.914   7.475  19.811  0.00  0.00    +0.000 A 
ATOM      8  C   UNL     1       2.044   8.123  18.571  0.00  0.00    +0.000 A 
ATOM      9  C   UNL     1       1.654   9.457  18.394  0.00  0.00    +0.000 A 
ATOM     10  C   UNL     1       1.111  10.176  19.449  0.00  0.00    +0.000 A 
BRANCH   5  12
ATOM     11  C   UNL     1      -0.359   9.347  22.686  0.00  0.00    +0.000 C 
ATOM     12  O   UNL     1       0.446  10.172  21.839  0.00  0.00    +0.000 OA
ENDBRANCH   5  12
BRANCH  10  13
ATOM     13  O   UNL     1       0.740  11.471  19.205  0.00  0.00    +0.000 OA
ATOM     14  H   UNL     1       1.036  11.745  18.323  0.00  0.00    +0.000 HD
ENDBRANCH  10  13
ENDBRANCH   3   7
ENDBRANCH   1   4
BRANCH   1  15
ATOM     15  O   UNL     1       3.579   3.667  20.433  0.00  0.00    +0.000 OA
BRANCH  15  16
ATOM     16  C   UNL     1       3.918   2.483  19.671  0.00  0.00    +0.000 C 
BRANCH  16  17
ATOM     17  C   UNL     1       3.755   2.722  18.170  0.00  0.00    +0.000 C 
BRANCH  17  18
ATOM     18  C   UNL     1       4.748   3.759  17.640  0.00  0.00    +0.000 C 
BRANCH  18  19
ATOM     19  C   UNL     1       4.029   4.996  17.091  0.00  0.00    +0.000 C 
BRANCH  19  20
ATOM     20  C   UNL     1       4.887   6.252  17.234  0.00  0.00    +0.000 C 
BRANCH  20  21
ATOM     21  C   UNL     1       6.162   6.177  16.394  0.00  0.00    +0.000 C 
BRANCH  21  22
ATOM     22  O   UNL     1       5.770   5.903  15.053  0.00  0.00    +0.000 OA
BRANCH  22  23
ATOM     23  N   UNL     1       6.622   4.988  14.392  0.00  0.00    +0.000 N 
ATOM     24  O   UNL     1       6.080   4.008  13.854  0.00  0.00    +0.000 OA
ATOM     25  O   UNL     1       7.802   5.301  14.446  0.00  0.00    +0.000 OA
ENDBRANCH  22  23
ENDBRANCH  21  22
ENDBRANCH  20  21
ENDBRANCH  19  20
ENDBRANCH  18  19
ENDBRANCH  17  18
ENDBRANCH  16  17
ENDBRANCH  15  16
ENDBRANCH   1  15
TORSDOF 13
ENDMDL
MODEL 8
REMARK VINA RESULT:      -6.1      0.940      1.004
REMARK  Name = 
REMARK  14 active torsions:
REMARK  status: ('A' for Active; 'I' for Inactive)
REMARK    1  A    between atoms: C_1  and  O_2
REMARK    2  A    between atoms: O_2  and  C_3
REMARK    3  A    between atoms: C_5  and  C_6
REMARK    4  A    between atoms: C_7  and  C_8
REMARK    5  A    between atoms: C_8  and  O_10
REMARK    6  A    between atoms: O_10  and  C_11
REMARK    7  A    between atoms: C_11  and  C_12
REMARK    8  A    between atoms: C_12  and  C_13
REMARK    9  A    between atoms: C_13  and  C_14
REMARK   10  A    between atoms: C_14  and  C_15
REMARK   11  A    between atoms: C_15  and  C_16
REMARK   12  A    between atoms: C_16  and  O_17
REMARK   13  A    between atoms: O_17  and  N_18
REMARK   14  A    between atoms: C_23  and  O_24
REMARK                            x       y       z     vdW  Elec       q    Type
REMARK                         _______ _______ _______ _____ _____    ______ ____
ROOT
ATOM      1  C   UNL     1       2.033   3.298  21.554  0.00  0.00    +0.000 C 
ATOM      2  O   UNL     1       1.353   2.709  22.372  0.00  0.00    +0.000 OA
ENDROOT
BRANCH   1   4
ATOM      3  C   UNL     1       2.574   5.361  20.292  0.00  0.00    +0.000 C 
ATOM      4  C   UNL     1       1.660   4.577  20.906  0.00  0.00    +0.000 C 
BRANCH   3   7
ATOM      5  C   UNL     1       1.211   8.891  19.512  0.00  0.00    +0.000 A 
ATOM      6  C   UNL     1       1.464   7.668  20.185  0.00  0.00    +0.000 A 
ATOM      7  C   UNL     1       2.286   6.667  19.627  0.00  0.00    +0.000 A 
ATOM      8  C   UNL     1       2.827   6.918  18.354  0.00  0.00    +0.000 A 
ATOM      9  C   UNL     1       2.582   8.118  17.676  0.00  0.00    +0.000 A 
ATOM     10  C   UNL     1       1.778   9.096  18.245  0.00  0.00    +0.000 A 
BRANCH   5  12
ATOM     11  C   UNL     1       1.085  10.792  20.950  0.00  0.00    +0.000 C 
ATOM     12  O   UNL     1       0.410   9.780  20.197  0.00  0.00    +0.000 OA
ENDBRANCH   5  12
BRANCH  10  13
ATOM     13  O   UNL     1       1.570  10.241  17.522  0.00  0.00    +0.000 OA
ATOM     14  H   UNL     1       0.633  10.489  17.549  0.00  0.00    +0.000 HD
ENDBRANCH  10  13
ENDBRANCH   3   7
ENDBRANCH   1   4
BRANCH   1  15
ATOM     15  O   UNL     1       3.249   2.859  21.088  0.00  0.00    +0.000 OA
BRANCH  15  16
ATOM     16  C   UNL     1       3.206   2.302  19.752  0.00  0.00    +0.000 C 
BRANCH  16  17
ATOM     17  C   UNL     1       4.310   2.886  18.869  0.00  0.00    +0.000 C 
BRANCH  17  18
ATOM     18  C   UNL     1       3.944   2.836  17.382  0.00  0.00    +0.000 C 
BRANCH  18  19
ATOM     19  C   UNL     1       4.369   4.117  16.657  0.00  0.00    +0.000 C 
BRANCH  19  20
ATOM     20  C   UNL     1       5.645   4.703  17.260  0.00  0.00    +0.000 C 
BRANCH  20  21
ATOM     21  C   UNL     1       6.858   4.502  16.350  0.00  0.00    +0.000 C 
BRANCH  21  22
ATOM     22  O   UNL     1       6.375   4.012  15.103  0.00  0.00    +0.000 OA
BRANCH  22  23
ATOM     23  N   UNL     1       7.037   4.569  13.985  0.00  0.00    +0.000 N 
ATOM     24  O   UNL     1       7.737   5.574  14.193  0.00  0.00    +0.000 OA
ATOM     25  O   UNL     1       6.821   3.965  12.945  0.00  0.00    +0.000 OA
ENDBRANCH  22  23
ENDBRANCH  21  22
ENDBRANCH  20  21
ENDBRANCH  19  20
ENDBRANCH  18  19
ENDBRANCH  17  18
ENDBRANCH  16  17
ENDBRANCH  15  16
ENDBRANCH   1  15
TORSDOF 13
ENDMDL
MODEL 9
REMARK VINA RESULT:      -6.1      5.054      7.201
REMARK  Name = 
REMARK  14 active torsions:
REMARK  status: ('A' for Active; 'I' for Inactive)
REMARK    1  A    between atoms: C_1  and  O_2
REMARK    2  A    between atoms: O_2  and  C_3
REMARK    3  A    between atoms: C_5  and  C_6
REMARK    4  A    between atoms: C_7  and  C_8
REMARK    5  A    between atoms: C_8  and  O_10
REMARK    6  A    between atoms: O_10  and  C_11
REMARK    7  A    between atoms: C_11  and  C_12
REMARK    8  A    between atoms: C_12  and  C_13
REMARK    9  A    between atoms: C_13  and  C_14
REMARK   10  A    between atoms: C_14  and  C_15
REMARK   11  A    between atoms: C_15  and  C_16
REMARK   12  A    between atoms: C_16  and  O_17
REMARK   13  A    between atoms: O_17  and  N_18
REMARK   14  A    between atoms: C_23  and  O_24
REMARK                            x       y       z     vdW  Elec       q    Type
REMARK                         _______ _______ _______ _____ _____    ______ ____
ROOT
ATOM      1  C   UNL     1       7.538   6.507  17.406  0.00  0.00    +0.000 C 
ATOM      2  O   UNL     1       7.778   5.339  17.647  0.00  0.00    +0.000 OA
ENDROOT
BRANCH   1   4
ATOM      3  C   UNL     1       8.072   8.914  17.654  0.00  0.00    +0.000 C 
ATOM      4  C   UNL     1       8.099   7.658  18.153  0.00  0.00    +0.000 C 
BRANCH   3   7
ATOM      5  C   UNL     1       9.096  12.548  18.473  0.00  0.00    +0.000 A 
ATOM      6  C   UNL     1       8.548  11.427  17.797  0.00  0.00    +0.000 A 
ATOM      7  C   UNL     1       8.624  10.124  18.332  0.00  0.00    +0.000 A 
ATOM      8  C   UNL     1       9.294   9.973  19.559  0.00  0.00    +0.000 A 
ATOM      9  C   UNL     1       9.844  11.070  20.235  0.00  0.00    +0.000 A 
ATOM     10  C   UNL     1       9.751  12.346  19.698  0.00  0.00    +0.000 A 
BRANCH   5  12
ATOM     11  C   UNL     1       7.719  14.472  18.152  0.00  0.00    +0.000 C 
ATOM     12  O   UNL     1       8.919  13.758  17.837  0.00  0.00    +0.000 OA
ENDBRANCH   5  12
BRANCH  10  13
ATOM     13  O   UNL     1      10.321  13.371  20.405  0.00  0.00    +0.000 OA
ATOM     14  H   UNL     1       9.961  14.223  20.111  0.00  0.00    +0.000 HD
ENDBRANCH  10  13
ENDBRANCH   3   7
ENDBRANCH   1   4
BRANCH   1  15
ATOM     15  O   UNL     1       6.692   6.942  16.414  0.00  0.00    +0.000 OA
BRANCH  15  16
ATOM     16  C   UNL     1       5.436   6.225  16.349  0.00  0.00    +0.000 C 
BRANCH  16  17
ATOM     17  C   UNL     1       4.499   6.635  17.486  0.00  0.00    +0.000 C 
BRANCH  17  18
ATOM     18  C   UNL     1       3.849   5.424  18.160  0.00  0.00    +0.000 C 
BRANCH  18  19
ATOM     19  C   UNL     1       4.837   4.694  19.076  0.00  0.00    +0.000 C 
BRANCH  19  20
ATOM     20  C   UNL     1       4.274   3.355  19.552  0.00  0.00    +0.000 C 
BRANCH  20  21
ATOM     21  C   UNL     1       3.647   2.555  18.409  0.00  0.00    +0.000 C 
BRANCH  21  22
ATOM     22  O   UNL     1       2.463   1.949  18.918  0.00  0.00    +0.000 OA
BRANCH  22  23
ATOM     23  N   UNL     1       1.359   2.831  18.976  0.00  0.00    +0.000 N 
ATOM     24  O   UNL     1       0.812   2.969  20.083  0.00  0.00    +0.000 OA
ATOM     25  O   UNL     1       1.094   3.346  17.901  0.00  0.00    +0.000 OA
ENDBRANCH  22  23
ENDBRANCH  21  22
ENDBRANCH  20  21
ENDBRANCH  19  20
ENDBRANCH  18  19
ENDBRANCH  17  18
ENDBRANCH  16  17
ENDBRANCH  15  16
ENDBRANCH   1  15
TORSDOF 13
ENDMDL
