MODEL 1
REMARK VINA RESULT:      -7.2      0.000      0.000
REMARK  Name = 
REMARK  5 active torsions:
REMARK  status: ('A' for Active; 'I' for Inactive)
REMARK    1  A    between atoms: C_1  and  C_2
REMARK    2  A    between atoms: C_2  and  C_3
REMARK    3  A    between atoms: C_2  and  C_4
REMARK    4  A    between atoms: C_2  and  N_5
REMARK    5  A    between atoms: N_5  and  C_6
REMARK                            x       y       z     vdW  Elec       q    Type
REMARK                         _______ _______ _______ _____ _____    ______ ____
ROOT
ATOM      1  C   UNL     1       4.473   5.599  17.058  0.00  0.00    +0.000 C 
ATOM      2  C   UNL     1       3.883   6.520  17.828  0.00  0.00    +0.000 C 
ATOM      3  F   UNL     1       4.150   7.831  17.684  0.00  0.00    +0.000 F 
ATOM      4  C   UNL     1       2.930   6.222  18.914  0.00  0.00    +0.000 C 
ATOM      5  O   UNL     1       2.510   7.111  19.642  0.00  0.00    +0.000 OA
ATOM      6  C   UNL     1       2.534   4.821  19.104  0.00  0.00    +0.000 A 
ATOM      7  C   UNL     1       1.627   4.478  20.114  0.00  0.00    +0.000 A 
ATOM      8  F   UNL     1       1.123   5.404  20.942  0.00  0.00    +0.000 F 
ATOM      9  C   UNL     1       1.231   3.158  20.284  0.00  0.00    +0.000 A 
ATOM     10  F   UNL     1       0.360   2.842  21.254  0.00  0.00    +0.000 F 
ATOM     11  C   UNL     1       1.734   2.171  19.455  0.00  0.00    +0.000 A 
ATOM     12  F   UNL     1       1.345   0.900  19.616  0.00  0.00    +0.000 F 
ATOM     13  C   UNL     1       2.646   2.500  18.456  0.00  0.00    +0.000 A 
ATOM     14  F   UNL     1       3.115   1.514  17.681  0.00  0.00    +0.000 F 
ATOM     15  C   UNL     1       3.057   3.827  18.276  0.00  0.00    +0.000 A 
ATOM     16  C   UNL     1       4.054   4.163  17.240  0.00  0.00    +0.000 C 
ATOM     17  O   UNL     1       4.572   3.298  16.540  0.00  0.00    +0.000 OA
ENDROOT
BRANCH   1  18
ATOM     18  N   UNL     1       5.473   5.805  16.090  0.00  0.00    +0.000 N 
ATOM     19  H   UNL     1       5.253   5.185  15.295  0.00  0.00    +0.000 HD
BRANCH  18  21
ATOM     20  C   UNL     1       7.260   4.715  17.442  0.00  0.00    +0.000 C 
ATOM     21  C   UNL     1       6.929   5.769  16.372  0.00  0.00    +0.000 C 
ATOM     22  C   UNL     1       7.436   7.153  16.796  0.00  0.00    +0.000 C 
ATOM     23  C   UNL     1       7.660   5.380  15.070  0.00  0.00    +0.000 C 
ENDBRANCH  18  21
ENDBRANCH   1  18
TORSDOF 2
ENDMDL
MODEL 2
REMARK VINA RESULT:      -6.8      2.799      5.109
REMARK  Name = 
REMARK  5 active torsions:
REMARK  status: ('A' for Active; 'I' for Inactive)
REMARK    1  A    between atoms: C_1  and  C_2
REMARK    2  A    between atoms: C_2  and  C_3
REMARK    3  A    between atoms: C_2  and  C_4
REMARK    4  A    between atoms: C_2  and  N_5
REMARK    5  A    between atoms: N_5  and  C_6
REMARK                            x       y       z     vdW  Elec       q    Type
REMARK                         _______ _______ _______ _____ _____    ______ ____
ROOT
ATOM      1  C   UNL     1       2.130   7.603  19.487  0.00  0.00    +0.000 C 
ATOM      2  C   UNL     1       1.561   6.671  20.259  0.00  0.00    +0.000 C 
ATOM      3  F   UNL     1       0.711   7.002  21.249  0.00  0.00    +0.000 F 
ATOM      4  C   UNL     1       1.813   5.222  20.151  0.00  0.00    +0.000 C 
ATOM      5  O   UNL     1       1.333   4.439  20.960  0.00  0.00    +0.000 OA
ATOM      6  C   UNL     1       2.681   4.763  19.059  0.00  0.00    +0.000 A 
ATOM      7  C   UNL     1       2.951   3.399  18.901  0.00  0.00    +0.000 A 
ATOM      8  F   UNL     1       2.450   2.487  19.747  0.00  0.00    +0.000 F 
ATOM      9  C   UNL     1       3.753   2.956  17.858  0.00  0.00    +0.000 A 
ATOM     10  F   UNL     1       4.002   1.647  17.716  0.00  0.00    +0.000 F 
ATOM     11  C   UNL     1       4.294   3.867  16.967  0.00  0.00    +0.000 A 
ATOM     12  F   UNL     1       5.062   3.438  15.957  0.00  0.00    +0.000 F 
ATOM     13  C   UNL     1       4.043   5.227  17.123  0.00  0.00    +0.000 A 
ATOM     14  F   UNL     1       4.594   6.075  16.245  0.00  0.00    +0.000 F 
ATOM     15  C   UNL     1       3.239   5.686  18.174  0.00  0.00    +0.000 A 
ATOM     16  C   UNL     1       3.008   7.133  18.356  0.00  0.00    +0.000 C 
ATOM     17  O   UNL     1       3.536   7.967  17.626  0.00  0.00    +0.000 OA
ENDROOT
BRANCH   1  18
ATOM     18  N   UNL     1       2.026   9.001  19.613  0.00  0.00    +0.000 N 
ATOM     19  H   UNL     1       2.209   9.227  20.603  0.00  0.00    +0.000 HD
BRANCH  18  21
ATOM     20  C   UNL     1      -0.234   9.891  20.170  0.00  0.00    +0.000 C 
ATOM     21  C   UNL     1       0.881   9.802  19.114  0.00  0.00    +0.000 C 
ATOM     22  C   UNL     1       0.343   9.221  17.801  0.00  0.00    +0.000 C 
ATOM     23  C   UNL     1       1.387  11.230  18.824  0.00  0.00    +0.000 C 
ENDBRANCH  18  21
ENDBRANCH   1  18
TORSDOF 2
ENDMDL
MODEL 3
REMARK VINA RESULT:      -6.8      3.331      5.992
REMARK  Name = 
REMARK  5 active torsions:
REMARK  status: ('A' for Active; 'I' for Inactive)
REMARK    1  A    between atoms: C_1  and  C_2
REMARK    2  A    between atoms: C_2  and  C_3
REMARK    3  A    between atoms: C_2  and  C_4
REMARK    4  A    between atoms: C_2  and  N_5
REMARK    5  A    between atoms: N_5  and  C_6
REMARK                            x       y       z     vdW  Elec       q    Type
REMARK                         _______ _______ _______ _____ _____    ______ ____
ROOT
ATOM      1  C   UNL     1       2.868   5.548  19.189  0.00  0.00    +0.000 C 
ATOM      2  C   UNL     1       3.208   6.167  18.053  0.00  0.00    +0.000 C 
ATOM      3  F   UNL     1       3.891   5.530  17.084  0.00  0.00    +0.000 F 
ATOM      4  C   UNL     1       2.921   7.581  17.747  0.00  0.00    +0.000 C 
ATOM      5  O   UNL     1       3.353   8.104  16.729  0.00  0.00    +0.000 OA
ATOM      6  C   UNL     1       2.126   8.338  18.722  0.00  0.00    +0.000 A 
ATOM      7  C   UNL     1       1.815   9.682  18.484  0.00  0.00    +0.000 A 
ATOM      8  F   UNL     1       2.251  10.314  17.385  0.00  0.00    +0.000 F 
ATOM      9  C   UNL     1       1.045  10.398  19.392  0.00  0.00    +0.000 A 
ATOM     10  F   UNL     1       0.752  11.684  19.151  0.00  0.00    +0.000 F 
ATOM     11  C   UNL     1       0.582   9.784  20.542  0.00  0.00    +0.000 A 
ATOM     12  F   UNL     1      -0.167  10.473  21.413  0.00  0.00    +0.000 F 
ATOM     13  C   UNL     1       0.896   8.452  20.795  0.00  0.00    +0.000 A 
ATOM     14  F   UNL     1       0.436   7.898  21.924  0.00  0.00    +0.000 F 
ATOM     15  C   UNL     1       1.675   7.720  19.890  0.00  0.00    +0.000 A 
ATOM     16  C   UNL     1       2.038   6.318  20.183  0.00  0.00    +0.000 C 
ATOM     17  O   UNL     1       1.703   5.772  21.230  0.00  0.00    +0.000 OA
ENDROOT
BRANCH   1  18
ATOM     18  N   UNL     1       3.213   4.245  19.591  0.00  0.00    +0.000 N 
ATOM     19  H   UNL     1       4.212   4.117  19.369  0.00  0.00    +0.000 HD
BRANCH  18  21
ATOM     20  C   UNL     1       3.376   1.962  18.605  0.00  0.00    +0.000 C 
ATOM     21  C   UNL     1       2.451   3.027  19.218  0.00  0.00    +0.000 C 
ATOM     22  C   UNL     1       1.307   3.373  18.258  0.00  0.00    +0.000 C 
ATOM     23  C   UNL     1       1.826   2.442  20.502  0.00  0.00    +0.000 C 
ENDBRANCH  18  21
ENDBRANCH   1  18
TORSDOF 2
ENDMDL
MODEL 4
REMARK VINA RESULT:      -6.7      4.259      6.797
REMARK  Name = 
REMARK  5 active torsions:
REMARK  status: ('A' for Active; 'I' for Inactive)
REMARK    1  A    between atoms: C_1  and  C_2
REMARK    2  A    between atoms: C_2  and  C_3
REMARK    3  A    between atoms: C_2  and  C_4
REMARK    4  A    between atoms: C_2  and  N_5
REMARK    5  A    between atoms: N_5  and  C_6
REMARK                            x       y       z     vdW  Elec       q    Type
REMARK                         _______ _______ _______ _____ _____    ______ ____
ROOT
ATOM      1  C   UNL     1       2.287   7.337  19.554  0.00  0.00    +0.000 C 
ATOM      2  C   UNL     1       2.411   8.109  18.468  0.00  0.00    +0.000 C 
ATOM      3  F   UNL     1       3.146   7.719  17.410  0.00  0.00    +0.000 F 
ATOM      4  C   UNL     1       1.812   9.449  18.317  0.00  0.00    +0.000 C 
ATOM      5  O   UNL     1       2.055  10.137  17.335  0.00  0.00    +0.000 OA
ATOM      6  C   UNL     1       0.944   9.930  19.398  0.00  0.00    +0.000 A 
ATOM      7  C   UNL     1       0.342  11.190  19.308  0.00  0.00    +0.000 A 
ATOM      8  F   UNL     1       0.559  11.993  18.256  0.00  0.00    +0.000 F 
ATOM      9  C   UNL     1      -0.498  11.643  20.317  0.00  0.00    +0.000 A 
ATOM     10  F   UNL     1      -1.071  12.851  20.217  0.00  0.00    +0.000 F 
ATOM     11  C   UNL     1      -0.742  10.848  21.422  0.00  0.00    +0.000 A 
ATOM     12  F   UNL     1      -1.558  11.282  22.391  0.00  0.00    +0.000 F 
ATOM     13  C   UNL     1      -0.138   9.599  21.529  0.00  0.00    +0.000 A 
ATOM     14  F   UNL     1      -0.394   8.865  22.619  0.00  0.00    +0.000 F 
ATOM     15  C   UNL     1       0.714   9.132  20.520  0.00  0.00    +0.000 A 
ATOM     16  C   UNL     1       1.383   7.822  20.657  0.00  0.00    +0.000 C 
ATOM     17  O   UNL     1       1.243   7.130  21.660  0.00  0.00    +0.000 OA
ENDROOT
BRANCH   1  18
ATOM     18  N   UNL     1       2.925   6.109  19.809  0.00  0.00    +0.000 N 
ATOM     19  H   UNL     1       3.916   6.227  19.550  0.00  0.00    +0.000 HD
BRANCH  18  21
ATOM     20  C   UNL     1       1.797   4.915  17.935  0.00  0.00    +0.000 C 
ATOM     21  C   UNL     1       2.429   4.795  19.333  0.00  0.00    +0.000 C 
ATOM     22  C   UNL     1       1.432   4.195  20.331  0.00  0.00    +0.000 C 
ATOM     23  C   UNL     1       3.632   3.835  19.237  0.00  0.00    +0.000 C 
ENDBRANCH  18  21
ENDBRANCH   1  18
TORSDOF 2
ENDMDL
MODEL 5
REMARK VINA RESULT:      -6.7      2.620      4.830
REMARK  Name = 
REMARK  5 active torsions:
REMARK  status: ('A' for Active; 'I' for Inactive)
REMARK    1  A    between atoms: C_1  and  C_2
REMARK    2  A    between atoms: C_2  and  C_3
REMARK    3  A    between atoms: C_2  and  C_4
REMARK    4  A    between atoms: C_2  and  N_5
REMARK    5  A    between atoms: N_5  and  C_6
REMARK                            x       y       z     vdW  Elec       q    Type
REMARK                         _______ _______ _______ _____ _____    ______ ____
ROOT
ATOM      1  C   UNL     1       2.306   7.579  19.228  0.00  0.00    +0.000 C 
ATOM      2  C   UNL     1       3.193   7.479  18.232  0.00  0.00    +0.000 C 
ATOM      3  F   UNL     1       3.749   8.570  17.675  0.00  0.00    +0.000 F 
ATOM      4  C   UNL     1       3.627   6.210  17.617  0.00  0.00    +0.000 C 
ATOM      5  O   UNL     1       4.365   6.205  16.641  0.00  0.00    +0.000 OA
ATOM      6  C   UNL     1       3.117   4.963  18.201  0.00  0.00    +0.000 A 
ATOM      7  C   UNL     1       3.499   3.728  17.666  0.00  0.00    +0.000 A 
ATOM      8  F   UNL     1       4.311   3.651  16.602  0.00  0.00    +0.000 F 
ATOM      9  C   UNL     1       3.038   2.544  18.227  0.00  0.00    +0.000 A 
ATOM     10  F   UNL     1       3.413   1.367  17.706  0.00  0.00    +0.000 F 
ATOM     11  C   UNL     1       2.192   2.581  19.322  0.00  0.00    +0.000 A 
ATOM     12  F   UNL     1       1.754   1.439  19.867  0.00  0.00    +0.000 F 
ATOM     13  C   UNL     1       1.795   3.804  19.854  0.00  0.00    +0.000 A 
ATOM     14  F   UNL     1       0.969   3.796  20.908  0.00  0.00    +0.000 F 
ATOM     15  C   UNL     1       2.250   5.005  19.295  0.00  0.00    +0.000 A 
ATOM     16  C   UNL     1       1.795   6.300  19.840  0.00  0.00    +0.000 C 
ATOM     17  O   UNL     1       0.988   6.362  20.762  0.00  0.00    +0.000 OA
ENDROOT
BRANCH   1  18
ATOM     18  N   UNL     1       1.763   8.755  19.777  0.00  0.00    +0.000 N 
ATOM     19  H   UNL     1       1.303   8.489  20.661  0.00  0.00    +0.000 HD
BRANCH  18  21
ATOM     20  C   UNL     1       0.426   9.098  17.702  0.00  0.00    +0.000 C 
ATOM     21  C   UNL     1       0.909   9.710  19.028  0.00  0.00    +0.000 C 
ATOM     22  C   UNL     1       1.654  11.027  18.781  0.00  0.00    +0.000 C 
ATOM     23  C   UNL     1      -0.328  10.025  19.893  0.00  0.00    +0.000 C 
ENDBRANCH  18  21
ENDBRANCH   1  18
TORSDOF 2
ENDMDL
MODEL 6
REMARK VINA RESULT:      -6.6      2.714      6.360
REMARK  Name = 
REMARK  5 active torsions:
REMARK  status: ('A' for Active; 'I' for Inactive)
REMARK    1  A    between atoms: C_1  and  C_2
REMARK    2  A    between atoms: C_2  and  C_3
REMARK    3  A    between atoms: C_2  and  C_4
REMARK    4  A    between atoms: C_2  and  N_5
REMARK    5  A    between atoms: N_5  and  C_6
REMARK                            x       y       z     vdW  Elec       q    Type
REMARK                         _______ _______ _______ _____ _____    ______ ____
ROOT
ATOM      1  C   UNL     1       3.764   3.305  18.639  0.00  0.00    +0.000 C 
ATOM      2  C   UNL     1       3.578   3.481  17.326  0.00  0.00    +0.000 C 
ATOM      3  F   UNL     1       2.557   2.893  16.676  0.00  0.00    +0.000 F 
ATOM      4  C   UNL     1       4.459   4.279  16.452  0.00  0.00    +0.000 C 
ATOM      5  O   UNL     1       4.282   4.310  15.242  0.00  0.00    +0.000 OA
ATOM      6  C   UNL     1       5.566   5.006  17.087  0.00  0.00    +0.000 A 
ATOM      7  C   UNL     1       6.430   5.787  16.310  0.00  0.00    +0.000 A 
ATOM      8  F   UNL     1       6.289   5.870  14.980  0.00  0.00    +0.000 F 
ATOM      9  C   UNL     1       7.466   6.494  16.906  0.00  0.00    +0.000 A 
ATOM     10  F   UNL     1       8.286   7.240  16.152  0.00  0.00    +0.000 F 
ATOM     11  C   UNL     1       7.650   6.428  18.276  0.00  0.00    +0.000 A 
ATOM     12  F   UNL     1       8.645   7.117  18.851  0.00  0.00    +0.000 F 
ATOM     13  C   UNL     1       6.805   5.645  19.056  0.00  0.00    +0.000 A 
ATOM     14  F   UNL     1       7.023   5.602  20.376  0.00  0.00    +0.000 F 
ATOM     15  C   UNL     1       5.759   4.923  18.466  0.00  0.00    +0.000 A 
ATOM     16  C   UNL     1       4.889   4.063  19.294  0.00  0.00    +0.000 C 
ATOM     17  O   UNL     1       5.076   3.928  20.499  0.00  0.00    +0.000 OA
ENDROOT
BRANCH   1  18
ATOM     18  N   UNL     1       3.035   2.466  19.502  0.00  0.00    +0.000 N 
ATOM     19  H   UNL     1       2.995   1.538  19.054  0.00  0.00    +0.000 HD
BRANCH  18  21
ATOM     20  C   UNL     1       1.630   2.393  21.558  0.00  0.00    +0.000 C 
ATOM     21  C   UNL     1       1.712   2.808  20.079  0.00  0.00    +0.000 C 
ATOM     22  C   UNL     1       0.581   2.162  19.269  0.00  0.00    +0.000 C 
ATOM     23  C   UNL     1       1.534   4.338  19.996  0.00  0.00    +0.000 C 
ENDBRANCH  18  21
ENDBRANCH   1  18
TORSDOF 2
ENDMDL
MODEL 7
REMARK VINA RESULT:      -6.6      3.872      6.246
REMARK  Name = 
REMARK  5 active torsions:
REMARK  status: ('A' for Active; 'I' for Inactive)
REMARK    1  A    between atoms: C_1  and  C_2
REMARK    2  A    between atoms: C_2  and  C_3
REMARK    3  A    between atoms: C_2  and  C_4
REMARK    4  A    between atoms: C_2  and  N_5
REMARK    5  A    between atoms: N_5  and  C_6
REMARK                            x       y       z     vdW  Elec       q    Type
REMARK                         _______ _______ _______ _____ _____    ______ ____
ROOT
ATOM      1  C   UNL     1       2.586   7.009  19.143  0.00  0.00    +0.000 C 
ATOM      2  C   UNL     1       2.689   7.890  18.142  0.00  0.00    +0.000 C 
ATOM      3  F   UNL     1       3.409   7.618  17.038  0.00  0.00    +0.000 F 
ATOM      4  C   UNL     1       2.081   9.235  18.141  0.00  0.00    +0.000 C 
ATOM      5  O   UNL     1       2.304  10.024  17.232  0.00  0.00    +0.000 OA
ATOM      6  C   UNL     1       1.228   9.595  19.280  0.00  0.00    +0.000 A 
ATOM      7  C   UNL     1       0.617  10.853  19.330  0.00  0.00    +0.000 A 
ATOM      8  F   UNL     1       0.813  11.762  18.364  0.00  0.00    +0.000 F 
ATOM      9  C   UNL     1      -0.209  11.193  20.394  0.00  0.00    +0.000 A 
ATOM     10  F   UNL     1      -0.790  12.400  20.429  0.00  0.00    +0.000 F 
ATOM     11  C   UNL     1      -0.431  10.285  21.414  0.00  0.00    +0.000 A 
ATOM     12  F   UNL     1      -1.234  10.610  22.435  0.00  0.00    +0.000 F 
ATOM     13  C   UNL     1       0.181   9.036  21.380  0.00  0.00    +0.000 A 
ATOM     14  F   UNL     1      -0.053   8.190  22.392  0.00  0.00    +0.000 F 
ATOM     15  C   UNL     1       1.020   8.683  20.315  0.00  0.00    +0.000 A 
ATOM     16  C   UNL     1       1.697   7.370  20.304  0.00  0.00    +0.000 C 
ATOM     17  O   UNL     1       1.577   6.576  21.232  0.00  0.00    +0.000 OA
ENDROOT
BRANCH   1  18
ATOM     18  N   UNL     1       3.234   5.766  19.259  0.00  0.00    +0.000 N 
ATOM     19  H   UNL     1       4.248   5.949  19.199  0.00  0.00    +0.000 HD
BRANCH  18  21
ATOM     20  C   UNL     1       2.813   3.311  19.347  0.00  0.00    +0.000 C 
ATOM     21  C   UNL     1       2.888   4.565  18.459  0.00  0.00    +0.000 C 
ATOM     22  C   UNL     1       3.892   4.364  17.317  0.00  0.00    +0.000 C 
ATOM     23  C   UNL     1       1.500   4.794  17.829  0.00  0.00    +0.000 C 
ENDBRANCH  18  21
ENDBRANCH   1  18
TORSDOF 2
ENDMDL
MODEL 8
REMARK VINA RESULT:      -6.4      9.935     11.865
REMARK  Name = 
REMARK  5 active torsions:
REMARK  status: ('A' for Active; 'I' for Inactive)
REMARK    1  A    between atoms: C_1  and  C_2
REMARK    2  A    between atoms: C_2  and  C_3
REMARK    3  A    between atoms: C_2  and  C_4
REMARK    4  A    between atoms: C_2  and  N_5
REMARK    5  A    between atoms: N_5  and  C_6
REMARK                            x       y       z     vdW  Elec       q    Type
REMARK                         _______ _______ _______ _____ _____    ______ ____
ROOT
ATOM      1  C   UNL     1      -4.029  12.099  18.761  0.00  0.00    +0.000 C 
ATOM      2  C   UNL     1      -5.362  12.064  18.651  0.00  0.00    +0.000 C 
ATOM      3  F   UNL     1      -5.962  11.806  17.474  0.00  0.00    +0.000 F 
ATOM      4  C   UNL     1      -6.304  12.330  19.754  0.00  0.00    +0.000 C 
ATOM      5  O   UNL     1      -7.510  12.379  19.552  0.00  0.00    +0.000 OA
ATOM      6  C   UNL     1      -5.738  12.561  21.089  0.00  0.00    +0.000 A 
ATOM      7  C   UNL     1      -6.582  12.811  22.177  0.00  0.00    +0.000 A 
ATOM      8  F   UNL     1      -7.913  12.872  22.027  0.00  0.00    +0.000 F 
ATOM      9  C   UNL     1      -6.055  13.009  23.447  0.00  0.00    +0.000 A 
ATOM     10  F   UNL     1      -6.874  13.246  24.481  0.00  0.00    +0.000 F 
ATOM     11  C   UNL     1      -4.686  12.962  23.642  0.00  0.00    +0.000 A 
ATOM     12  F   UNL     1      -4.179  13.145  24.868  0.00  0.00    +0.000 F 
ATOM     13  C   UNL     1      -3.836  12.727  22.565  0.00  0.00    +0.000 A 
ATOM     14  F   UNL     1      -2.518  12.698  22.796  0.00  0.00    +0.000 F 
ATOM     15  C   UNL     1      -4.356  12.530  21.279  0.00  0.00    +0.000 A 
ATOM     16  C   UNL     1      -3.447  12.319  20.133  0.00  0.00    +0.000 C 
ATOM     17  O   UNL     1      -2.227  12.346  20.266  0.00  0.00    +0.000 OA
ENDROOT
BRANCH   1  18
ATOM     18  N   UNL     1      -3.081  11.973  17.730  0.00  0.00    +0.000 N 
ATOM     19  H   UNL     1      -3.350  12.641  16.992  0.00  0.00    +0.000 HD
BRANCH  18  21
ATOM     20  C   UNL     1      -2.747  10.746  15.587  0.00  0.00    +0.000 C 
ATOM     21  C   UNL     1      -2.674  10.682  17.122  0.00  0.00    +0.000 C 
ATOM     22  C   UNL     1      -3.535   9.532  17.660  0.00  0.00    +0.000 C 
ATOM     23  C   UNL     1      -1.212  10.402  17.525  0.00  0.00    +0.000 C 
ENDBRANCH  18  21
ENDBRANCH   1  18
TORSDOF 2
ENDMDL
MODEL 9
REMARK VINA RESULT:      -6.4      2.493      4.458
REMARK  Name = 
REMARK  5 active torsions:
REMARK  status: ('A' for Active; 'I' for Inactive)
REMARK    1  A    between atoms: C_1  and  C_2
REMARK    2  A    between atoms: C_2  and  C_3
REMARK    3  A    between atoms: C_2  and  C_4
REMARK    4  A    between atoms: C_2  and  N_5
REMARK    5  A    between atoms: N_5  and  C_6
REMARK                            x       y       z     vdW  Elec       q    Type
REMARK                         _______ _______ _______ _____ _____    ______ ____
ROOT
ATOM      1  C   UNL     1       4.134   5.875  17.801  0.00  0.00    +0.000 C 
ATOM      2  C   UNL     1       3.851   5.279  18.965  0.00  0.00    +0.000 C 
ATOM      3  F   UNL     1       4.421   4.111  19.313  0.00  0.00    +0.000 F 
ATOM      4  C   UNL     1       2.885   5.790  19.957  0.00  0.00    +0.000 C 
ATOM      5  O   UNL     1       2.603   5.136  20.952  0.00  0.00    +0.000 OA
ATOM      6  C   UNL     1       2.259   7.090  19.688  0.00  0.00    +0.000 A 
ATOM      7  C   UNL     1       1.340   7.629  20.596  0.00  0.00    +0.000 A 
ATOM      8  F   UNL     1       0.992   6.969  21.710  0.00  0.00    +0.000 F 
ATOM      9  C   UNL     1       0.761   8.869  20.359  0.00  0.00    +0.000 A 
ATOM     10  F   UNL     1      -0.116   9.375  21.238  0.00  0.00    +0.000 F 
ATOM     11  C   UNL     1       1.088   9.578  19.217  0.00  0.00    +0.000 A 
ATOM     12  F   UNL     1       0.535  10.777  18.993  0.00  0.00    +0.000 F 
ATOM     13  C   UNL     1       1.990   9.046  18.301  0.00  0.00    +0.000 A 
ATOM     14  F   UNL     1       2.273   9.761  17.205  0.00  0.00    +0.000 F 
ATOM     15  C   UNL     1       2.579   7.795  18.527  0.00  0.00    +0.000 A 
ATOM     16  C   UNL     1       3.506   7.218  17.532  0.00  0.00    +0.000 C 
ATOM     17  O   UNL     1       3.756   7.792  16.476  0.00  0.00    +0.000 OA
ENDROOT
BRANCH   1  18
ATOM     18  N   UNL     1       4.950   5.386  16.765  0.00  0.00    +0.000 N 
ATOM     19  H   UNL     1       4.660   4.411  16.590  0.00  0.00    +0.000 HD
BRANCH  18  21
ATOM     20  C   UNL     1       7.066   4.416  17.655  0.00  0.00    +0.000 C 
ATOM     21  C   UNL     1       6.430   5.485  16.749  0.00  0.00    +0.000 C 
ATOM     22  C   UNL     1       6.886   6.890  17.161  0.00  0.00    +0.000 C 
ATOM     23  C   UNL     1       6.911   5.240  15.304  0.00  0.00    +0.000 C 
ENDBRANCH  18  21
ENDBRANCH   1  18
TORSDOF 2
ENDMDL
