MODEL 1
REMARK VINA RESULT:      -8.4      0.000      0.000
REMARK  Name = 
REMARK  9 active torsions:
REMARK  status: ('A' for Active; 'I' for Inactive)
REMARK    1  A    between atoms: C_1  and  C_2
REMARK    2  A    between atoms: C_4  and  O_5
REMARK    3  A    between atoms: C_11  and  C_12
REMARK    4  A    between atoms: C_15  and  O_16
REMARK    5  A    between atoms: C_19  and  C_20
REMARK    6  A    between atoms: C_23  and  O_24
REMARK    7  A    between atoms: O_24  and  C_25
REMARK    8  A    between atoms: C_25  and  C_26
REMARK    9  A    between atoms: C_26  and  N_27
REMARK                            x       y       z     vdW  Elec       q    Type
REMARK                         _______ _______ _______ _____ _____    ______ ____
ROOT
ATOM      1  C   UNL     1      -3.057  14.966  21.576  0.00  0.00    +0.000 C 
ATOM      2  C   UNL     1      -1.893  14.847  20.637  0.00  0.00    +0.000 A 
ATOM      3  C   UNL     1      -1.440  15.994  19.963  0.00  0.00    +0.000 A 
ATOM      4  C   UNL     1      -0.364  15.913  19.078  0.00  0.00    +0.000 A 
ATOM      5  C   UNL     1       0.305  14.717  18.881  0.00  0.00    +0.000 A 
ATOM      6  C   UNL     1      -0.126  13.571  19.551  0.00  0.00    +0.000 A 
ATOM      7  C   UNL     1      -1.244  13.623  20.389  0.00  0.00    +0.000 A 
ATOM      8  C   UNL     1      -1.733  12.324  20.919  0.00  0.00    +0.000 C 
ATOM      9  O   UNL     1      -2.437  12.247  21.920  0.00  0.00    +0.000 OA
ATOM     10  C   UNL     1      -1.306  11.101  20.132  0.00  0.00    +0.000 C 
ATOM     11  C   UNL     1       0.225  11.265  20.054  0.00  0.00    +0.000 C 
ATOM     12  O   UNL     1       0.592  12.437  19.295  0.00  0.00    +0.000 OA
ENDROOT
BRANCH  10  13
ATOM     13  C   UNL     1      -2.138  10.942  18.857  0.00  0.00    +0.000 A 
ATOM     14  C   UNL     1      -3.219  11.769  18.519  0.00  0.00    +0.000 A 
ATOM     15  C   UNL     1      -3.906  11.622  17.311  0.00  0.00    +0.000 A 
ATOM     16  C   UNL     1      -3.535  10.616  16.434  0.00  0.00    +0.000 A 
ATOM     17  C   UNL     1      -2.501   9.749  16.755  0.00  0.00    +0.000 A 
ATOM     18  C   UNL     1      -1.804   9.913  17.957  0.00  0.00    +0.000 A 
BRANCH  16  19
ATOM     19  O   UNL     1      -4.169  10.449  15.238  0.00  0.00    +0.000 OA
ATOM     20  H   UNL     1      -3.836  11.120  14.619  0.00  0.00    +0.000 HD
ENDBRANCH  16  19
ENDBRANCH  10  13
BRANCH  11  21
ATOM     21  C   UNL     1       0.964  10.052  19.503  0.00  0.00    +0.000 A 
ATOM     22  C   UNL     1       1.524  10.099  18.225  0.00  0.00    +0.000 A 
ATOM     23  C   UNL     1       2.207   9.015  17.697  0.00  0.00    +0.000 A 
ATOM     24  C   UNL     1       2.399   7.849  18.442  0.00  0.00    +0.000 A 
ATOM     25  C   UNL     1       1.855   7.785  19.725  0.00  0.00    +0.000 A 
ATOM     26  C   UNL     1       1.138   8.875  20.253  0.00  0.00    +0.000 A 
BRANCH  24  27
ATOM     27  O   UNL     1       3.111   6.754  17.992  0.00  0.00    +0.000 OA
BRANCH  27  28
ATOM     28  C   UNL     1       3.588   5.938  19.071  0.00  0.00    +0.000 C 
BRANCH  28  29
ATOM     29  C   UNL     1       3.676   4.444  18.757  0.00  0.00    +0.000 C 
BRANCH  29  30
ATOM     30  N   UNL     1       4.915   4.110  18.005  0.00  0.00    +0.000 NA
ATOM     31  C   UNL     1       4.639   4.108  16.561  0.00  0.00    +0.000 C 
ATOM     32  C   UNL     1       5.879   3.739  15.740  0.00  0.00    +0.000 C 
ATOM     33  C   UNL     1       7.050   4.657  16.058  0.00  0.00    +0.000 C 
ATOM     34  C   UNL     1       7.311   4.660  17.555  0.00  0.00    +0.000 C 
ATOM     35  C   UNL     1       6.041   5.005  18.334  0.00  0.00    +0.000 C 
ENDBRANCH  29  30
ENDBRANCH  28  29
ENDBRANCH  27  28
ENDBRANCH  24  27
ENDBRANCH  11  21
BRANCH   4  36
ATOM     36  O   UNL     1       0.063  17.001  18.378  0.00  0.00    +0.000 OA
ATOM     37  H   UNL     1      -0.603  17.705  18.449  0.00  0.00    +0.000 HD
ENDBRANCH   4  36
TORSDOF 8
ENDMDL
MODEL 2
REMARK VINA RESULT:      -8.3      1.264      2.543
REMARK  Name = 
REMARK  9 active torsions:
REMARK  status: ('A' for Active; 'I' for Inactive)
REMARK    1  A    between atoms: C_1  and  C_2
REMARK    2  A    between atoms: C_4  and  O_5
REMARK    3  A    between atoms: C_11  and  C_12
REMARK    4  A    between atoms: C_15  and  O_16
REMARK    5  A    between atoms: C_19  and  C_20
REMARK    6  A    between atoms: C_23  and  O_24
REMARK    7  A    between atoms: O_24  and  C_25
REMARK    8  A    between atoms: C_25  and  C_26
REMARK    9  A    between atoms: C_26  and  N_27
REMARK                            x       y       z     vdW  Elec       q    Type
REMARK                         _______ _______ _______ _____ _____    ______ ____
ROOT
ATOM      1  C   UNL     1      -3.113  15.052  21.515  0.00  0.00    +0.000 C 
ATOM      2  C   UNL     1      -1.923  14.954  20.606  0.00  0.00    +0.000 A 
ATOM      3  C   UNL     1      -1.457  16.115  19.964  0.00  0.00    +0.000 A 
ATOM      4  C   UNL     1      -0.357  16.053  19.108  0.00  0.00    +0.000 A 
ATOM      5  C   UNL     1       0.323  14.864  18.910  0.00  0.00    +0.000 A 
ATOM      6  C   UNL     1      -0.120  13.705  19.548  0.00  0.00    +0.000 A 
ATOM      7  C   UNL     1      -1.261  13.738  20.356  0.00  0.00    +0.000 A 
ATOM      8  C   UNL     1      -1.758  12.428  20.850  0.00  0.00    +0.000 C 
ATOM      9  O   UNL     1      -2.489  12.331  21.831  0.00  0.00    +0.000 OA
ATOM     10  C   UNL     1      -1.303  11.221  20.056  0.00  0.00    +0.000 C 
ATOM     11  C   UNL     1       0.229  11.392  20.023  0.00  0.00    +0.000 C 
ATOM     12  O   UNL     1       0.611  12.579  19.294  0.00  0.00    +0.000 OA
ENDROOT
BRANCH  10  13
ATOM     13  C   UNL     1      -2.098  11.078  18.756  0.00  0.00    +0.000 A 
ATOM     14  C   UNL     1      -1.691  10.286  17.671  0.00  0.00    +0.000 A 
ATOM     15  C   UNL     1      -2.486  10.139  16.531  0.00  0.00    +0.000 A 
ATOM     16  C   UNL     1      -3.694  10.812  16.451  0.00  0.00    +0.000 A 
ATOM     17  C   UNL     1      -4.107  11.641  17.483  0.00  0.00    +0.000 A 
ATOM     18  C   UNL     1      -3.317  11.769  18.630  0.00  0.00    +0.000 A 
BRANCH  16  19
ATOM     19  O   UNL     1      -4.506  10.682  15.363  0.00  0.00    +0.000 OA
ATOM     20  H   UNL     1      -5.048   9.885  15.480  0.00  0.00    +0.000 HD
ENDBRANCH  16  19
ENDBRANCH  10  13
BRANCH  11  21
ATOM     21  C   UNL     1       0.989  10.192  19.473  0.00  0.00    +0.000 A 
ATOM     22  C   UNL     1       1.560  10.254  18.200  0.00  0.00    +0.000 A 
ATOM     23  C   UNL     1       2.263   9.182  17.673  0.00  0.00    +0.000 A 
ATOM     24  C   UNL     1       2.464   8.015  18.414  0.00  0.00    +0.000 A 
ATOM     25  C   UNL     1       1.908   7.936  19.691  0.00  0.00    +0.000 A 
ATOM     26  C   UNL     1       1.172   9.014  20.218  0.00  0.00    +0.000 A 
BRANCH  24  27
ATOM     27  O   UNL     1       3.194   6.931  17.965  0.00  0.00    +0.000 OA
BRANCH  27  28
ATOM     28  C   UNL     1       3.690   6.129  19.044  0.00  0.00    +0.000 C 
BRANCH  28  29
ATOM     29  C   UNL     1       4.063   4.695  18.663  0.00  0.00    +0.000 C 
BRANCH  29  30
ATOM     30  N   UNL     1       3.104   3.707  19.226  0.00  0.00    +0.000 NA
ATOM     31  C   UNL     1       2.630   4.164  20.541  0.00  0.00    +0.000 C 
ATOM     32  C   UNL     1       1.660   3.165  21.180  0.00  0.00    +0.000 C 
ATOM     33  C   UNL     1       0.483   2.867  20.262  0.00  0.00    +0.000 C 
ATOM     34  C   UNL     1       0.991   2.413  18.904  0.00  0.00    +0.000 C 
ATOM     35  C   UNL     1       1.976   3.426  18.319  0.00  0.00    +0.000 C 
ENDBRANCH  29  30
ENDBRANCH  28  29
ENDBRANCH  27  28
ENDBRANCH  24  27
ENDBRANCH  11  21
BRANCH   4  36
ATOM     36  O   UNL     1       0.084  17.155  18.438  0.00  0.00    +0.000 OA
ATOM     37  H   UNL     1      -0.469  17.916  18.681  0.00  0.00    +0.000 HD
ENDBRANCH   4  36
TORSDOF 8
ENDMDL
MODEL 3
REMARK VINA RESULT:      -8.2      1.039      1.823
REMARK  Name = 
REMARK  9 active torsions:
REMARK  status: ('A' for Active; 'I' for Inactive)
REMARK    1  A    between atoms: C_1  and  C_2
REMARK    2  A    between atoms: C_4  and  O_5
REMARK    3  A    between atoms: C_11  and  C_12
REMARK    4  A    between atoms: C_15  and  O_16
REMARK    5  A    between atoms: C_19  and  C_20
REMARK    6  A    between atoms: C_23  and  O_24
REMARK    7  A    between atoms: O_24  and  C_25
REMARK    8  A    between atoms: C_25  and  C_26
REMARK    9  A    between atoms: C_26  and  N_27
REMARK                            x       y       z     vdW  Elec       q    Type
REMARK                         _______ _______ _______ _____ _____    ______ ____
ROOT
ATOM      1  C   UNL     1      -1.337  15.091  21.595  0.00  0.00    +0.000 C 
ATOM      2  C   UNL     1      -0.263  14.692  20.626  0.00  0.00    +0.000 A 
ATOM      3  C   UNL     1       0.383  15.689  19.875  0.00  0.00    +0.000 A 
ATOM      4  C   UNL     1       1.381  15.347  18.961  0.00  0.00    +0.000 A 
ATOM      5  C   UNL     1       1.783  14.031  18.808  0.00  0.00    +0.000 A 
ATOM      6  C   UNL     1       1.158  13.031  19.553  0.00  0.00    +0.000 A 
ATOM      7  C   UNL     1       0.112  13.351  20.424  0.00  0.00    +0.000 A 
ATOM      8  C   UNL     1      -0.608  12.207  21.041  0.00  0.00    +0.000 C 
ATOM      9  O   UNL     1      -1.267  12.323  22.068  0.00  0.00    +0.000 OA
ATOM     10  C   UNL     1      -0.473  10.886  20.310  0.00  0.00    +0.000 C 
ATOM     11  C   UNL     1       1.055  10.728  20.172  0.00  0.00    +0.000 C 
ATOM     12  O   UNL     1       1.619  11.762  19.337  0.00  0.00    +0.000 OA
ENDROOT
BRANCH  10  13
ATOM     13  C   UNL     1      -1.375  10.841  19.074  0.00  0.00    +0.000 A 
ATOM     14  C   UNL     1      -1.132  10.026  17.957  0.00  0.00    +0.000 A 
ATOM     15  C   UNL     1      -2.023   9.973  16.881  0.00  0.00    +0.000 A 
ATOM     16  C   UNL     1      -3.160  10.765  16.897  0.00  0.00    +0.000 A 
ATOM     17  C   UNL     1      -3.408  11.616  17.963  0.00  0.00    +0.000 A 
ATOM     18  C   UNL     1      -2.524  11.651  19.046  0.00  0.00    +0.000 A 
BRANCH  16  19
ATOM     19  O   UNL     1      -4.061  10.730  15.874  0.00  0.00    +0.000 OA
ATOM     20  H   UNL     1      -4.872  10.302  16.196  0.00  0.00    +0.000 HD
ENDBRANCH  16  19
ENDBRANCH  10  13
BRANCH  11  21
ATOM     21  C   UNL     1       1.507   9.365  19.665  0.00  0.00    +0.000 A 
ATOM     22  C   UNL     1       1.504   8.266  20.526  0.00  0.00    +0.000 A 
ATOM     23  C   UNL     1       1.905   7.011  20.094  0.00  0.00    +0.000 A 
ATOM     24  C   UNL     1       2.284   6.790  18.768  0.00  0.00    +0.000 A 
ATOM     25  C   UNL     1       2.286   7.874  17.889  0.00  0.00    +0.000 A 
ATOM     26  C   UNL     1       1.905   9.154  18.333  0.00  0.00    +0.000 A 
BRANCH  24  27
ATOM     27  O   UNL     1       2.647   5.555  18.264  0.00  0.00    +0.000 OA
BRANCH  27  28
ATOM     28  C   UNL     1       3.247   4.720  19.263  0.00  0.00    +0.000 C 
BRANCH  28  29
ATOM     29  C   UNL     1       4.540   4.026  18.830  0.00  0.00    +0.000 C 
BRANCH  29  30
ATOM     30  N   UNL     1       5.097   4.623  17.586  0.00  0.00    +0.000 NA
ATOM     31  C   UNL     1       6.490   5.035  17.809  0.00  0.00    +0.000 C 
ATOM     32  C   UNL     1       7.103   5.685  16.565  0.00  0.00    +0.000 C 
ATOM     33  C   UNL     1       7.004   4.769  15.353  0.00  0.00    +0.000 C 
ATOM     34  C   UNL     1       5.561   4.341  15.147  0.00  0.00    +0.000 C 
ATOM     35  C   UNL     1       4.984   3.725  16.422  0.00  0.00    +0.000 C 
ENDBRANCH  29  30
ENDBRANCH  28  29
ENDBRANCH  27  28
ENDBRANCH  24  27
ENDBRANCH  11  21
BRANCH   4  36
ATOM     36  O   UNL     1       1.988  16.290  18.187  0.00  0.00    +0.000 OA
ATOM     37  H   UNL     1       2.608  15.852  17.581  0.00  0.00    +0.000 HD
ENDBRANCH   4  36
TORSDOF 8
ENDMDL
MODEL 4
REMARK VINA RESULT:      -8.2      0.423      1.230
REMARK  Name = 
REMARK  9 active torsions:
REMARK  status: ('A' for Active; 'I' for Inactive)
REMARK    1  A    between atoms: C_1  and  C_2
REMARK    2  A    between atoms: C_4  and  O_5
REMARK    3  A    between atoms: C_11  and  C_12
REMARK    4  A    between atoms: C_15  and  O_16
REMARK    5  A    between atoms: C_19  and  C_20
REMARK    6  A    between atoms: C_23  and  O_24
REMARK    7  A    between atoms: O_24  and  C_25
REMARK    8  A    between atoms: C_25  and  C_26
REMARK    9  A    between atoms: C_26  and  N_27
REMARK                            x       y       z     vdW  Elec       q    Type
REMARK                         _______ _______ _______ _____ _____    ______ ____
ROOT
ATOM      1  C   UNL     1      -2.768  15.308  21.600  0.00  0.00    +0.000 C 
ATOM      2  C   UNL     1      -1.637  15.107  20.635  0.00  0.00    +0.000 A 
ATOM      3  C   UNL     1      -1.172  16.205  19.891  0.00  0.00    +0.000 A 
ATOM      4  C   UNL     1      -0.126  16.046  18.980  0.00  0.00    +0.000 A 
ATOM      5  C   UNL     1       0.501  14.822  18.824  0.00  0.00    +0.000 A 
ATOM      6  C   UNL     1       0.057  13.724  19.563  0.00  0.00    +0.000 A 
ATOM      7  C   UNL     1      -1.033  13.853  20.430  0.00  0.00    +0.000 A 
ATOM      8  C   UNL     1      -1.543  12.597  21.039  0.00  0.00    +0.000 C 
ATOM      9  O   UNL     1      -2.217  12.592  22.063  0.00  0.00    +0.000 OA
ATOM     10  C   UNL     1      -1.176  11.324  20.303  0.00  0.00    +0.000 C 
ATOM     11  C   UNL     1       0.356  11.436  20.172  0.00  0.00    +0.000 C 
ATOM     12  O   UNL     1       0.734  12.557  19.344  0.00  0.00    +0.000 OA
ENDROOT
BRANCH  10  13
ATOM     13  C   UNL     1      -2.051  11.127  19.063  0.00  0.00    +0.000 A 
ATOM     14  C   UNL     1      -3.243  11.828  18.826  0.00  0.00    +0.000 A 
ATOM     15  C   UNL     1      -3.973  11.658  17.646  0.00  0.00    +0.000 A 
ATOM     16  C   UNL     1      -3.529  10.753  16.695  0.00  0.00    +0.000 A 
ATOM     17  C   UNL     1      -2.380  10.009  16.915  0.00  0.00    +0.000 A 
ATOM     18  C   UNL     1      -1.643  10.197  18.089  0.00  0.00    +0.000 A 
BRANCH  16  19
ATOM     19  O   UNL     1      -4.202  10.570  15.524  0.00  0.00    +0.000 OA
ATOM     20  H   UNL     1      -3.724   9.910  14.996  0.00  0.00    +0.000 HD
ENDBRANCH  16  19
ENDBRANCH  10  13
BRANCH  11  21
ATOM     21  C   UNL     1       1.042  10.176  19.662  0.00  0.00    +0.000 A 
ATOM     22  C   UNL     1       1.115   9.044  20.478  0.00  0.00    +0.000 A 
ATOM     23  C   UNL     1       1.727   7.880  20.041  0.00  0.00    +0.000 A 
ATOM     24  C   UNL     1       2.256   7.781  18.752  0.00  0.00    +0.000 A 
ATOM     25  C   UNL     1       2.187   8.898  17.919  0.00  0.00    +0.000 A 
ATOM     26  C   UNL     1       1.588  10.089  18.370  0.00  0.00    +0.000 A 
BRANCH  24  27
ATOM     27  O   UNL     1       2.835   6.635  18.242  0.00  0.00    +0.000 OA
BRANCH  27  28
ATOM     28  C   UNL     1       3.293   5.754  19.276  0.00  0.00    +0.000 C 
BRANCH  28  29
ATOM     29  C   UNL     1       4.079   4.537  18.785  0.00  0.00    +0.000 C 
BRANCH  29  30
ATOM     30  N   UNL     1       4.895   4.856  17.583  0.00  0.00    +0.000 NA
ATOM     31  C   UNL     1       6.325   4.816  17.924  0.00  0.00    +0.000 C 
ATOM     32  C   UNL     1       7.212   5.168  16.726  0.00  0.00    +0.000 C 
ATOM     33  C   UNL     1       6.922   4.265  15.536  0.00  0.00    +0.000 C 
ATOM     34  C   UNL     1       5.439   4.304  15.208  0.00  0.00    +0.000 C 
ATOM     35  C   UNL     1       4.594   3.975  16.439  0.00  0.00    +0.000 C 
ENDBRANCH  29  30
ENDBRANCH  28  29
ENDBRANCH  27  28
ENDBRANCH  24  27
ENDBRANCH  11  21
BRANCH   4  36
ATOM     36  O   UNL     1       0.310  17.085  18.213  0.00  0.00    +0.000 OA
ATOM     37  H   UNL     1       1.158  17.403  18.563  0.00  0.00    +0.000 HD
ENDBRANCH   4  36
TORSDOF 8
ENDMDL
MODEL 5
REMARK VINA RESULT:      -8.2      0.696      1.343
REMARK  Name = 
REMARK  9 active torsions:
REMARK  status: ('A' for Active; 'I' for Inactive)
REMARK    1  A    between atoms: C_1  and  C_2
REMARK    2  A    between atoms: C_4  and  O_5
REMARK    3  A    between atoms: C_11  and  C_12
REMARK    4  A    between atoms: C_15  and  O_16
REMARK    5  A    between atoms: C_19  and  C_20
REMARK    6  A    between atoms: C_23  and  O_24
REMARK    7  A    between atoms: O_24  and  C_25
REMARK    8  A    between atoms: C_25  and  C_26
REMARK    9  A    between atoms: C_26  and  N_27
REMARK                            x       y       z     vdW  Elec       q    Type
REMARK                         _______ _______ _______ _____ _____    ______ ____
ROOT
ATOM      1  C   UNL     1      -2.065  15.459  21.661  0.00  0.00    +0.000 C 
ATOM      2  C   UNL     1      -0.988  15.146  20.664  0.00  0.00    +0.000 A 
ATOM      3  C   UNL     1      -0.447  16.189  19.893  0.00  0.00    +0.000 A 
ATOM      4  C   UNL     1       0.550  15.926  18.952  0.00  0.00    +0.000 A 
ATOM      5  C   UNL     1       1.056  14.647  18.792  0.00  0.00    +0.000 A 
ATOM      6  C   UNL     1       0.536  13.603  19.558  0.00  0.00    +0.000 A 
ATOM      7  C   UNL     1      -0.509  13.839  20.456  0.00  0.00    +0.000 A 
ATOM      8  C   UNL     1      -1.114  12.642  21.095  0.00  0.00    +0.000 C 
ATOM      9  O   UNL     1      -1.753  12.709  22.140  0.00  0.00    +0.000 OA
ATOM     10  C   UNL     1      -0.889  11.334  20.364  0.00  0.00    +0.000 C 
ATOM     11  C   UNL     1       0.642  11.302  20.185  0.00  0.00    +0.000 C 
ATOM     12  O   UNL     1       1.095  12.376  19.332  0.00  0.00    +0.000 OA
ENDROOT
BRANCH  10  13
ATOM     13  C   UNL     1      -1.818  11.207  19.154  0.00  0.00    +0.000 A 
ATOM     14  C   UNL     1      -1.556  10.382  18.050  0.00  0.00    +0.000 A 
ATOM     15  C   UNL     1      -2.468  10.252  16.998  0.00  0.00    +0.000 A 
ATOM     16  C   UNL     1      -3.648  10.978  17.026  0.00  0.00    +0.000 A 
ATOM     17  C   UNL     1      -3.919  11.839  18.079  0.00  0.00    +0.000 A 
ATOM     18  C   UNL     1      -3.012  11.950  19.137  0.00  0.00    +0.000 A 
BRANCH  16  19
ATOM     19  O   UNL     1      -4.571  10.867  16.028  0.00  0.00    +0.000 OA
ATOM     20  H   UNL     1      -5.324  10.353  16.364  0.00  0.00    +0.000 HD
ENDBRANCH  16  19
ENDBRANCH  10  13
BRANCH  11  21
ATOM     21  C   UNL     1       1.192   9.979  19.669  0.00  0.00    +0.000 A 
ATOM     22  C   UNL     1       1.685   9.890  18.366  0.00  0.00    +0.000 A 
ATOM     23  C   UNL     1       2.198   8.702  17.869  0.00  0.00    +0.000 A 
ATOM     24  C   UNL     1       2.280   7.560  18.668  0.00  0.00    +0.000 A 
ATOM     25  C   UNL     1       1.799   7.629  19.976  0.00  0.00    +0.000 A 
ATOM     26  C   UNL     1       1.255   8.828  20.474  0.00  0.00    +0.000 A 
BRANCH  24  27
ATOM     27  O   UNL     1       2.823   6.361  18.248  0.00  0.00    +0.000 OA
BRANCH  27  28
ATOM     28  C   UNL     1       3.318   5.578  19.342  0.00  0.00    +0.000 C 
BRANCH  28  29
ATOM     29  C   UNL     1       4.404   4.567  18.971  0.00  0.00    +0.000 C 
BRANCH  29  30
ATOM     30  N   UNL     1       5.023   4.879  17.656  0.00  0.00    +0.000 NA
ATOM     31  C   UNL     1       6.442   5.219  17.839  0.00  0.00    +0.000 C 
ATOM     32  C   UNL     1       7.122   5.580  16.514  0.00  0.00    +0.000 C 
ATOM     33  C   UNL     1       6.967   4.466  15.488  0.00  0.00    +0.000 C 
ATOM     34  C   UNL     1       5.498   4.116  15.325  0.00  0.00    +0.000 C 
ATOM     35  C   UNL     1       4.856   3.792  16.674  0.00  0.00    +0.000 C 
ENDBRANCH  29  30
ENDBRANCH  28  29
ENDBRANCH  27  28
ENDBRANCH  24  27
ENDBRANCH  11  21
BRANCH   4  36
ATOM     36  O   UNL     1       1.056  16.912  18.160  0.00  0.00    +0.000 OA
ATOM     37  H   UNL     1       0.392  17.614  18.064  0.00  0.00    +0.000 HD
ENDBRANCH   4  36
TORSDOF 8
ENDMDL
MODEL 6
REMARK VINA RESULT:      -8.2      1.637      2.762
REMARK  Name = 
REMARK  9 active torsions:
REMARK  status: ('A' for Active; 'I' for Inactive)
REMARK    1  A    between atoms: C_1  and  C_2
REMARK    2  A    between atoms: C_4  and  O_5
REMARK    3  A    between atoms: C_11  and  C_12
REMARK    4  A    between atoms: C_15  and  O_16
REMARK    5  A    between atoms: C_19  and  C_20
REMARK    6  A    between atoms: C_23  and  O_24
REMARK    7  A    between atoms: O_24  and  C_25
REMARK    8  A    between atoms: C_25  and  C_26
REMARK    9  A    between atoms: C_26  and  N_27
REMARK                            x       y       z     vdW  Elec       q    Type
REMARK                         _______ _______ _______ _____ _____    ______ ____
ROOT
ATOM      1  C   UNL     1      -2.202  14.056  23.097  0.00  0.00    +0.000 C 
ATOM      2  C   UNL     1      -1.035  14.086  22.155  0.00  0.00    +0.000 A 
ATOM      3  C   UNL     1      -0.479  15.327  21.796  0.00  0.00    +0.000 A 
ATOM      4  C   UNL     1       0.603  15.386  20.916  0.00  0.00    +0.000 A 
ATOM      5  C   UNL     1       1.175  14.229  20.415  0.00  0.00    +0.000 A 
ATOM      6  C   UNL     1       0.641  12.990  20.770  0.00  0.00    +0.000 A 
ATOM      7  C   UNL     1      -0.483  12.918  21.598  0.00  0.00    +0.000 A 
ATOM      8  C   UNL     1      -1.085  11.572  21.778  0.00  0.00    +0.000 C 
ATOM      9  O   UNL     1      -1.810  11.299  22.729  0.00  0.00    +0.000 OA
ATOM     10  C   UNL     1      -0.745  10.560  20.702  0.00  0.00    +0.000 C 
ATOM     11  C   UNL     1       0.796  10.610  20.663  0.00  0.00    +0.000 C 
ATOM     12  O   UNL     1       1.270  11.903  20.228  0.00  0.00    +0.000 OA
ENDROOT
BRANCH  10  13
ATOM     13  C   UNL     1      -1.565  10.802  19.432  0.00  0.00    +0.000 A 
ATOM     14  C   UNL     1      -2.569  11.776  19.323  0.00  0.00    +0.000 A 
ATOM     15  C   UNL     1      -3.244  12.000  18.119  0.00  0.00    +0.000 A 
ATOM     16  C   UNL     1      -2.941  11.225  17.012  0.00  0.00    +0.000 A 
ATOM     17  C   UNL     1      -1.986  10.222  17.096  0.00  0.00    +0.000 A 
ATOM     18  C   UNL     1      -1.300  10.015  18.297  0.00  0.00    +0.000 A 
BRANCH  16  19
ATOM     19  O   UNL     1      -3.565  11.423  15.816  0.00  0.00    +0.000 OA
ATOM     20  H   UNL     1      -4.350  10.852  15.783  0.00  0.00    +0.000 HD
ENDBRANCH  16  19
ENDBRANCH  10  13
BRANCH  11  21
ATOM     21  C   UNL     1       1.443   9.522  19.816  0.00  0.00    +0.000 A 
ATOM     22  C   UNL     1       1.619   8.241  20.344  0.00  0.00    +0.000 A 
ATOM     23  C   UNL     1       2.199   7.228  19.597  0.00  0.00    +0.000 A 
ATOM     24  C   UNL     1       2.591   7.439  18.273  0.00  0.00    +0.000 A 
ATOM     25  C   UNL     1       2.418   8.710  17.725  0.00  0.00    +0.000 A 
ATOM     26  C   UNL     1       1.852   9.747  18.490  0.00  0.00    +0.000 A 
BRANCH  24  27
ATOM     27  O   UNL     1       3.131   6.459  17.463  0.00  0.00    +0.000 OA
BRANCH  27  28
ATOM     28  C   UNL     1       4.007   5.583  18.184  0.00  0.00    +0.000 C 
BRANCH  28  29
ATOM     29  C   UNL     1       3.913   4.108  17.788  0.00  0.00    +0.000 C 
BRANCH  29  30
ATOM     30  N   UNL     1       3.049   3.340  18.724  0.00  0.00    +0.000 NA
ATOM     31  C   UNL     1       3.341   3.732  20.111  0.00  0.00    +0.000 C 
ATOM     32  C   UNL     1       2.497   2.947  21.120  0.00  0.00    +0.000 C 
ATOM     33  C   UNL     1       1.010   3.085  20.828  0.00  0.00    +0.000 C 
ATOM     34  C   UNL     1       0.729   2.692  19.387  0.00  0.00    +0.000 C 
ATOM     35  C   UNL     1       1.613   3.480  18.420  0.00  0.00    +0.000 C 
ENDBRANCH  29  30
ENDBRANCH  28  29
ENDBRANCH  27  28
ENDBRANCH  24  27
ENDBRANCH  11  21
BRANCH   4  36
ATOM     36  O   UNL     1       1.128  16.578  20.517  0.00  0.00    +0.000 OA
ATOM     37  H   UNL     1       2.094  16.496  20.461  0.00  0.00    +0.000 HD
ENDBRANCH   4  36
TORSDOF 8
ENDMDL
MODEL 7
REMARK VINA RESULT:      -8.1      1.074      1.947
REMARK  Name = 
REMARK  9 active torsions:
REMARK  status: ('A' for Active; 'I' for Inactive)
REMARK    1  A    between atoms: C_1  and  C_2
REMARK    2  A    between atoms: C_4  and  O_5
REMARK    3  A    between atoms: C_11  and  C_12
REMARK    4  A    between atoms: C_15  and  O_16
REMARK    5  A    between atoms: C_19  and  C_20
REMARK    6  A    between atoms: C_23  and  O_24
REMARK    7  A    between atoms: O_24  and  C_25
REMARK    8  A    between atoms: C_25  and  C_26
REMARK    9  A    between atoms: C_26  and  N_27
REMARK                            x       y       z     vdW  Elec       q    Type
REMARK                         _______ _______ _______ _____ _____    ______ ____
ROOT
ATOM      1  C   UNL     1      -2.347  15.454  21.795  0.00  0.00    +0.000 C 
ATOM      2  C   UNL     1      -1.289  15.221  20.756  0.00  0.00    +0.000 A 
ATOM      3  C   UNL     1      -0.830  16.309  19.994  0.00  0.00    +0.000 A 
ATOM      4  C   UNL     1       0.149  16.121  19.016  0.00  0.00    +0.000 A 
ATOM      5  C   UNL     1       0.715  14.875  18.809  0.00  0.00    +0.000 A 
ATOM      6  C   UNL     1       0.277  13.787  19.564  0.00  0.00    +0.000 A 
ATOM      7  C   UNL     1      -0.749  13.947  20.501  0.00  0.00    +0.000 A 
ATOM      8  C   UNL     1      -1.268  12.705  21.129  0.00  0.00    +0.000 C 
ATOM      9  O   UNL     1      -1.875  12.714  22.195  0.00  0.00    +0.000 OA
ATOM     10  C   UNL     1      -1.000  11.428  20.360  0.00  0.00    +0.000 C 
ATOM     11  C   UNL     1       0.524  11.482  20.131  0.00  0.00    +0.000 C 
ATOM     12  O   UNL     1       0.892  12.597  19.291  0.00  0.00    +0.000 OA
ENDROOT
BRANCH  10  13
ATOM     13  C   UNL     1      -1.960  11.280  19.176  0.00  0.00    +0.000 A 
ATOM     14  C   UNL     1      -1.716  10.453  18.069  0.00  0.00    +0.000 A 
ATOM     15  C   UNL     1      -2.655  10.303  17.044  0.00  0.00    +0.000 A 
ATOM     16  C   UNL     1      -3.846  11.009  17.103  0.00  0.00    +0.000 A 
ATOM     17  C   UNL     1      -4.102  11.871  18.158  0.00  0.00    +0.000 A 
ATOM     18  C   UNL     1      -3.167  12.002  19.191  0.00  0.00    +0.000 A 
BRANCH  16  19
ATOM     19  O   UNL     1      -4.794  10.878  16.132  0.00  0.00    +0.000 OA
ATOM     20  H   UNL     1      -4.428  11.218  15.298  0.00  0.00    +0.000 HD
ENDBRANCH  16  19
ENDBRANCH  10  13
BRANCH  11  21
ATOM     21  C   UNL     1       1.125  10.202  19.566  0.00  0.00    +0.000 A 
ATOM     22  C   UNL     1       1.142   9.040  20.340  0.00  0.00    +0.000 A 
ATOM     23  C   UNL     1       1.677   7.857  19.853  0.00  0.00    +0.000 A 
ATOM     24  C   UNL     1       2.180   7.773  18.552  0.00  0.00    +0.000 A 
ATOM     25  C   UNL     1       2.165   8.922  17.760  0.00  0.00    +0.000 A 
ATOM     26  C   UNL     1       1.646  10.129  18.262  0.00  0.00    +0.000 A 
BRANCH  24  27
ATOM     27  O   UNL     1       2.682   6.614  17.992  0.00  0.00    +0.000 OA
BRANCH  27  28
ATOM     28  C   UNL     1       4.046   6.761  17.576  0.00  0.00    +0.000 C 
BRANCH  28  29
ATOM     29  C   UNL     1       4.912   5.512  17.753  0.00  0.00    +0.000 C 
BRANCH  29  30
ATOM     30  N   UNL     1       4.121   4.361  18.265  0.00  0.00    +0.000 NA
ATOM     31  C   UNL     1       3.693   3.511  17.144  0.00  0.00    +0.000 C 
ATOM     32  C   UNL     1       2.847   2.324  17.615  0.00  0.00    +0.000 C 
ATOM     33  C   UNL     1       3.582   1.497  18.661  0.00  0.00    +0.000 C 
ATOM     34  C   UNL     1       4.032   2.394  19.802  0.00  0.00    +0.000 C 
ATOM     35  C   UNL     1       4.847   3.578  19.283  0.00  0.00    +0.000 C 
ENDBRANCH  29  30
ENDBRANCH  28  29
ENDBRANCH  27  28
ENDBRANCH  24  27
ENDBRANCH  11  21
BRANCH   4  36
ATOM     36  O   UNL     1       0.576  17.151  18.233  0.00  0.00    +0.000 OA
ATOM     37  H   UNL     1       0.724  17.933  18.790  0.00  0.00    +0.000 HD
ENDBRANCH   4  36
TORSDOF 8
ENDMDL
MODEL 8
REMARK VINA RESULT:      -7.9      1.460      2.001
REMARK  Name = 
REMARK  9 active torsions:
REMARK  status: ('A' for Active; 'I' for Inactive)
REMARK    1  A    between atoms: C_1  and  C_2
REMARK    2  A    between atoms: C_4  and  O_5
REMARK    3  A    between atoms: C_11  and  C_12
REMARK    4  A    between atoms: C_15  and  O_16
REMARK    5  A    between atoms: C_19  and  C_20
REMARK    6  A    between atoms: C_23  and  O_24
REMARK    7  A    between atoms: O_24  and  C_25
REMARK    8  A    between atoms: C_25  and  C_26
REMARK    9  A    between atoms: C_26  and  N_27
REMARK                            x       y       z     vdW  Elec       q    Type
REMARK                         _______ _______ _______ _____ _____    ______ ____
ROOT
ATOM      1  C   UNL     1      -0.499  15.606  20.523  0.00  0.00    +0.000 C 
ATOM      2  C   UNL     1       0.520  14.842  19.729  0.00  0.00    +0.000 A 
ATOM      3  C   UNL     1       1.339  15.536  18.822  0.00  0.00    +0.000 A 
ATOM      4  C   UNL     1       2.290  14.851  18.065  0.00  0.00    +0.000 A 
ATOM      5  C   UNL     1       2.478  13.489  18.224  0.00  0.00    +0.000 A 
ATOM      6  C   UNL     1       1.680  12.787  19.128  0.00  0.00    +0.000 A 
ATOM      7  C   UNL     1       0.677  13.448  19.844  0.00  0.00    +0.000 A 
ATOM      8  C   UNL     1      -0.233  12.593  20.648  0.00  0.00    +0.000 C 
ATOM      9  O   UNL     1      -0.892  13.034  21.584  0.00  0.00    +0.000 OA
ATOM     10  C   UNL     1      -0.295  11.139  20.228  0.00  0.00    +0.000 C 
ATOM     11  C   UNL     1       1.189  10.722  20.221  0.00  0.00    +0.000 C 
ATOM     12  O   UNL     1       1.934  11.447  19.218  0.00  0.00    +0.000 OA
ENDROOT
BRANCH  10  13
ATOM     13  C   UNL     1      -1.161  10.957  18.979  0.00  0.00    +0.000 A 
ATOM     14  C   UNL     1      -0.914   9.995  17.988  0.00  0.00    +0.000 A 
ATOM     15  C   UNL     1      -1.773   9.827  16.898  0.00  0.00    +0.000 A 
ATOM     16  C   UNL     1      -2.881  10.648  16.771  0.00  0.00    +0.000 A 
ATOM     17  C   UNL     1      -3.132  11.641  17.706  0.00  0.00    +0.000 A 
ATOM     18  C   UNL     1      -2.281  11.792  18.805  0.00  0.00    +0.000 A 
BRANCH  16  19
ATOM     19  O   UNL     1      -3.752  10.506  15.731  0.00  0.00    +0.000 OA
ATOM     20  H   UNL     1      -3.443  11.060  14.995  0.00  0.00    +0.000 HD
ENDBRANCH  16  19
ENDBRANCH  10  13
BRANCH  11  21
ATOM     21  C   UNL     1       1.427   9.228  20.048  0.00  0.00    +0.000 A 
ATOM     22  C   UNL     1       2.042   8.751  18.888  0.00  0.00    +0.000 A 
ATOM     23  C   UNL     1       2.279   7.397  18.703  0.00  0.00    +0.000 A 
ATOM     24  C   UNL     1       1.948   6.464  19.689  0.00  0.00    +0.000 A 
ATOM     25  C   UNL     1       1.340   6.922  20.858  0.00  0.00    +0.000 A 
ATOM     26  C   UNL     1       1.076   8.293  21.037  0.00  0.00    +0.000 A 
BRANCH  24  27
ATOM     27  O   UNL     1       2.201   5.110  19.585  0.00  0.00    +0.000 OA
BRANCH  27  28
ATOM     28  C   UNL     1       2.515   4.720  18.241  0.00  0.00    +0.000 C 
BRANCH  28  29
ATOM     29  C   UNL     1       3.643   3.694  18.115  0.00  0.00    +0.000 C 
BRANCH  29  30
ATOM     30  N   UNL     1       4.938   4.337  17.767  0.00  0.00    +0.000 NA
ATOM     31  C   UNL     1       4.721   5.388  16.762  0.00  0.00    +0.000 C 
ATOM     32  C   UNL     1       6.031   6.064  16.345  0.00  0.00    +0.000 C 
ATOM     33  C   UNL     1       6.776   6.623  17.549  0.00  0.00    +0.000 C 
ATOM     34  C   UNL     1       6.977   5.529  18.584  0.00  0.00    +0.000 C 
ATOM     35  C   UNL     1       5.648   4.865  18.947  0.00  0.00    +0.000 C 
ENDBRANCH  29  30
ENDBRANCH  28  29
ENDBRANCH  27  28
ENDBRANCH  24  27
ENDBRANCH  11  21
BRANCH   4  36
ATOM     36  O   UNL     1       3.063  15.495  17.145  0.00  0.00    +0.000 OA
ATOM     37  H   UNL     1       3.497  16.252  17.569  0.00  0.00    +0.000 HD
ENDBRANCH   4  36
TORSDOF 8
ENDMDL
MODEL 9
REMARK VINA RESULT:      -7.8      1.503      2.243
REMARK  Name = 
REMARK  9 active torsions:
REMARK  status: ('A' for Active; 'I' for Inactive)
REMARK    1  A    between atoms: C_1  and  C_2
REMARK    2  A    between atoms: C_4  and  O_5
REMARK    3  A    between atoms: C_11  and  C_12
REMARK    4  A    between atoms: C_15  and  O_16
REMARK    5  A    between atoms: C_19  and  C_20
REMARK    6  A    between atoms: C_23  and  O_24
REMARK    7  A    between atoms: O_24  and  C_25
REMARK    8  A    between atoms: C_25  and  C_26
REMARK    9  A    between atoms: C_26  and  N_27
REMARK                            x       y       z     vdW  Elec       q    Type
REMARK                         _______ _______ _______ _____ _____    ______ ____
ROOT
ATOM      1  C   UNL     1      -0.272  15.548  20.484  0.00  0.00    +0.000 C 
ATOM      2  C   UNL     1       0.712  14.731  19.700  0.00  0.00    +0.000 A 
ATOM      3  C   UNL     1       1.549  15.376  18.773  0.00  0.00    +0.000 A 
ATOM      4  C   UNL     1       2.470  14.641  18.024  0.00  0.00    +0.000 A 
ATOM      5  C   UNL     1       2.608  13.276  18.210  0.00  0.00    +0.000 A 
ATOM      6  C   UNL     1       1.792  12.623  19.134  0.00  0.00    +0.000 A 
ATOM      7  C   UNL     1       0.819  13.335  19.843  0.00  0.00    +0.000 A 
ATOM      8  C   UNL     1      -0.116  12.531  20.670  0.00  0.00    +0.000 C 
ATOM      9  O   UNL     1      -0.751  13.015  21.602  0.00  0.00    +0.000 OA
ATOM     10  C   UNL     1      -0.234  11.071  20.281  0.00  0.00    +0.000 C 
ATOM     11  C   UNL     1       1.234  10.601  20.273  0.00  0.00    +0.000 C 
ATOM     12  O   UNL     1       1.998  11.277  19.251  0.00  0.00    +0.000 OA
ENDROOT
BRANCH  10  13
ATOM     13  C   UNL     1      -1.115  10.896  19.042  0.00  0.00    +0.000 A 
ATOM     14  C   UNL     1      -0.804  10.039  17.975  0.00  0.00    +0.000 A 
ATOM     15  C   UNL     1      -1.675   9.867  16.895  0.00  0.00    +0.000 A 
ATOM     16  C   UNL     1      -2.863  10.579  16.856  0.00  0.00    +0.000 A 
ATOM     17  C   UNL     1      -3.182  11.470  17.870  0.00  0.00    +0.000 A 
ATOM     18  C   UNL     1      -2.316  11.624  18.957  0.00  0.00    +0.000 A 
BRANCH  16  19
ATOM     19  O   UNL     1      -3.746  10.427  15.828  0.00  0.00    +0.000 OA
ATOM     20  H   UNL     1      -4.432  11.110  15.911  0.00  0.00    +0.000 HD
ENDBRANCH  16  19
ENDBRANCH  10  13
BRANCH  11  21
ATOM     21  C   UNL     1       1.416   9.095  20.129  0.00  0.00    +0.000 A 
ATOM     22  C   UNL     1       0.971   8.241  21.140  0.00  0.00    +0.000 A 
ATOM     23  C   UNL     1       1.116   6.866  21.037  0.00  0.00    +0.000 A 
ATOM     24  C   UNL     1       1.675   6.281  19.898  0.00  0.00    +0.000 A 
ATOM     25  C   UNL     1       2.119   7.118  18.873  0.00  0.00    +0.000 A 
ATOM     26  C   UNL     1       1.995   8.515  18.987  0.00  0.00    +0.000 A 
BRANCH  24  27
ATOM     27  O   UNL     1       1.803   4.918  19.714  0.00  0.00    +0.000 OA
BRANCH  27  28
ATOM     28  C   UNL     1       3.165   4.484  19.828  0.00  0.00    +0.000 C 
BRANCH  28  29
ATOM     29  C   UNL     1       3.760   3.888  18.551  0.00  0.00    +0.000 C 
BRANCH  29  30
ATOM     30  N   UNL     1       5.216   4.169  18.436  0.00  0.00    +0.000 NA
ATOM     31  C   UNL     1       5.574   4.393  17.028  0.00  0.00    +0.000 C 
ATOM     32  C   UNL     1       7.072   4.658  16.851  0.00  0.00    +0.000 C 
ATOM     33  C   UNL     1       7.536   5.824  17.711  0.00  0.00    +0.000 C 
ATOM     34  C   UNL     1       7.144   5.585  19.159  0.00  0.00    +0.000 C 
ATOM     35  C   UNL     1       5.647   5.297  19.283  0.00  0.00    +0.000 C 
ENDBRANCH  29  30
ENDBRANCH  28  29
ENDBRANCH  27  28
ENDBRANCH  24  27
ENDBRANCH  11  21
BRANCH   4  36
ATOM     36  O   UNL     1       3.258  15.237  17.086  0.00  0.00    +0.000 OA
ATOM     37  H   UNL     1       4.189  15.133  17.342  0.00  0.00    +0.000 HD
ENDBRANCH   4  36
TORSDOF 8
ENDMDL
