MODEL 1
REMARK VINA RESULT:      -7.9      0.000      0.000
REMARK  Name = 
REMARK  4 active torsions:
REMARK  status: ('A' for Active; 'I' for Inactive)
REMARK    1  A    between atoms: C_2  and  C_4
REMARK    2  A    between atoms: C_15  and  C_16
REMARK    3  A    between atoms: C_16  and  C_17
REMARK    4  A    between atoms: C_22  and  O_23
REMARK                            x       y       z     vdW  Elec       q    Type
REMARK                         _______ _______ _______ _____ _____    ______ ____
ROOT
ATOM      1  C   UNL     1       3.194   3.551  19.522  0.00  0.00    +0.000 A 
ATOM      2  C   UNL     1       2.507   3.540  20.748  0.00  0.00    +0.000 A 
ATOM      3  C   UNL     1       1.879   4.690  21.219  0.00  0.00    +0.000 A 
ATOM      4  C   UNL     1       1.914   5.865  20.472  0.00  0.00    +0.000 A 
ATOM      5  C   UNL     1       2.590   5.882  19.257  0.00  0.00    +0.000 A 
ATOM      6  C   UNL     1       3.249   4.740  18.803  0.00  0.00    +0.000 A 
ATOM      7  C   UNL     1       3.852   5.022  17.459  0.00  0.00    +0.000 C 
ATOM      8  C   UNL     1       3.688   6.554  17.348  0.00  0.00    +0.000 C 
ATOM      9  N   UNL     1       2.691   6.952  18.352  0.00  0.00    +0.000 N 
ATOM     10  C   UNL     1       2.281   8.275  18.426  0.00  0.00    +0.000 A 
ATOM     11  C   UNL     1       0.997   8.586  18.909  0.00  0.00    +0.000 A 
ATOM     12  C   UNL     1       0.523   9.904  18.905  0.00  0.00    +0.000 A 
ATOM     13  C   UNL     1       1.365  10.885  18.393  0.00  0.00    +0.000 A 
ATOM     14  C   UNL     1       2.629  10.513  17.957  0.00  0.00    +0.000 A 
ATOM     15  N   UNL     1       3.093   9.247  17.960  0.00  0.00    +0.000 NA
ENDROOT
BRANCH   1  17
ATOM     16  N   UNL     1       4.924   1.862  19.622  0.00  0.00    +0.000 N 
ATOM     17  C   UNL     1       3.794   2.303  18.999  0.00  0.00    +0.000 C 
ATOM     18  O   UNL     1       3.292   1.665  18.079  0.00  0.00    +0.000 OA
ATOM     19  H   UNL     1       5.274   0.953  19.340  0.00  0.00    +0.000 HD
ATOM     20  H   UNL     1       5.216   2.221  20.517  0.00  0.00    +0.000 HD
ENDBRANCH   1  17
BRANCH  12  21
ATOM     21  C   UNL     1      -0.851  10.259  19.443  0.00  0.00    +0.000 C 
BRANCH  21  22
ATOM     22  C   UNL     1      -1.859  10.565  18.354  0.00  0.00    +0.000 A 
ATOM     23  C   UNL     1      -1.864   9.835  17.151  0.00  0.00    +0.000 A 
ATOM     24  C   UNL     1      -2.899   9.997  16.226  0.00  0.00    +0.000 A 
ATOM     25  C   UNL     1      -3.933  10.881  16.508  0.00  0.00    +0.000 A 
ATOM     26  F   UNL     1      -4.976  10.979  15.669  0.00  0.00    +0.000 F 
ATOM     27  C   UNL     1      -3.915  11.641  17.671  0.00  0.00    +0.000 A 
ATOM     28  C   UNL     1      -2.870  11.514  18.579  0.00  0.00    +0.000 A 
BRANCH  27  29
ATOM     29  O   UNL     1      -4.948  12.481  17.983  0.00  0.00    +0.000 OA
ATOM     30  H   UNL     1      -4.666  13.380  17.729  0.00  0.00    +0.000 HD
ENDBRANCH  27  29
ENDBRANCH  21  22
ENDBRANCH  12  21
TORSDOF 4
ENDMDL
MODEL 2
REMARK VINA RESULT:      -7.7      4.279      9.344
REMARK  Name = 
REMARK  4 active torsions:
REMARK  status: ('A' for Active; 'I' for Inactive)
REMARK    1  A    between atoms: C_2  and  C_4
REMARK    2  A    between atoms: C_15  and  C_16
REMARK    3  A    between atoms: C_16  and  C_17
REMARK    4  A    between atoms: C_22  and  O_23
REMARK                            x       y       z     vdW  Elec       q    Type
REMARK                         _______ _______ _______ _____ _____    ______ ____
ROOT
ATOM      1  C   UNL     1       0.936  14.969  19.091  0.00  0.00    +0.000 A 
ATOM      2  C   UNL     1       2.144  15.013  18.375  0.00  0.00    +0.000 A 
ATOM      3  C   UNL     1       2.906  13.861  18.196  0.00  0.00    +0.000 A 
ATOM      4  C   UNL     1       2.471  12.646  18.717  0.00  0.00    +0.000 A 
ATOM      5  C   UNL     1       1.276  12.593  19.426  0.00  0.00    +0.000 A 
ATOM      6  C   UNL     1       0.532  13.754  19.635  0.00  0.00    +0.000 A 
ATOM      7  C   UNL     1      -0.721  13.408  20.383  0.00  0.00    +0.000 C 
ATOM      8  C   UNL     1      -0.445  11.951  20.814  0.00  0.00    +0.000 C 
ATOM      9  N   UNL     1       0.660  11.459  19.978  0.00  0.00    +0.000 N 
ATOM     10  C   UNL     1       1.072  10.139  20.091  0.00  0.00    +0.000 A 
ATOM     11  C   UNL     1       1.660   9.490  18.991  0.00  0.00    +0.000 A 
ATOM     12  C   UNL     1       1.997   8.132  19.048  0.00  0.00    +0.000 A 
ATOM     13  C   UNL     1       1.714   7.452  20.227  0.00  0.00    +0.000 A 
ATOM     14  C   UNL     1       1.158   8.159  21.283  0.00  0.00    +0.000 A 
ATOM     15  N   UNL     1       0.832   9.466  21.237  0.00  0.00    +0.000 NA
ENDROOT
BRANCH   1  17
ATOM     16  N   UNL     1      -0.816  16.394  18.224  0.00  0.00    +0.000 N 
ATOM     17  C   UNL     1       0.102  16.185  19.210  0.00  0.00    +0.000 C 
ATOM     18  O   UNL     1       0.191  16.956  20.162  0.00  0.00    +0.000 OA
ATOM     19  H   UNL     1      -1.463  17.164  18.359  0.00  0.00    +0.000 HD
ATOM     20  H   UNL     1      -1.078  15.670  17.574  0.00  0.00    +0.000 HD
ENDBRANCH   1  17
BRANCH  12  21
ATOM     21  C   UNL     1       2.653   7.423  17.877  0.00  0.00    +0.000 C 
BRANCH  21  22
ATOM     22  C   UNL     1       2.873   5.943  18.120  0.00  0.00    +0.000 A 
ATOM     23  C   UNL     1       1.860   5.008  17.835  0.00  0.00    +0.000 A 
ATOM     24  C   UNL     1       2.125   3.637  17.891  0.00  0.00    +0.000 A 
ATOM     25  C   UNL     1       3.402   3.201  18.223  0.00  0.00    +0.000 A 
ATOM     26  F   UNL     1       3.689   1.891  18.194  0.00  0.00    +0.000 F 
ATOM     27  C   UNL     1       4.396   4.114  18.551  0.00  0.00    +0.000 A 
ATOM     28  C   UNL     1       4.133   5.479  18.535  0.00  0.00    +0.000 A 
BRANCH  27  29
ATOM     29  O   UNL     1       5.669   3.702  18.836  0.00  0.00    +0.000 OA
ATOM     30  H   UNL     1       5.611   2.758  19.076  0.00  0.00    +0.000 HD
ENDBRANCH  27  29
ENDBRANCH  21  22
ENDBRANCH  12  21
TORSDOF 4
ENDMDL
MODEL 3
REMARK VINA RESULT:      -7.7      4.299      8.865
REMARK  Name = 
REMARK  4 active torsions:
REMARK  status: ('A' for Active; 'I' for Inactive)
REMARK    1  A    between atoms: C_2  and  C_4
REMARK    2  A    between atoms: C_15  and  C_16
REMARK    3  A    between atoms: C_16  and  C_17
REMARK    4  A    between atoms: C_22  and  O_23
REMARK                            x       y       z     vdW  Elec       q    Type
REMARK                         _______ _______ _______ _____ _____    ______ ____
ROOT
ATOM      1  C   UNL     1      -0.817  12.941  22.483  0.00  0.00    +0.000 A 
ATOM      2  C   UNL     1      -1.536  12.027  23.271  0.00  0.00    +0.000 A 
ATOM      3  C   UNL     1      -1.444  10.658  23.033  0.00  0.00    +0.000 A 
ATOM      4  C   UNL     1      -0.626  10.177  22.014  0.00  0.00    +0.000 A 
ATOM      5  C   UNL     1       0.091  11.076  21.231  0.00  0.00    +0.000 A 
ATOM      6  C   UNL     1      -0.030  12.448  21.447  0.00  0.00    +0.000 A 
ATOM      7  C   UNL     1       0.876  13.177  20.501  0.00  0.00    +0.000 C 
ATOM      8  C   UNL     1       1.305  12.050  19.535  0.00  0.00    +0.000 C 
ATOM      9  N   UNL     1       0.995  10.776  20.199  0.00  0.00    +0.000 N 
ATOM     10  C   UNL     1       1.351   9.580  19.592  0.00  0.00    +0.000 A 
ATOM     11  C   UNL     1       1.612   8.444  20.378  0.00  0.00    +0.000 A 
ATOM     12  C   UNL     1       2.065   7.252  19.798  0.00  0.00    +0.000 A 
ATOM     13  C   UNL     1       2.257   7.244  18.421  0.00  0.00    +0.000 A 
ATOM     14  C   UNL     1       1.955   8.391  17.702  0.00  0.00    +0.000 A 
ATOM     15  N   UNL     1       1.517   9.541  18.253  0.00  0.00    +0.000 NA
ENDROOT
BRANCH   1  17
ATOM     16  N   UNL     1      -1.945  15.075  22.322  0.00  0.00    +0.000 N 
ATOM     17  C   UNL     1      -0.867  14.387  22.794  0.00  0.00    +0.000 C 
ATOM     18  O   UNL     1      -0.012  14.945  23.475  0.00  0.00    +0.000 OA
ATOM     19  H   UNL     1      -2.039  16.039  22.626  0.00  0.00    +0.000 HD
ATOM     20  H   UNL     1      -2.770  14.609  21.979  0.00  0.00    +0.000 HD
ENDBRANCH   1  17
BRANCH  12  21
ATOM     21  C   UNL     1       2.330   6.011  20.630  0.00  0.00    +0.000 C 
BRANCH  21  22
ATOM     22  C   UNL     1       2.666   4.791  19.795  0.00  0.00    +0.000 A 
ATOM     23  C   UNL     1       4.000   4.490  19.464  0.00  0.00    +0.000 A 
ATOM     24  C   UNL     1       4.323   3.277  18.850  0.00  0.00    +0.000 A 
ATOM     25  C   UNL     1       3.313   2.362  18.574  0.00  0.00    +0.000 A 
ATOM     26  F   UNL     1       3.622   1.160  18.066  0.00  0.00    +0.000 F 
ATOM     27  C   UNL     1       1.987   2.668  18.855  0.00  0.00    +0.000 A 
ATOM     28  C   UNL     1       1.653   3.888  19.432  0.00  0.00    +0.000 A 
BRANCH  27  29
ATOM     29  O   UNL     1       0.990   1.760  18.631  0.00  0.00    +0.000 OA
ATOM     30  H   UNL     1       0.244   2.253  18.239  0.00  0.00    +0.000 HD
ENDBRANCH  27  29
ENDBRANCH  21  22
ENDBRANCH  12  21
TORSDOF 4
ENDMDL
MODEL 4
REMARK VINA RESULT:      -7.7      4.278      8.953
REMARK  Name = 
REMARK  4 active torsions:
REMARK  status: ('A' for Active; 'I' for Inactive)
REMARK    1  A    between atoms: C_2  and  C_4
REMARK    2  A    between atoms: C_15  and  C_16
REMARK    3  A    between atoms: C_16  and  C_17
REMARK    4  A    between atoms: C_22  and  O_23
REMARK                            x       y       z     vdW  Elec       q    Type
REMARK                         _______ _______ _______ _____ _____    ______ ____
ROOT
ATOM      1  C   UNL     1      -0.691  13.358  22.376  0.00  0.00    +0.000 A 
ATOM      2  C   UNL     1      -1.503  12.505  23.141  0.00  0.00    +0.000 A 
ATOM      3  C   UNL     1      -1.499  11.130  22.917  0.00  0.00    +0.000 A 
ATOM      4  C   UNL     1      -0.676  10.583  21.937  0.00  0.00    +0.000 A 
ATOM      5  C   UNL     1       0.133  11.420  21.177  0.00  0.00    +0.000 A 
ATOM      6  C   UNL     1       0.100  12.800  21.377  0.00  0.00    +0.000 A 
ATOM      7  C   UNL     1       1.093  13.453  20.463  0.00  0.00    +0.000 C 
ATOM      8  C   UNL     1       1.480  12.289  19.524  0.00  0.00    +0.000 C 
ATOM      9  N   UNL     1       1.054  11.047  20.185  0.00  0.00    +0.000 N 
ATOM     10  C   UNL     1       1.349   9.823  19.602  0.00  0.00    +0.000 A 
ATOM     11  C   UNL     1       1.498   8.679  20.406  0.00  0.00    +0.000 A 
ATOM     12  C   UNL     1       1.888   7.452  19.855  0.00  0.00    +0.000 A 
ATOM     13  C   UNL     1       2.135   7.417  18.487  0.00  0.00    +0.000 A 
ATOM     14  C   UNL     1       1.943   8.575  17.747  0.00  0.00    +0.000 A 
ATOM     15  N   UNL     1       1.565   9.758  18.271  0.00  0.00    +0.000 NA
ENDROOT
BRANCH   1  17
ATOM     16  N   UNL     1      -1.548  15.591  22.011  0.00  0.00    +0.000 N 
ATOM     17  C   UNL     1      -0.651  14.807  22.674  0.00  0.00    +0.000 C 
ATOM     18  O   UNL     1       0.116  15.289  23.503  0.00  0.00    +0.000 OA
ATOM     19  H   UNL     1      -1.599  16.564  22.292  0.00  0.00    +0.000 HD
ATOM     20  H   UNL     1      -2.338  15.202  21.519  0.00  0.00    +0.000 HD
ENDBRANCH   1  17
BRANCH  12  21
ATOM     21  C   UNL     1       2.032   6.205  20.706  0.00  0.00    +0.000 C 
BRANCH  21  22
ATOM     22  C   UNL     1       2.491   4.993  19.920  0.00  0.00    +0.000 A 
ATOM     23  C   UNL     1       1.565   4.190  19.228  0.00  0.00    +0.000 A 
ATOM     24  C   UNL     1       2.004   3.184  18.364  0.00  0.00    +0.000 A 
ATOM     25  C   UNL     1       3.368   2.986  18.184  0.00  0.00    +0.000 A 
ATOM     26  F   UNL     1       3.800   2.083  17.291  0.00  0.00    +0.000 F 
ATOM     27  C   UNL     1       4.291   3.742  18.897  0.00  0.00    +0.000 A 
ATOM     28  C   UNL     1       3.863   4.720  19.787  0.00  0.00    +0.000 A 
BRANCH  27  29
ATOM     29  O   UNL     1       5.635   3.589  18.696  0.00  0.00    +0.000 OA
ATOM     30  H   UNL     1       6.064   4.393  19.046  0.00  0.00    +0.000 HD
ENDBRANCH  27  29
ENDBRANCH  21  22
ENDBRANCH  12  21
TORSDOF 4
ENDMDL
MODEL 5
REMARK VINA RESULT:      -7.6      3.805      8.926
REMARK  Name = 
REMARK  4 active torsions:
REMARK  status: ('A' for Active; 'I' for Inactive)
REMARK    1  A    between atoms: C_2  and  C_4
REMARK    2  A    between atoms: C_15  and  C_16
REMARK    3  A    between atoms: C_16  and  C_17
REMARK    4  A    between atoms: C_22  and  O_23
REMARK                            x       y       z     vdW  Elec       q    Type
REMARK                         _______ _______ _______ _____ _____    ______ ____
ROOT
ATOM      1  C   UNL     1      -0.548  13.845  19.793  0.00  0.00    +0.000 A 
ATOM      2  C   UNL     1      -1.641  13.251  20.445  0.00  0.00    +0.000 A 
ATOM      3  C   UNL     1      -1.735  11.866  20.557  0.00  0.00    +0.000 A 
ATOM      4  C   UNL     1      -0.735  11.052  20.032  0.00  0.00    +0.000 A 
ATOM      5  C   UNL     1       0.351  11.632  19.386  0.00  0.00    +0.000 A 
ATOM      6  C   UNL     1       0.425  13.017  19.243  0.00  0.00    +0.000 A 
ATOM      7  C   UNL     1       1.709  13.372  18.555  0.00  0.00    +0.000 C 
ATOM      8  C   UNL     1       2.210  11.992  18.076  0.00  0.00    +0.000 C 
ATOM      9  N   UNL     1       1.468  10.979  18.841  0.00  0.00    +0.000 N 
ATOM     10  C   UNL     1       1.771   9.635  18.676  0.00  0.00    +0.000 A 
ATOM     11  C   UNL     1       1.547   8.730  19.728  0.00  0.00    +0.000 A 
ATOM     12  C   UNL     1       1.932   7.387  19.622  0.00  0.00    +0.000 A 
ATOM     13  C   UNL     1       2.556   6.993  18.444  0.00  0.00    +0.000 A 
ATOM     14  C   UNL     1       2.722   7.930  17.435  0.00  0.00    +0.000 A 
ATOM     15  N   UNL     1       2.353   9.223  17.529  0.00  0.00    +0.000 NA
ENDROOT
BRANCH   1  17
ATOM     16  N   UNL     1      -0.731  15.919  18.561  0.00  0.00    +0.000 N 
ATOM     17  C   UNL     1      -0.425  15.319  19.746  0.00  0.00    +0.000 C 
ATOM     18  O   UNL     1      -0.105  15.986  20.726  0.00  0.00    +0.000 OA
ATOM     19  H   UNL     1      -0.755  16.933  18.556  0.00  0.00    +0.000 HD
ATOM     20  H   UNL     1      -1.223  15.434  17.826  0.00  0.00    +0.000 HD
ENDBRANCH   1  17
BRANCH  12  21
ATOM     21  C   UNL     1       1.676   6.394  20.740  0.00  0.00    +0.000 C 
BRANCH  21  22
ATOM     22  C   UNL     1       2.007   4.964  20.358  0.00  0.00    +0.000 A 
ATOM     23  C   UNL     1       0.987   4.053  20.027  0.00  0.00    +0.000 A 
ATOM     24  C   UNL     1       1.301   2.795  19.506  0.00  0.00    +0.000 A 
ATOM     25  C   UNL     1       2.633   2.451  19.308  0.00  0.00    +0.000 A 
ATOM     26  F   UNL     1       2.942   1.282  18.727  0.00  0.00    +0.000 F 
ATOM     27  C   UNL     1       3.649   3.326  19.674  0.00  0.00    +0.000 A 
ATOM     28  C   UNL     1       3.348   4.565  20.227  0.00  0.00    +0.000 A 
BRANCH  27  29
ATOM     29  O   UNL     1       4.962   3.020  19.442  0.00  0.00    +0.000 OA
ATOM     30  H   UNL     1       5.048   2.053  19.547  0.00  0.00    +0.000 HD
ENDBRANCH  27  29
ENDBRANCH  21  22
ENDBRANCH  12  21
TORSDOF 4
ENDMDL
MODEL 6
REMARK VINA RESULT:      -7.5      5.218      9.892
REMARK  Name = 
REMARK  4 active torsions:
REMARK  status: ('A' for Active; 'I' for Inactive)
REMARK    1  A    between atoms: C_2  and  C_4
REMARK    2  A    between atoms: C_15  and  C_16
REMARK    3  A    between atoms: C_16  and  C_17
REMARK    4  A    between atoms: C_22  and  O_23
REMARK                            x       y       z     vdW  Elec       q    Type
REMARK                         _______ _______ _______ _____ _____    ______ ____
ROOT
ATOM      1  C   UNL     1      -5.197  13.867  23.437  0.00  0.00    +0.000 A 
ATOM      2  C   UNL     1      -4.214  13.347  24.296  0.00  0.00    +0.000 A 
ATOM      3  C   UNL     1      -3.178  12.561  23.796  0.00  0.00    +0.000 A 
ATOM      4  C   UNL     1      -3.098  12.292  22.433  0.00  0.00    +0.000 A 
ATOM      5  C   UNL     1      -4.066  12.805  21.576  0.00  0.00    +0.000 A 
ATOM      6  C   UNL     1      -5.123  13.561  22.082  0.00  0.00    +0.000 A 
ATOM      7  C   UNL     1      -5.987  14.020  20.947  0.00  0.00    +0.000 C 
ATOM      8  C   UNL     1      -5.438  13.187  19.767  0.00  0.00    +0.000 C 
ATOM      9  N   UNL     1      -4.121  12.679  20.179  0.00  0.00    +0.000 N 
ATOM     10  C   UNL     1      -3.352  11.957  19.278  0.00  0.00    +0.000 A 
ATOM     11  C   UNL     1      -1.950  11.963  19.389  0.00  0.00    +0.000 A 
ATOM     12  C   UNL     1      -1.146  11.321  18.438  0.00  0.00    +0.000 A 
ATOM     13  C   UNL     1      -1.789  10.693  17.377  0.00  0.00    +0.000 A 
ATOM     14  C   UNL     1      -3.176  10.702  17.343  0.00  0.00    +0.000 A 
ATOM     15  N   UNL     1      -3.956  11.316  18.255  0.00  0.00    +0.000 NA
ENDROOT
BRANCH   1  17
ATOM     16  N   UNL     1      -5.862  16.017  24.326  0.00  0.00    +0.000 N 
ATOM     17  C   UNL     1      -6.250  14.759  23.971  0.00  0.00    +0.000 C 
ATOM     18  O   UNL     1      -7.425  14.414  24.060  0.00  0.00    +0.000 OA
ATOM     19  H   UNL     1      -6.597  16.664  24.588  0.00  0.00    +0.000 HD
ATOM     20  H   UNL     1      -4.975  16.403  24.042  0.00  0.00    +0.000 HD
ENDBRANCH   1  17
BRANCH  12  21
ATOM     21  C   UNL     1       0.366  11.300  18.556  0.00  0.00    +0.000 C 
BRANCH  21  22
ATOM     22  C   UNL     1       0.927   9.916  18.815  0.00  0.00    +0.000 A 
ATOM     23  C   UNL     1       1.582   9.201  17.795  0.00  0.00    +0.000 A 
ATOM     24  C   UNL     1       2.251   8.008  18.080  0.00  0.00    +0.000 A 
ATOM     25  C   UNL     1       2.272   7.534  19.386  0.00  0.00    +0.000 A 
ATOM     26  F   UNL     1       2.985   6.438  19.687  0.00  0.00    +0.000 F 
ATOM     27  C   UNL     1       1.591   8.207  20.393  0.00  0.00    +0.000 A 
ATOM     28  C   UNL     1       0.891   9.375  20.111  0.00  0.00    +0.000 A 
BRANCH  27  29
ATOM     29  O   UNL     1       1.641   7.776  21.690  0.00  0.00    +0.000 OA
ATOM     30  H   UNL     1       0.901   7.152  21.808  0.00  0.00    +0.000 HD
ENDBRANCH  27  29
ENDBRANCH  21  22
ENDBRANCH  12  21
TORSDOF 4
ENDMDL
MODEL 7
REMARK VINA RESULT:      -7.5      3.952      8.455
REMARK  Name = 
REMARK  4 active torsions:
REMARK  status: ('A' for Active; 'I' for Inactive)
REMARK    1  A    between atoms: C_2  and  C_4
REMARK    2  A    between atoms: C_15  and  C_16
REMARK    3  A    between atoms: C_16  and  C_17
REMARK    4  A    between atoms: C_22  and  O_23
REMARK                            x       y       z     vdW  Elec       q    Type
REMARK                         _______ _______ _______ _____ _____    ______ ____
ROOT
ATOM      1  C   UNL     1      -0.885  11.883  22.467  0.00  0.00    +0.000 A 
ATOM      2  C   UNL     1      -1.317  10.832  23.294  0.00  0.00    +0.000 A 
ATOM      3  C   UNL     1      -0.978   9.513  23.002  0.00  0.00    +0.000 A 
ATOM      4  C   UNL     1      -0.194   9.221  21.889  0.00  0.00    +0.000 A 
ATOM      5  C   UNL     1       0.238  10.256  21.066  0.00  0.00    +0.000 A 
ATOM      6  C   UNL     1      -0.132  11.572  21.340  0.00  0.00    +0.000 A 
ATOM      7  C   UNL     1       0.502  12.481  20.329  0.00  0.00    +0.000 C 
ATOM      8  C   UNL     1       1.042  11.477  19.287  0.00  0.00    +0.000 C 
ATOM      9  N   UNL     1       1.068  10.158  19.937  0.00  0.00    +0.000 N 
ATOM     10  C   UNL     1       1.589   9.067  19.257  0.00  0.00    +0.000 A 
ATOM     11  C   UNL     1       2.157   7.999  19.974  0.00  0.00    +0.000 A 
ATOM     12  C   UNL     1       2.775   6.931  19.311  0.00  0.00    +0.000 A 
ATOM     13  C   UNL     1       2.815   6.978  17.922  0.00  0.00    +0.000 A 
ATOM     14  C   UNL     1       2.212   8.048  17.277  0.00  0.00    +0.000 A 
ATOM     15  N   UNL     1       1.614   9.078  17.907  0.00  0.00    +0.000 NA
ENDROOT
BRANCH   1  17
ATOM     16  N   UNL     1      -2.301  13.834  22.258  0.00  0.00    +0.000 N 
ATOM     17  C   UNL     1      -1.191  13.284  22.830  0.00  0.00    +0.000 C 
ATOM     18  O   UNL     1      -0.515  13.921  23.632  0.00  0.00    +0.000 OA
ATOM     19  H   UNL     1      -2.575  14.753  22.588  0.00  0.00    +0.000 HD
ATOM     20  H   UNL     1      -2.999  13.272  21.797  0.00  0.00    +0.000 HD
ENDBRANCH   1  17
BRANCH  12  21
ATOM     21  C   UNL     1       3.373   5.760  20.069  0.00  0.00    +0.000 C 
BRANCH  21  22
ATOM     22  C   UNL     1       2.620   4.462  19.856  0.00  0.00    +0.000 A 
ATOM     23  C   UNL     1       1.248   4.366  20.155  0.00  0.00    +0.000 A 
ATOM     24  C   UNL     1       0.521   3.230  19.793  0.00  0.00    +0.000 A 
ATOM     25  C   UNL     1       1.161   2.193  19.125  0.00  0.00    +0.000 A 
ATOM     26  F   UNL     1       0.454   1.137  18.695  0.00  0.00    +0.000 F 
ATOM     27  C   UNL     1       2.525   2.257  18.865  0.00  0.00    +0.000 A 
ATOM     28  C   UNL     1       3.265   3.367  19.255  0.00  0.00    +0.000 A 
BRANCH  27  29
ATOM     29  O   UNL     1       3.159   1.265  18.169  0.00  0.00    +0.000 OA
ATOM     30  H   UNL     1       3.602   1.693  17.412  0.00  0.00    +0.000 HD
ENDBRANCH  27  29
ENDBRANCH  21  22
ENDBRANCH  12  21
TORSDOF 4
ENDMDL
MODEL 8
REMARK VINA RESULT:      -7.4      2.694      3.316
REMARK  Name = 
REMARK  4 active torsions:
REMARK  status: ('A' for Active; 'I' for Inactive)
REMARK    1  A    between atoms: C_2  and  C_4
REMARK    2  A    between atoms: C_15  and  C_16
REMARK    3  A    between atoms: C_16  and  C_17
REMARK    4  A    between atoms: C_22  and  O_23
REMARK                            x       y       z     vdW  Elec       q    Type
REMARK                         _______ _______ _______ _____ _____    ______ ____
ROOT
ATOM      1  C   UNL     1       3.303   3.357  19.632  0.00  0.00    +0.000 A 
ATOM      2  C   UNL     1       2.510   3.399  20.790  0.00  0.00    +0.000 A 
ATOM      3  C   UNL     1       1.832   4.563  21.145  0.00  0.00    +0.000 A 
ATOM      4  C   UNL     1       1.925   5.699  20.346  0.00  0.00    +0.000 A 
ATOM      5  C   UNL     1       2.707   5.665  19.197  0.00  0.00    +0.000 A 
ATOM      6  C   UNL     1       3.413   4.511  18.862  0.00  0.00    +0.000 A 
ATOM      7  C   UNL     1       4.132   4.733  17.565  0.00  0.00    +0.000 C 
ATOM      8  C   UNL     1       3.966   6.256  17.362  0.00  0.00    +0.000 C 
ATOM      9  N   UNL     1       2.880   6.690  18.252  0.00  0.00    +0.000 N 
ATOM     10  C   UNL     1       2.453   8.010  18.223  0.00  0.00    +0.000 A 
ATOM     11  C   UNL     1       1.129   8.328  18.573  0.00  0.00    +0.000 A 
ATOM     12  C   UNL     1       0.647   9.639  18.461  0.00  0.00    +0.000 A 
ATOM     13  C   UNL     1       1.523  10.603  17.977  0.00  0.00    +0.000 A 
ATOM     14  C   UNL     1       2.824  10.226  17.675  0.00  0.00    +0.000 A 
ATOM     15  N   UNL     1       3.296   8.968  17.782  0.00  0.00    +0.000 NA
ENDROOT
BRANCH   1  17
ATOM     16  N   UNL     1       5.057   1.720  19.943  0.00  0.00    +0.000 N 
ATOM     17  C   UNL     1       3.958   2.093  19.228  0.00  0.00    +0.000 C 
ATOM     18  O   UNL     1       3.524   1.385  18.324  0.00  0.00    +0.000 OA
ATOM     19  H   UNL     1       5.442   0.804  19.742  0.00  0.00    +0.000 HD
ATOM     20  H   UNL     1       5.289   2.143  20.827  0.00  0.00    +0.000 HD
ENDBRANCH   1  17
BRANCH  12  21
ATOM     21  C   UNL     1      -0.773  10.002  18.855  0.00  0.00    +0.000 C 
BRANCH  21  22
ATOM     22  C   UNL     1      -0.859  10.710  20.193  0.00  0.00    +0.000 A 
ATOM     23  C   UNL     1      -1.459  11.978  20.299  0.00  0.00    +0.000 A 
ATOM     24  C   UNL     1      -1.697  12.548  21.552  0.00  0.00    +0.000 A 
ATOM     25  C   UNL     1      -1.342  11.848  22.699  0.00  0.00    +0.000 A 
ATOM     26  F   UNL     1      -1.646  12.346  23.907  0.00  0.00    +0.000 F 
ATOM     27  C   UNL     1      -0.708  10.615  22.605  0.00  0.00    +0.000 A 
ATOM     28  C   UNL     1      -0.434  10.057  21.362  0.00  0.00    +0.000 A 
BRANCH  27  29
ATOM     29  O   UNL     1      -0.395   9.894  23.725  0.00  0.00    +0.000 OA
ATOM     30  H   UNL     1      -0.421   8.953  23.469  0.00  0.00    +0.000 HD
ENDBRANCH  27  29
ENDBRANCH  21  22
ENDBRANCH  12  21
TORSDOF 4
ENDMDL
MODEL 9
REMARK VINA RESULT:      -7.3      4.217      9.409
REMARK  Name = 
REMARK  4 active torsions:
REMARK  status: ('A' for Active; 'I' for Inactive)
REMARK    1  A    between atoms: C_2  and  C_4
REMARK    2  A    between atoms: C_15  and  C_16
REMARK    3  A    between atoms: C_16  and  C_17
REMARK    4  A    between atoms: C_22  and  O_23
REMARK                            x       y       z     vdW  Elec       q    Type
REMARK                         _______ _______ _______ _____ _____    ______ ____
ROOT
ATOM      1  C   UNL     1       0.103  13.620  19.451  0.00  0.00    +0.000 A 
ATOM      2  C   UNL     1       1.218  14.188  18.812  0.00  0.00    +0.000 A 
ATOM      3  C   UNL     1       2.270  13.387  18.374  0.00  0.00    +0.000 A 
ATOM      4  C   UNL     1       2.223  12.007  18.555  0.00  0.00    +0.000 A 
ATOM      5  C   UNL     1       1.122  11.437  19.185  0.00  0.00    +0.000 A 
ATOM      6  C   UNL     1       0.086  12.244  19.655  0.00  0.00    +0.000 A 
ATOM      7  C   UNL     1      -0.983  11.376  20.247  0.00  0.00    +0.000 C 
ATOM      8  C   UNL     1      -0.285   9.999  20.305  0.00  0.00    +0.000 C 
ATOM      9  N   UNL     1       0.880  10.073  19.411  0.00  0.00    +0.000 N 
ATOM     10  C   UNL     1       1.657   8.943  19.200  0.00  0.00    +0.000 A 
ATOM     11  C   UNL     1       2.361   8.789  17.993  0.00  0.00    +0.000 A 
ATOM     12  C   UNL     1       3.075   7.616  17.716  0.00  0.00    +0.000 A 
ATOM     13  C   UNL     1       3.047   6.610  18.675  0.00  0.00    +0.000 A 
ATOM     14  C   UNL     1       2.354   6.837  19.856  0.00  0.00    +0.000 A 
ATOM     15  N   UNL     1       1.667   7.963  20.130  0.00  0.00    +0.000 NA
ENDROOT
BRANCH   1  17
ATOM     16  N   UNL     1      -2.263  13.875  19.886  0.00  0.00    +0.000 N 
ATOM     17  C   UNL     1      -1.039  14.474  19.845  0.00  0.00    +0.000 C 
ATOM     18  O   UNL     1      -0.904  15.653  20.160  0.00  0.00    +0.000 OA
ATOM     19  H   UNL     1      -3.028  14.426  20.260  0.00  0.00    +0.000 HD
ATOM     20  H   UNL     1      -2.369  12.873  19.871  0.00  0.00    +0.000 HD
ENDBRANCH   1  17
BRANCH  12  21
ATOM     21  C   UNL     1       3.858   7.445  16.428  0.00  0.00    +0.000 C 
BRANCH  21  22
ATOM     22  C   UNL     1       5.105   6.599  16.593  0.00  0.00    +0.000 A 
ATOM     23  C   UNL     1       6.218   7.087  17.303  0.00  0.00    +0.000 A 
ATOM     24  C   UNL     1       7.291   6.246  17.605  0.00  0.00    +0.000 A 
ATOM     25  C   UNL     1       7.249   4.915  17.206  0.00  0.00    +0.000 A 
ATOM     26  F   UNL     1       8.233   4.078  17.567  0.00  0.00    +0.000 F 
ATOM     27  C   UNL     1       6.176   4.434  16.466  0.00  0.00    +0.000 A 
ATOM     28  C   UNL     1       5.121   5.273  16.128  0.00  0.00    +0.000 A 
BRANCH  27  29
ATOM     29  O   UNL     1       6.100   3.117  16.106  0.00  0.00    +0.000 OA
ATOM     30  H   UNL     1       6.829   2.954  15.478  0.00  0.00    +0.000 HD
ENDBRANCH  27  29
ENDBRANCH  21  22
ENDBRANCH  12  21
TORSDOF 4
ENDMDL
