MODEL 1
REMARK VINA RESULT:      -7.8      0.000      0.000
REMARK  Name = 
REMARK  5 active torsions:
REMARK  status: ('A' for Active; 'I' for Inactive)
REMARK    1  A    between atoms: C_1  and  C_2
REMARK    2  A    between atoms: C_2  and  O_3
REMARK    3  A    between atoms: O_3  and  C_4
REMARK    4  A    between atoms: C_4  and  C_6
REMARK    5  A    between atoms: C_10  and  C_12
REMARK                            x       y       z     vdW  Elec       q    Type
REMARK                         _______ _______ _______ _____ _____    ______ ____
ROOT
ATOM      1  C   UNL     1       6.651   4.689  17.164  0.00  0.00    +0.000 C 
ATOM      2  C   UNL     1       5.467   3.725  17.305  0.00  0.00    +0.000 C 
ATOM      3  C   UNL     1       4.200   4.343  16.718  0.00  0.00    +0.000 C 
ATOM      4  N   UNL     1       3.883   5.593  17.406  0.00  0.00    +0.000 N 
ATOM      5  C   UNL     1       2.643   5.683  18.056  0.00  0.00    +0.000 C 
ATOM      6  O   UNL     1       1.862   4.730  18.042  0.00  0.00    +0.000 OA
ATOM      7  C   UNL     1       4.956   6.592  17.380  0.00  0.00    +0.000 C 
ATOM      8  C   UNL     1       6.303   6.022  17.831  0.00  0.00    +0.000 C 
ENDROOT
BRANCH   5   9
ATOM      9  C   UNL     1       2.306   6.871  18.807  0.00  0.00    +0.000 A 
ATOM     10  C   UNL     1       2.022   8.127  18.289  0.00  0.00    +0.000 A 
ATOM     11  C   UNL     1       1.513   8.939  19.332  0.00  0.00    +0.000 A 
ATOM     12  C   UNL     1       0.921  10.214  19.392  0.00  0.00    +0.000 A 
ATOM     13  F   UNL     1       0.790  10.942  18.273  0.00  0.00    +0.000 F 
ATOM     14  C   UNL     1       0.432  10.684  20.613  0.00  0.00    +0.000 A 
ATOM     15 CL   UNL     1      -0.368  12.211  20.696  0.00  0.00    +0.000 Cl
ATOM     16  C   UNL     1       0.558   9.923  21.774  0.00  0.00    +0.000 A 
ATOM     17  C   UNL     1       1.181   8.670  21.749  0.00  0.00    +0.000 A 
ATOM     18  C   UNL     1       1.640   8.205  20.510  0.00  0.00    +0.000 A 
ATOM     19  N   UNL     1       2.271   7.029  20.177  0.00  0.00    +0.000 N 
ATOM     20  H   UNL     1       2.553   6.327  20.843  0.00  0.00    +0.000 HD
ENDBRANCH   5   9
BRANCH   1  21
ATOM     21  C   UNL     1       7.022   4.875  15.700  0.00  0.00    +0.000 C 
ATOM     22  O   UNL     1       7.665   5.819  15.262  0.00  0.00    +0.000 OA
BRANCH  21  23
ATOM     23  O   UNL     1       6.518   3.858  14.944  0.00  0.00    +0.000 OA
BRANCH  23  25
ATOM     24  C   UNL     1       5.305   3.618  12.857  0.00  0.00    +0.000 C 
ATOM     25  C   UNL     1       6.600   4.049  13.524  0.00  0.00    +0.000 C 
ENDBRANCH  23  25
ENDBRANCH  21  23
ENDBRANCH   1  21
TORSDOF 4
ENDMDL
MODEL 2
REMARK VINA RESULT:      -7.1      2.661      4.288
REMARK  Name = 
REMARK  5 active torsions:
REMARK  status: ('A' for Active; 'I' for Inactive)
REMARK    1  A    between atoms: C_1  and  C_2
REMARK    2  A    between atoms: C_2  and  O_3
REMARK    3  A    between atoms: O_3  and  C_4
REMARK    4  A    between atoms: C_4  and  C_6
REMARK    5  A    between atoms: C_10  and  C_12
REMARK                            x       y       z     vdW  Elec       q    Type
REMARK                         _______ _______ _______ _____ _____    ______ ____
ROOT
ATOM      1  C   UNL     1       2.272   2.966  17.475  0.00  0.00    +0.000 C 
ATOM      2  C   UNL     1       3.335   3.811  16.764  0.00  0.00    +0.000 C 
ATOM      3  C   UNL     1       4.024   4.748  17.753  0.00  0.00    +0.000 C 
ATOM      4  N   UNL     1       3.042   5.638  18.373  0.00  0.00    +0.000 N 
ATOM      5  C   UNL     1       3.215   7.019  18.201  0.00  0.00    +0.000 C 
ATOM      6  O   UNL     1       4.164   7.451  17.544  0.00  0.00    +0.000 OA
ATOM      7  C   UNL     1       1.942   4.950  19.055  0.00  0.00    +0.000 C 
ATOM      8  C   UNL     1       1.273   3.891  18.176  0.00  0.00    +0.000 C 
ENDROOT
BRANCH   5   9
ATOM      9  C   UNL     1       2.238   7.942  18.735  0.00  0.00    +0.000 A 
ATOM     10  C   UNL     1       1.803   8.018  20.052  0.00  0.00    +0.000 A 
ATOM     11  C   UNL     1       1.033   9.197  20.202  0.00  0.00    +0.000 A 
ATOM     12  C   UNL     1       0.476   9.880  21.299  0.00  0.00    +0.000 A 
ATOM     13  F   UNL     1       0.604   9.373  22.535  0.00  0.00    +0.000 F 
ATOM     14  C   UNL     1      -0.161  11.105  21.091  0.00  0.00    +0.000 A 
ATOM     15 CL   UNL     1      -0.784  11.997  22.430  0.00  0.00    +0.000 Cl
ATOM     16  C   UNL     1      -0.285  11.637  19.808  0.00  0.00    +0.000 A 
ATOM     17  C   UNL     1       0.224  10.957  18.695  0.00  0.00    +0.000 A 
ATOM     18  C   UNL     1       0.883   9.744  18.928  0.00  0.00    +0.000 A 
ATOM     19  N   UNL     1       1.485   8.872  18.051  0.00  0.00    +0.000 N 
ATOM     20  H   UNL     1       1.476   8.979  17.049  0.00  0.00    +0.000 HD
ENDBRANCH   5   9
BRANCH   1  21
ATOM     21  C   UNL     1       2.919   1.997  18.453  0.00  0.00    +0.000 C 
ATOM     22  O   UNL     1       3.908   1.321  18.207  0.00  0.00    +0.000 OA
BRANCH  21  23
ATOM     23  O   UNL     1       2.230   1.971  19.629  0.00  0.00    +0.000 OA
BRANCH  23  25
ATOM     24  C   UNL     1       2.112   2.867  21.880  0.00  0.00    +0.000 C 
ATOM     25  C   UNL     1       3.002   2.279  20.799  0.00  0.00    +0.000 C 
ENDBRANCH  23  25
ENDBRANCH  21  23
ENDBRANCH   1  21
TORSDOF 4
ENDMDL
MODEL 3
REMARK VINA RESULT:      -7.1      5.230      9.151
REMARK  Name = 
REMARK  5 active torsions:
REMARK  status: ('A' for Active; 'I' for Inactive)
REMARK    1  A    between atoms: C_1  and  C_2
REMARK    2  A    between atoms: C_2  and  O_3
REMARK    3  A    between atoms: O_3  and  C_4
REMARK    4  A    between atoms: C_4  and  C_6
REMARK    5  A    between atoms: C_10  and  C_12
REMARK                            x       y       z     vdW  Elec       q    Type
REMARK                         _______ _______ _______ _____ _____    ______ ____
ROOT
ATOM      1  C   UNL     1      -3.876  10.792  17.992  0.00  0.00    +0.000 C 
ATOM      2  C   UNL     1      -3.205  11.842  18.884  0.00  0.00    +0.000 C 
ATOM      3  C   UNL     1      -1.848  12.243  18.312  0.00  0.00    +0.000 C 
ATOM      4  N   UNL     1      -0.976  11.072  18.213  0.00  0.00    +0.000 N 
ATOM      5  C   UNL     1       0.232  11.098  18.925  0.00  0.00    +0.000 C 
ATOM      6  O   UNL     1       0.532  12.079  19.608  0.00  0.00    +0.000 OA
ATOM      7  C   UNL     1      -1.524   9.971  17.415  0.00  0.00    +0.000 C 
ATOM      8  C   UNL     1      -2.944   9.587  17.836  0.00  0.00    +0.000 C 
ENDROOT
BRANCH   5   9
ATOM      9  C   UNL     1       1.100   9.941  18.917  0.00  0.00    +0.000 A 
ATOM     10  C   UNL     1       1.167   8.948  19.884  0.00  0.00    +0.000 A 
ATOM     11  C   UNL     1       1.962   7.888  19.385  0.00  0.00    +0.000 A 
ATOM     12  C   UNL     1       2.256   6.583  19.822  0.00  0.00    +0.000 A 
ATOM     13  F   UNL     1       1.756   6.141  20.986  0.00  0.00    +0.000 F 
ATOM     14  C   UNL     1       3.024   5.746  19.010  0.00  0.00    +0.000 A 
ATOM     15 CL   UNL     1       3.332   4.117  19.488  0.00  0.00    +0.000 Cl
ATOM     16  C   UNL     1       3.534   6.201  17.794  0.00  0.00    +0.000 A 
ATOM     17  C   UNL     1       3.292   7.509  17.357  0.00  0.00    +0.000 A 
ATOM     18  C   UNL     1       2.496   8.323  18.173  0.00  0.00    +0.000 A 
ATOM     19  N   UNL     1       2.085   9.625  18.005  0.00  0.00    +0.000 N 
ATOM     20  H   UNL     1       2.373  10.217  17.243  0.00  0.00    +0.000 HD
ENDBRANCH   5   9
BRANCH   1  21
ATOM     21  C   UNL     1      -4.249  11.390  16.643  0.00  0.00    +0.000 C 
ATOM     22  O   UNL     1      -3.711  11.101  15.585  0.00  0.00    +0.000 OA
BRANCH  21  23
ATOM     23  O   UNL     1      -5.249  12.307  16.785  0.00  0.00    +0.000 OA
BRANCH  23  25
ATOM     24  C   UNL     1      -7.168  12.998  18.099  0.00  0.00    +0.000 C 
ATOM     25  C   UNL     1      -6.421  11.836  17.466  0.00  0.00    +0.000 C 
ENDBRANCH  23  25
ENDBRANCH  21  23
ENDBRANCH   1  21
TORSDOF 4
ENDMDL
MODEL 4
REMARK VINA RESULT:      -7.0      1.590      2.048
REMARK  Name = 
REMARK  5 active torsions:
REMARK  status: ('A' for Active; 'I' for Inactive)
REMARK    1  A    between atoms: C_1  and  C_2
REMARK    2  A    between atoms: C_2  and  O_3
REMARK    3  A    between atoms: O_3  and  C_4
REMARK    4  A    between atoms: C_4  and  C_6
REMARK    5  A    between atoms: C_10  and  C_12
REMARK                            x       y       z     vdW  Elec       q    Type
REMARK                         _______ _______ _______ _____ _____    ______ ____
ROOT
ATOM      1  C   UNL     1       7.223   5.987  17.806  0.00  0.00    +0.000 C 
ATOM      2  C   UNL     1       6.764   5.134  18.994  0.00  0.00    +0.000 C 
ATOM      3  C   UNL     1       5.341   4.628  18.772  0.00  0.00    +0.000 C 
ATOM      4  N   UNL     1       4.424   5.756  18.611  0.00  0.00    +0.000 N 
ATOM      5  C   UNL     1       3.366   5.872  19.525  0.00  0.00    +0.000 C 
ATOM      6  O   UNL     1       3.232   5.046  20.429  0.00  0.00    +0.000 OA
ATOM      7  C   UNL     1       4.776   6.677  17.526  0.00  0.00    +0.000 C 
ATOM      8  C   UNL     1       6.234   7.137  17.594  0.00  0.00    +0.000 C 
ENDROOT
BRANCH   5   9
ATOM      9  C   UNL     1       2.469   7.004  19.453  0.00  0.00    +0.000 A 
ATOM     10  C   UNL     1       1.623   7.456  20.456  0.00  0.00    +0.000 A 
ATOM     11  C   UNL     1       1.101   8.715  20.069  0.00  0.00    +0.000 A 
ATOM     12  C   UNL     1       0.341   9.709  20.713  0.00  0.00    +0.000 A 
ATOM     13  F   UNL     1      -0.079   9.516  21.973  0.00  0.00    +0.000 F 
ATOM     14  C   UNL     1       0.077  10.907  20.047  0.00  0.00    +0.000 A 
ATOM     15 CL   UNL     1      -0.785  12.170  20.844  0.00  0.00    +0.000 Cl
ATOM     16  C   UNL     1       0.523  11.112  18.742  0.00  0.00    +0.000 A 
ATOM     17  C   UNL     1       1.245  10.122  18.064  0.00  0.00    +0.000 A 
ATOM     18  C   UNL     1       1.523   8.938  18.760  0.00  0.00    +0.000 A 
ATOM     19  N   UNL     1       2.208   7.812  18.367  0.00  0.00    +0.000 N 
ATOM     20  H   UNL     1       2.575   7.666  17.440  0.00  0.00    +0.000 HD
ENDBRANCH   5   9
BRANCH   1  21
ATOM     21  C   UNL     1       7.367   5.134  16.554  0.00  0.00    +0.000 C 
ATOM     22  O   UNL     1       7.976   4.075  16.503  0.00  0.00    +0.000 OA
BRANCH  21  23
ATOM     23  O   UNL     1       6.743   5.726  15.496  0.00  0.00    +0.000 OA
BRANCH  23  25
ATOM     24  C   UNL     1       5.530   4.213  14.039  0.00  0.00    +0.000 C 
ATOM     25  C   UNL     1       6.810   5.001  14.259  0.00  0.00    +0.000 C 
ENDBRANCH  23  25
ENDBRANCH  21  23
ENDBRANCH   1  21
TORSDOF 4
ENDMDL
MODEL 5
REMARK VINA RESULT:      -6.9      1.129      1.245
REMARK  Name = 
REMARK  5 active torsions:
REMARK  status: ('A' for Active; 'I' for Inactive)
REMARK    1  A    between atoms: C_1  and  C_2
REMARK    2  A    between atoms: C_2  and  O_3
REMARK    3  A    between atoms: O_3  and  C_4
REMARK    4  A    between atoms: C_4  and  C_6
REMARK    5  A    between atoms: C_10  and  C_12
REMARK                            x       y       z     vdW  Elec       q    Type
REMARK                         _______ _______ _______ _____ _____    ______ ____
ROOT
ATOM      1  C   UNL     1       5.963   5.808  17.084  0.00  0.00    +0.000 C 
ATOM      2  C   UNL     1       5.303   4.670  17.869  0.00  0.00    +0.000 C 
ATOM      3  C   UNL     1       3.783   4.747  17.750  0.00  0.00    +0.000 C 
ATOM      4  N   UNL     1       3.300   6.027  18.268  0.00  0.00    +0.000 N 
ATOM      5  C   UNL     1       2.397   5.997  19.340  0.00  0.00    +0.000 C 
ATOM      6  O   UNL     1       2.035   4.921  19.820  0.00  0.00    +0.000 OA
ATOM      7  C   UNL     1       3.890   7.205  17.624  0.00  0.00    +0.000 C 
ATOM      8  C   UNL     1       5.419   7.151  17.581  0.00  0.00    +0.000 C 
ENDROOT
BRANCH   5   9
ATOM      9  C   UNL     1       1.940   7.234  19.935  0.00  0.00    +0.000 A 
ATOM     10  C   UNL     1       1.654   8.418  19.269  0.00  0.00    +0.000 A 
ATOM     11  C   UNL     1       1.015   9.299  20.175  0.00  0.00    +0.000 A 
ATOM     12  C   UNL     1       0.366  10.542  20.053  0.00  0.00    +0.000 A 
ATOM     13  F   UNL     1       0.312  11.151  18.858  0.00  0.00    +0.000 F 
ATOM     14  C   UNL     1      -0.256  11.102  21.170  0.00  0.00    +0.000 A 
ATOM     15 CL   UNL     1      -1.123  12.586  21.027  0.00  0.00    +0.000 Cl
ATOM     16  C   UNL     1      -0.209  10.464  22.409  0.00  0.00    +0.000 A 
ATOM     17  C   UNL     1       0.466   9.247  22.566  0.00  0.00    +0.000 A 
ATOM     18  C   UNL     1       1.060   8.689  21.428  0.00  0.00    +0.000 A 
ATOM     19  N   UNL     1       1.769   7.521  21.272  0.00  0.00    +0.000 N 
ATOM     20  H   UNL     1       2.015   6.901  22.028  0.00  0.00    +0.000 HD
ENDBRANCH   5   9
BRANCH   1  21
ATOM     21  C   UNL     1       5.739   5.632  15.589  0.00  0.00    +0.000 C 
ATOM     22  O   UNL     1       5.272   6.489  14.853  0.00  0.00    +0.000 OA
BRANCH  21  23
ATOM     23  O   UNL     1       6.109   4.381  15.193  0.00  0.00    +0.000 OA
BRANCH  23  25
ATOM     24  C   UNL     1       6.004   3.537  12.921  0.00  0.00    +0.000 C 
ATOM     25  C   UNL     1       6.814   4.316  13.944  0.00  0.00    +0.000 C 
ENDBRANCH  23  25
ENDBRANCH  21  23
ENDBRANCH   1  21
TORSDOF 4
ENDMDL
MODEL 6
REMARK VINA RESULT:      -6.9      1.028      1.305
REMARK  Name = 
REMARK  5 active torsions:
REMARK  status: ('A' for Active; 'I' for Inactive)
REMARK    1  A    between atoms: C_1  and  C_2
REMARK    2  A    between atoms: C_2  and  O_3
REMARK    3  A    between atoms: O_3  and  C_4
REMARK    4  A    between atoms: C_4  and  C_6
REMARK    5  A    between atoms: C_10  and  C_12
REMARK                            x       y       z     vdW  Elec       q    Type
REMARK                         _______ _______ _______ _____ _____    ______ ____
ROOT
ATOM      1  C   UNL     1       6.740   5.018  16.222  0.00  0.00    +0.000 C 
ATOM      2  C   UNL     1       5.999   3.887  16.943  0.00  0.00    +0.000 C 
ATOM      3  C   UNL     1       4.492   4.016  16.736  0.00  0.00    +0.000 C 
ATOM      4  N   UNL     1       4.020   5.300  17.251  0.00  0.00    +0.000 N 
ATOM      5  C   UNL     1       3.053   5.280  18.267  0.00  0.00    +0.000 C 
ATOM      6  O   UNL     1       2.631   4.207  18.703  0.00  0.00    +0.000 OA
ATOM      7  C   UNL     1       4.683   6.471  16.667  0.00  0.00    +0.000 C 
ATOM      8  C   UNL     1       6.209   6.368  16.713  0.00  0.00    +0.000 C 
ENDROOT
BRANCH   5   9
ATOM      9  C   UNL     1       2.600   6.519  18.859  0.00  0.00    +0.000 A 
ATOM     10  C   UNL     1       2.279   7.690  18.186  0.00  0.00    +0.000 A 
ATOM     11  C   UNL     1       1.658   8.577  19.100  0.00  0.00    +0.000 A 
ATOM     12  C   UNL     1       0.992   9.811  18.981  0.00  0.00    +0.000 A 
ATOM     13  F   UNL     1       0.893  10.402  17.780  0.00  0.00    +0.000 F 
ATOM     14  C   UNL     1       0.398  10.379  20.109  0.00  0.00    +0.000 A 
ATOM     15 CL   UNL     1      -0.491  11.851  19.973  0.00  0.00    +0.000 Cl
ATOM     16  C   UNL     1       0.491   9.759  21.355  0.00  0.00    +0.000 A 
ATOM     17  C   UNL     1       1.185   8.552  21.508  0.00  0.00    +0.000 A 
ATOM     18  C   UNL     1       1.750   7.985  20.358  0.00  0.00    +0.000 A 
ATOM     19  N   UNL     1       2.467   6.823  20.197  0.00  0.00    +0.000 N 
ATOM     20  H   UNL     1       2.744   6.217  20.953  0.00  0.00    +0.000 HD
ENDBRANCH   5   9
BRANCH   1  21
ATOM     21  C   UNL     1       6.600   4.877  14.713  0.00  0.00    +0.000 C 
ATOM     22  O   UNL     1       5.673   4.311  14.153  0.00  0.00    +0.000 OA
BRANCH  21  23
ATOM     23  O   UNL     1       7.663   5.448  14.078  0.00  0.00    +0.000 OA
BRANCH  23  25
ATOM     24  C   UNL     1       8.109   6.277  11.842  0.00  0.00    +0.000 C 
ATOM     25  C   UNL     1       7.842   5.057  12.708  0.00  0.00    +0.000 C 
ENDBRANCH  23  25
ENDBRANCH  21  23
ENDBRANCH   1  21
TORSDOF 4
ENDMDL
MODEL 7
REMARK VINA RESULT:      -6.9      1.347      1.765
REMARK  Name = 
REMARK  5 active torsions:
REMARK  status: ('A' for Active; 'I' for Inactive)
REMARK    1  A    between atoms: C_1  and  C_2
REMARK    2  A    between atoms: C_2  and  O_3
REMARK    3  A    between atoms: O_3  and  C_4
REMARK    4  A    between atoms: C_4  and  C_6
REMARK    5  A    between atoms: C_10  and  C_12
REMARK                            x       y       z     vdW  Elec       q    Type
REMARK                         _______ _______ _______ _____ _____    ______ ____
ROOT
ATOM      1  C   UNL     1       7.185   5.544  16.898  0.00  0.00    +0.000 C 
ATOM      2  C   UNL     1       6.613   4.422  17.771  0.00  0.00    +0.000 C 
ATOM      3  C   UNL     1       5.145   4.174  17.432  0.00  0.00    +0.000 C 
ATOM      4  N   UNL     1       4.365   5.392  17.647  0.00  0.00    +0.000 N 
ATOM      5  C   UNL     1       3.313   5.337  18.573  0.00  0.00    +0.000 C 
ATOM      6  O   UNL     1       3.071   4.292  19.179  0.00  0.00    +0.000 OA
ATOM      7  C   UNL     1       4.838   6.559  16.895  0.00  0.00    +0.000 C 
ATOM      8  C   UNL     1       6.337   6.807  17.073  0.00  0.00    +0.000 C 
ENDROOT
BRANCH   5   9
ATOM      9  C   UNL     1       2.552   6.530  18.873  0.00  0.00    +0.000 A 
ATOM     10  C   UNL     1       1.960   6.851  20.088  0.00  0.00    +0.000 A 
ATOM     11  C   UNL     1       1.522   8.197  20.030  0.00  0.00    +0.000 A 
ATOM     12  C   UNL     1       1.011   9.110  20.972  0.00  0.00    +0.000 A 
ATOM     13  F   UNL     1       0.810   8.719  22.239  0.00  0.00    +0.000 F 
ATOM     14  C   UNL     1       0.766  10.428  20.582  0.00  0.00    +0.000 A 
ATOM     15 CL   UNL     1       0.213  11.585  21.737  0.00  0.00    +0.000 Cl
ATOM     16  C   UNL     1       0.985  10.838  19.268  0.00  0.00    +0.000 A 
ATOM     17  C   UNL     1       1.454   9.939  18.302  0.00  0.00    +0.000 A 
ATOM     18  C   UNL     1       1.719   8.628  18.719  0.00  0.00    +0.000 A 
ATOM     19  N   UNL     1       2.189   7.545  18.014  0.00  0.00    +0.000 N 
ATOM     20  H   UNL     1       2.361   7.546  17.021  0.00  0.00    +0.000 HD
ENDBRANCH   5   9
BRANCH   1  21
ATOM     21  C   UNL     1       7.251   5.111  15.440  0.00  0.00    +0.000 C 
ATOM     22  O   UNL     1       7.913   5.673  14.579  0.00  0.00    +0.000 OA
BRANCH  21  23
ATOM     23  O   UNL     1       6.452   4.027  15.226  0.00  0.00    +0.000 OA
BRANCH  23  25
ATOM     24  C   UNL     1       6.172   3.476  12.880  0.00  0.00    +0.000 C 
ATOM     25  C   UNL     1       5.561   4.133  14.106  0.00  0.00    +0.000 C 
ENDBRANCH  23  25
ENDBRANCH  21  23
ENDBRANCH   1  21
TORSDOF 4
ENDMDL
MODEL 8
REMARK VINA RESULT:      -6.8      5.025      8.453
REMARK  Name = 
REMARK  5 active torsions:
REMARK  status: ('A' for Active; 'I' for Inactive)
REMARK    1  A    between atoms: C_1  and  C_2
REMARK    2  A    between atoms: C_2  and  O_3
REMARK    3  A    between atoms: O_3  and  C_4
REMARK    4  A    between atoms: C_4  and  C_6
REMARK    5  A    between atoms: C_10  and  C_12
REMARK                            x       y       z     vdW  Elec       q    Type
REMARK                         _______ _______ _______ _____ _____    ______ ____
ROOT
ATOM      1  C   UNL     1      -3.747  10.794  18.005  0.00  0.00    +0.000 C 
ATOM      2  C   UNL     1      -3.060  11.830  18.902  0.00  0.00    +0.000 C 
ATOM      3  C   UNL     1      -1.695  12.209  18.333  0.00  0.00    +0.000 C 
ATOM      4  N   UNL     1      -0.843  11.025  18.232  0.00  0.00    +0.000 N 
ATOM      5  C   UNL     1       0.364  11.028  18.946  0.00  0.00    +0.000 C 
ATOM      6  O   UNL     1       0.679  12.001  19.633  0.00  0.00    +0.000 OA
ATOM      7  C   UNL     1      -1.408   9.936  17.430  0.00  0.00    +0.000 C 
ATOM      8  C   UNL     1      -2.835   9.574  17.847  0.00  0.00    +0.000 C 
ENDROOT
BRANCH   5   9
ATOM      9  C   UNL     1       1.213   9.857  18.935  0.00  0.00    +0.000 A 
ATOM     10  C   UNL     1       1.258   8.857  19.898  0.00  0.00    +0.000 A 
ATOM     11  C   UNL     1       2.038   7.786  19.396  0.00  0.00    +0.000 A 
ATOM     12  C   UNL     1       2.307   6.474  19.827  0.00  0.00    +0.000 A 
ATOM     13  F   UNL     1       1.795   6.035  20.987  0.00  0.00    +0.000 F 
ATOM     14  C   UNL     1       3.065   5.629  19.014  0.00  0.00    +0.000 A 
ATOM     15 CL   UNL     1       3.343   3.993  19.485  0.00  0.00    +0.000 Cl
ATOM     16  C   UNL     1       3.588   6.082  17.803  0.00  0.00    +0.000 A 
ATOM     17  C   UNL     1       3.370   7.396  17.372  0.00  0.00    +0.000 A 
ATOM     18  C   UNL     1       2.584   8.219  18.189  0.00  0.00    +0.000 A 
ATOM     19  N   UNL     1       2.196   9.528  18.026  0.00  0.00    +0.000 N 
ATOM     20  H   UNL     1       2.498  10.120  17.268  0.00  0.00    +0.000 HD
ENDBRANCH   5   9
BRANCH   1  21
ATOM     21  C   UNL     1      -4.108  11.403  16.658  0.00  0.00    +0.000 C 
ATOM     22  O   UNL     1      -5.030  12.185  16.475  0.00  0.00    +0.000 OA
BRANCH  21  23
ATOM     23  O   UNL     1      -3.276  10.936  15.683  0.00  0.00    +0.000 OA
BRANCH  23  25
ATOM     24  C   UNL     1      -2.891   9.739  13.609  0.00  0.00    +0.000 C 
ATOM     25  C   UNL     1      -3.921  10.235  14.610  0.00  0.00    +0.000 C 
ENDBRANCH  23  25
ENDBRANCH  21  23
ENDBRANCH   1  21
TORSDOF 4
ENDMDL
MODEL 9
REMARK VINA RESULT:      -6.8      4.090      7.944
REMARK  Name = 
REMARK  5 active torsions:
REMARK  status: ('A' for Active; 'I' for Inactive)
REMARK    1  A    between atoms: C_1  and  C_2
REMARK    2  A    between atoms: C_2  and  O_3
REMARK    3  A    between atoms: O_3  and  C_4
REMARK    4  A    between atoms: C_4  and  C_6
REMARK    5  A    between atoms: C_10  and  C_12
REMARK                            x       y       z     vdW  Elec       q    Type
REMARK                         _______ _______ _______ _____ _____    ______ ____
ROOT
ATOM      1  C   UNL     1      -0.767  10.764  19.188  0.00  0.00    +0.000 C 
ATOM      2  C   UNL     1      -0.751   9.875  20.436  0.00  0.00    +0.000 C 
ATOM      3  C   UNL     1       0.684   9.558  20.850  0.00  0.00    +0.000 C 
ATOM      4  N   UNL     1       1.382   8.870  19.764  0.00  0.00    +0.000 N 
ATOM      5  C   UNL     1       1.890   7.589  20.025  0.00  0.00    +0.000 C 
ATOM      6  O   UNL     1       1.741   7.073  21.134  0.00  0.00    +0.000 OA
ATOM      7  C   UNL     1       1.403   9.602  18.494  0.00  0.00    +0.000 C 
ATOM      8  C   UNL     1       0.013  10.076  18.064  0.00  0.00    +0.000 C 
ENDROOT
BRANCH   5   9
ATOM      9  C   UNL     1       2.530   6.837  18.968  0.00  0.00    +0.000 A 
ATOM     10  C   UNL     1       3.502   7.300  18.092  0.00  0.00    +0.000 A 
ATOM     11  C   UNL     1       4.028   6.194  17.380  0.00  0.00    +0.000 A 
ATOM     12  C   UNL     1       5.110   6.011  16.499  0.00  0.00    +0.000 A 
ATOM     13  F   UNL     1       5.868   7.061  16.147  0.00  0.00    +0.000 F 
ATOM     14  C   UNL     1       5.411   4.727  16.043  0.00  0.00    +0.000 A 
ATOM     15 CL   UNL     1       6.779   4.466  15.025  0.00  0.00    +0.000 Cl
ATOM     16  C   UNL     1       4.630   3.634  16.418  0.00  0.00    +0.000 A 
ATOM     17  C   UNL     1       3.523   3.796  17.259  0.00  0.00    +0.000 A 
ATOM     18  C   UNL     1       3.254   5.088  17.728  0.00  0.00    +0.000 A 
ATOM     19  N   UNL     1       2.261   5.547  18.561  0.00  0.00    +0.000 N 
ATOM     20  H   UNL     1       1.513   4.976  18.920  0.00  0.00    +0.000 HD
ENDBRANCH   5   9
BRANCH   1  21
ATOM     21  C   UNL     1      -0.201  12.142  19.501  0.00  0.00    +0.000 C 
ATOM     22  O   UNL     1      -0.187  12.649  20.613  0.00  0.00    +0.000 OA
BRANCH  21  23
ATOM     23  O   UNL     1       0.265  12.737  18.366  0.00  0.00    +0.000 OA
BRANCH  23  25
ATOM     24  C   UNL     1       2.663  13.079  18.228  0.00  0.00    +0.000 C 
ATOM     25  C   UNL     1       1.315  13.696  18.563  0.00  0.00    +0.000 C 
ENDBRANCH  23  25
ENDBRANCH  21  23
ENDBRANCH   1  21
TORSDOF 4
ENDMDL
