MODEL 1
REMARK VINA RESULT:      -7.0      0.000      0.000
REMARK  Name = 
REMARK  3 active torsions:
REMARK  status: ('A' for Active; 'I' for Inactive)
REMARK    1  A    between atoms: C_1  and  C_2
REMARK    2  A    between atoms: C_2  and  N_3
REMARK    3  A    between atoms: N_5  and  N_6
REMARK                            x       y       z     vdW  Elec       q    Type
REMARK                         _______ _______ _______ _____ _____    ______ ____
ROOT
ATOM      1  N   UNL     1       3.743   3.771  19.398  0.00  0.00    +0.000 N 
ATOM      2  C   UNL     1       2.829   4.477  20.228  0.00  0.00    +0.000 C 
ATOM      3  N   UNL     1       2.151   4.235  21.302  0.00  0.00    +0.000 NA
ATOM      4  C   UNL     1       2.743   5.781  19.577  0.00  0.00    +0.000 A 
ATOM      5  C   UNL     1       2.012   6.926  19.897  0.00  0.00    +0.000 A 
ATOM      6  C   UNL     1       2.157   8.038  19.042  0.00  0.00    +0.000 A 
ATOM      7  C   UNL     1       2.998   8.010  17.910  0.00  0.00    +0.000 A 
ATOM      8  C   UNL     1       3.728   6.847  17.608  0.00  0.00    +0.000 A 
ATOM      9  C   UNL     1       4.612   6.637  16.533  0.00  0.00    +0.000 A 
ATOM     10  C   UNL     1       5.268   5.395  16.387  0.00  0.00    +0.000 A 
ATOM     11  C   UNL     1       5.067   4.333  17.291  0.00  0.00    +0.000 A 
ATOM     12  C   UNL     1       4.183   4.575  18.334  0.00  0.00    +0.000 A 
ATOM     13  C   UNL     1       3.558   5.794  18.458  0.00  0.00    +0.000 A 
ENDROOT
BRANCH   3  14
ATOM     14  N   UNL     1       2.268   3.018  21.878  0.00  0.00    +0.000 N 
ATOM     15  H   UNL     1       1.712   3.000  22.736  0.00  0.00    +0.000 HD
ATOM     16  H   UNL     1       3.228   2.843  22.170  0.00  0.00    +0.000 HD
ENDBRANCH   3  14
BRANCH   1  18
ATOM     17  C   UNL     1       3.552   1.438  18.706  0.00  0.00    +0.000 C 
ATOM     18  C   UNL     1       4.230   2.427  19.644  0.00  0.00    +0.000 C 
ENDBRANCH   1  18
TORSDOF 2
ENDMDL
MODEL 2
REMARK VINA RESULT:      -6.9      1.215      3.215
REMARK  Name = 
REMARK  3 active torsions:
REMARK  status: ('A' for Active; 'I' for Inactive)
REMARK    1  A    between atoms: C_1  and  C_2
REMARK    2  A    between atoms: C_2  and  N_3
REMARK    3  A    between atoms: N_5  and  N_6
REMARK                            x       y       z     vdW  Elec       q    Type
REMARK                         _______ _______ _______ _____ _____    ______ ____
ROOT
ATOM      1  N   UNL     1       3.345   4.574  20.004  0.00  0.00    +0.000 N 
ATOM      2  C   UNL     1       4.370   3.833  19.352  0.00  0.00    +0.000 C 
ATOM      3  N   UNL     1       4.966   2.698  19.521  0.00  0.00    +0.000 NA
ATOM      4  C   UNL     1       4.732   4.699  18.234  0.00  0.00    +0.000 A 
ATOM      5  C   UNL     1       5.675   4.547  17.216  0.00  0.00    +0.000 A 
ATOM      6  C   UNL     1       5.775   5.592  16.275  0.00  0.00    +0.000 A 
ATOM      7  C   UNL     1       4.967   6.745  16.344  0.00  0.00    +0.000 A 
ATOM      8  C   UNL     1       4.020   6.876  17.375  0.00  0.00    +0.000 A 
ATOM      9  C   UNL     1       3.130   7.943  17.601  0.00  0.00    +0.000 A 
ATOM     10  C   UNL     1       2.237   7.903  18.693  0.00  0.00    +0.000 A 
ATOM     11  C   UNL     1       2.201   6.815  19.589  0.00  0.00    +0.000 A 
ATOM     12  C   UNL     1       3.097   5.785  19.339  0.00  0.00    +0.000 A 
ATOM     13  C   UNL     1       3.956   5.845  18.266  0.00  0.00    +0.000 A 
ENDROOT
BRANCH   3  14
ATOM     14  N   UNL     1       4.593   1.923  20.563  0.00  0.00    +0.000 N 
ATOM     15  H   UNL     1       3.962   2.455  21.165  0.00  0.00    +0.000 HD
ATOM     16  H   UNL     1       5.393   1.685  21.147  0.00  0.00    +0.000 HD
ENDBRANCH   3  14
BRANCH   1  18
ATOM     17  C   UNL     1       1.258   3.528  20.718  0.00  0.00    +0.000 C 
ATOM     18  C   UNL     1       2.590   4.120  21.157  0.00  0.00    +0.000 C 
ENDBRANCH   1  18
TORSDOF 2
ENDMDL
MODEL 3
REMARK VINA RESULT:      -6.8      1.471      3.402
REMARK  Name = 
REMARK  3 active torsions:
REMARK  status: ('A' for Active; 'I' for Inactive)
REMARK    1  A    between atoms: C_1  and  C_2
REMARK    2  A    between atoms: C_2  and  N_3
REMARK    3  A    between atoms: N_5  and  N_6
REMARK                            x       y       z     vdW  Elec       q    Type
REMARK                         _______ _______ _______ _____ _____    ______ ____
ROOT
ATOM      1  N   UNL     1       2.552   4.045  18.897  0.00  0.00    +0.000 N 
ATOM      2  C   UNL     1       3.396   3.260  18.064  0.00  0.00    +0.000 C 
ATOM      3  N   UNL     1       3.648   2.002  17.893  0.00  0.00    +0.000 NA
ATOM      4  C   UNL     1       4.080   4.266  17.257  0.00  0.00    +0.000 A 
ATOM      5  C   UNL     1       5.039   4.147  16.249  0.00  0.00    +0.000 A 
ATOM      6  C   UNL     1       5.502   5.341  15.662  0.00  0.00    +0.000 A 
ATOM      7  C   UNL     1       5.030   6.608  16.063  0.00  0.00    +0.000 A 
ATOM      8  C   UNL     1       4.061   6.706  17.077  0.00  0.00    +0.000 A 
ATOM      9  C   UNL     1       3.473   7.872  17.601  0.00  0.00    +0.000 A 
ATOM     10  C   UNL     1       2.504   7.780  18.624  0.00  0.00    +0.000 A 
ATOM     11  C   UNL     1       2.094   6.541  19.156  0.00  0.00    +0.000 A 
ATOM     12  C   UNL     1       2.701   5.413  18.619  0.00  0.00    +0.000 A 
ATOM     13  C   UNL     1       3.641   5.528  17.620  0.00  0.00    +0.000 A 
ENDROOT
BRANCH   3  14
ATOM     14  N   UNL     1       2.986   1.104  18.655  0.00  0.00    +0.000 N 
ATOM     15  H   UNL     1       2.304   1.597  19.235  0.00  0.00    +0.000 HD
ATOM     16  H   UNL     1       3.617   0.640  19.306  0.00  0.00    +0.000 HD
ENDBRANCH   3  14
BRANCH   1  18
ATOM     17  C   UNL     1       2.199   3.522  21.255  0.00  0.00    +0.000 C 
ATOM     18  C   UNL     1       1.600   3.518  19.855  0.00  0.00    +0.000 C 
ENDBRANCH   1  18
TORSDOF 2
ENDMDL
MODEL 4
REMARK VINA RESULT:      -6.6      2.269      4.071
REMARK  Name = 
REMARK  3 active torsions:
REMARK  status: ('A' for Active; 'I' for Inactive)
REMARK    1  A    between atoms: C_1  and  C_2
REMARK    2  A    between atoms: C_2  and  N_3
REMARK    3  A    between atoms: N_5  and  N_6
REMARK                            x       y       z     vdW  Elec       q    Type
REMARK                         _______ _______ _______ _____ _____    ______ ____
ROOT
ATOM      1  N   UNL     1       4.205   4.525  17.028  0.00  0.00    +0.000 N 
ATOM      2  C   UNL     1       4.040   5.867  17.470  0.00  0.00    +0.000 C 
ATOM      3  N   UNL     1       4.470   7.035  17.120  0.00  0.00    +0.000 NA
ATOM      4  C   UNL     1       3.129   5.725  18.603  0.00  0.00    +0.000 A 
ATOM      5  C   UNL     1       2.577   6.670  19.468  0.00  0.00    +0.000 A 
ATOM      6  C   UNL     1       1.718   6.189  20.478  0.00  0.00    +0.000 A 
ATOM      7  C   UNL     1       1.420   4.818  20.620  0.00  0.00    +0.000 A 
ATOM      8  C   UNL     1       1.985   3.883  19.735  0.00  0.00    +0.000 A 
ATOM      9  C   UNL     1       1.801   2.488  19.720  0.00  0.00    +0.000 A 
ATOM     10  C   UNL     1       2.448   1.697  18.746  0.00  0.00    +0.000 A 
ATOM     11  C   UNL     1       3.293   2.261  17.767  0.00  0.00    +0.000 A 
ATOM     12  C   UNL     1       3.455   3.639  17.818  0.00  0.00    +0.000 A 
ATOM     13  C   UNL     1       2.811   4.388  18.775  0.00  0.00    +0.000 A 
ENDROOT
BRANCH   3  14
ATOM     14  N   UNL     1       5.304   7.123  16.060  0.00  0.00    +0.000 N 
ATOM     15  H   UNL     1       4.776   7.448  15.247  0.00  0.00    +0.000 HD
ATOM     16  H   UNL     1       5.667   6.207  15.803  0.00  0.00    +0.000 HD
ENDBRANCH   3  14
BRANCH   1  18
ATOM     17  C   UNL     1       6.456   4.036  16.221  0.00  0.00    +0.000 C 
ATOM     18  C   UNL     1       4.976   4.115  15.871  0.00  0.00    +0.000 C 
ENDBRANCH   1  18
TORSDOF 2
ENDMDL
MODEL 5
REMARK VINA RESULT:      -6.6      2.327      4.892
REMARK  Name = 
REMARK  3 active torsions:
REMARK  status: ('A' for Active; 'I' for Inactive)
REMARK    1  A    between atoms: C_1  and  C_2
REMARK    2  A    between atoms: C_2  and  N_3
REMARK    3  A    between atoms: N_5  and  N_6
REMARK                            x       y       z     vdW  Elec       q    Type
REMARK                         _______ _______ _______ _____ _____    ______ ____
ROOT
ATOM      1  N   UNL     1       4.559   5.548  17.048  0.00  0.00    +0.000 N 
ATOM      2  C   UNL     1       4.736   4.175  16.722  0.00  0.00    +0.000 C 
ATOM      3  N   UNL     1       5.439   3.488  15.881  0.00  0.00    +0.000 NA
ATOM      4  C   UNL     1       3.838   3.503  17.656  0.00  0.00    +0.000 A 
ATOM      5  C   UNL     1       3.549   2.151  17.849  0.00  0.00    +0.000 A 
ATOM      6  C   UNL     1       2.615   1.833  18.855  0.00  0.00    +0.000 A 
ATOM      7  C   UNL     1       1.991   2.824  19.641  0.00  0.00    +0.000 A 
ATOM      8  C   UNL     1       2.298   4.181  19.432  0.00  0.00    +0.000 A 
ATOM      9  C   UNL     1       1.784   5.298  20.115  0.00  0.00    +0.000 A 
ATOM     10  C   UNL     1       2.214   6.598  19.774  0.00  0.00    +0.000 A 
ATOM     11  C   UNL     1       3.157   6.829  18.751  0.00  0.00    +0.000 A 
ATOM     12  C   UNL     1       3.637   5.703  18.096  0.00  0.00    +0.000 A 
ATOM     13  C   UNL     1       3.205   4.445  18.449  0.00  0.00    +0.000 A 
ENDROOT
BRANCH   3  14
ATOM     14  N   UNL     1       6.265   4.150  15.041  0.00  0.00    +0.000 N 
ATOM     15  H   UNL     1       7.223   3.826  15.190  0.00  0.00    +0.000 HD
ATOM     16  H   UNL     1       6.278   5.147  15.250  0.00  0.00    +0.000 HD
ENDBRANCH   3  14
BRANCH   1  18
ATOM     17  C   UNL     1       6.525   6.979  17.262  0.00  0.00    +0.000 C 
ATOM     18  C   UNL     1       5.283   6.651  16.445  0.00  0.00    +0.000 C 
ENDBRANCH   1  18
TORSDOF 2
ENDMDL
MODEL 6
REMARK VINA RESULT:      -6.5      1.483      3.355
REMARK  Name = 
REMARK  3 active torsions:
REMARK  status: ('A' for Active; 'I' for Inactive)
REMARK    1  A    between atoms: C_1  and  C_2
REMARK    2  A    between atoms: C_2  and  N_3
REMARK    3  A    between atoms: N_5  and  N_6
REMARK                            x       y       z     vdW  Elec       q    Type
REMARK                         _______ _______ _______ _____ _____    ______ ____
ROOT
ATOM      1  N   UNL     1       2.607   3.477  19.476  0.00  0.00    +0.000 N 
ATOM      2  C   UNL     1       3.497   3.199  18.401  0.00  0.00    +0.000 C 
ATOM      3  N   UNL     1       4.022   2.149  17.858  0.00  0.00    +0.000 NA
ATOM      4  C   UNL     1       3.801   4.530  17.882  0.00  0.00    +0.000 A 
ATOM      5  C   UNL     1       4.615   4.946  16.827  0.00  0.00    +0.000 A 
ATOM      6  C   UNL     1       4.690   6.332  16.585  0.00  0.00    +0.000 A 
ATOM      7  C   UNL     1       3.982   7.270  17.364  0.00  0.00    +0.000 A 
ATOM      8  C   UNL     1       3.164   6.830  18.420  0.00  0.00    +0.000 A 
ATOM      9  C   UNL     1       2.387   7.611  19.294  0.00  0.00    +0.000 A 
ATOM     10  C   UNL     1       1.615   6.993  20.302  0.00  0.00    +0.000 A 
ATOM     11  C   UNL     1       1.595   5.594  20.475  0.00  0.00    +0.000 A 
ATOM     12  C   UNL     1       2.380   4.857  19.598  0.00  0.00    +0.000 A 
ATOM     13  C   UNL     1       3.120   5.482  18.622  0.00  0.00    +0.000 A 
ENDROOT
BRANCH   3  14
ATOM     14  N   UNL     1       3.707   0.937  18.364  0.00  0.00    +0.000 N 
ATOM     15  H   UNL     1       4.548   0.357  18.390  0.00  0.00    +0.000 HD
ATOM     16  H   UNL     1       3.053   0.446  17.757  0.00  0.00    +0.000 HD
ENDBRANCH   3  14
BRANCH   1  18
ATOM     17  C   UNL     1       2.460   2.547  21.728  0.00  0.00    +0.000 C 
ATOM     18  C   UNL     1       1.950   2.477  20.295  0.00  0.00    +0.000 C 
ENDBRANCH   1  18
TORSDOF 2
ENDMDL
MODEL 7
REMARK VINA RESULT:      -6.5      2.668      4.078
REMARK  Name = 
REMARK  3 active torsions:
REMARK  status: ('A' for Active; 'I' for Inactive)
REMARK    1  A    between atoms: C_1  and  C_2
REMARK    2  A    between atoms: C_2  and  N_3
REMARK    3  A    between atoms: N_5  and  N_6
REMARK                            x       y       z     vdW  Elec       q    Type
REMARK                         _______ _______ _______ _____ _____    ______ ____
ROOT
ATOM      1  N   UNL     1       5.703   5.066  16.996  0.00  0.00    +0.000 N 
ATOM      2  C   UNL     1       5.650   6.476  17.179  0.00  0.00    +0.000 C 
ATOM      3  N   UNL     1       6.471   7.471  17.083  0.00  0.00    +0.000 NA
ATOM      4  C   UNL     1       4.260   6.699  17.565  0.00  0.00    +0.000 A 
ATOM      5  C   UNL     1       3.567   7.868  17.885  0.00  0.00    +0.000 A 
ATOM      6  C   UNL     1       2.205   7.733  18.222  0.00  0.00    +0.000 A 
ATOM      7  C   UNL     1       1.557   6.481  18.240  0.00  0.00    +0.000 A 
ATOM      8  C   UNL     1       2.273   5.315  17.911  0.00  0.00    +0.000 A 
ATOM      9  C   UNL     1       1.797   3.992  17.871  0.00  0.00    +0.000 A 
ATOM     10  C   UNL     1       2.664   2.937  17.511  0.00  0.00    +0.000 A 
ATOM     11  C   UNL     1       4.018   3.161  17.185  0.00  0.00    +0.000 A 
ATOM     12  C   UNL     1       4.452   4.479  17.243  0.00  0.00    +0.000 A 
ATOM     13  C   UNL     1       3.587   5.490  17.593  0.00  0.00    +0.000 A 
ENDROOT
BRANCH   3  14
ATOM     14  N   UNL     1       7.746   7.220  16.712  0.00  0.00    +0.000 N 
ATOM     15  H   UNL     1       7.827   6.240  16.436  0.00  0.00    +0.000 HD
ATOM     16  H   UNL     1       8.385   7.337  17.498  0.00  0.00    +0.000 HD
ENDBRANCH   3  14
BRANCH   1  18
ATOM     17  C   UNL     1       6.864   4.225  15.020  0.00  0.00    +0.000 C 
ATOM     18  C   UNL     1       6.863   4.325  16.540  0.00  0.00    +0.000 C 
ENDBRANCH   1  18
TORSDOF 2
ENDMDL
MODEL 8
REMARK VINA RESULT:      -6.4      1.072      1.151
REMARK  Name = 
REMARK  3 active torsions:
REMARK  status: ('A' for Active; 'I' for Inactive)
REMARK    1  A    between atoms: C_1  and  C_2
REMARK    2  A    between atoms: C_2  and  N_3
REMARK    3  A    between atoms: N_5  and  N_6
REMARK                            x       y       z     vdW  Elec       q    Type
REMARK                         _______ _______ _______ _____ _____    ______ ____
ROOT
ATOM      1  N   UNL     1       2.894   3.498  18.404  0.00  0.00    +0.000 N 
ATOM      2  C   UNL     1       2.054   4.371  19.150  0.00  0.00    +0.000 C 
ATOM      3  N   UNL     1       1.130   4.254  20.047  0.00  0.00    +0.000 NA
ATOM      4  C   UNL     1       2.459   5.691  18.675  0.00  0.00    +0.000 A 
ATOM      5  C   UNL     1       2.015   6.971  19.013  0.00  0.00    +0.000 A 
ATOM      6  C   UNL     1       2.627   8.056  18.354  0.00  0.00    +0.000 A 
ATOM      7  C   UNL     1       3.643   7.875  17.393  0.00  0.00    +0.000 A 
ATOM      8  C   UNL     1       4.078   6.577  17.069  0.00  0.00    +0.000 A 
ATOM      9  C   UNL     1       5.073   6.205  16.146  0.00  0.00    +0.000 A 
ATOM     10  C   UNL     1       5.385   4.842  15.951  0.00  0.00    +0.000 A 
ATOM     11  C   UNL     1       4.723   3.816  16.656  0.00  0.00    +0.000 A 
ATOM     12  C   UNL     1       3.743   4.221  17.552  0.00  0.00    +0.000 A 
ATOM     13  C   UNL     1       3.459   5.556  17.727  0.00  0.00    +0.000 A 
ENDROOT
BRANCH   3  14
ATOM     14  N   UNL     1       0.793   3.014  20.466  0.00  0.00    +0.000 N 
ATOM     15  H   UNL     1       1.631   2.539  20.807  0.00  0.00    +0.000 HD
ATOM     16  H   UNL     1       0.452   2.446  19.692  0.00  0.00    +0.000 HD
ENDBRANCH   3  14
BRANCH   1  18
ATOM     17  C   UNL     1       4.091   1.649  19.456  0.00  0.00    +0.000 C 
ATOM     18  C   UNL     1       2.938   2.056  18.549  0.00  0.00    +0.000 C 
ENDBRANCH   1  18
TORSDOF 2
ENDMDL
MODEL 9
REMARK VINA RESULT:      -6.4      2.070      4.505
REMARK  Name = 
REMARK  3 active torsions:
REMARK  status: ('A' for Active; 'I' for Inactive)
REMARK    1  A    between atoms: C_1  and  C_2
REMARK    2  A    between atoms: C_2  and  N_3
REMARK    3  A    between atoms: N_5  and  N_6
REMARK                            x       y       z     vdW  Elec       q    Type
REMARK                         _______ _______ _______ _____ _____    ______ ____
ROOT
ATOM      1  N   UNL     1       4.090   5.604  17.547  0.00  0.00    +0.000 N 
ATOM      2  C   UNL     1       4.194   4.189  17.651  0.00  0.00    +0.000 C 
ATOM      3  N   UNL     1       4.824   3.242  17.035  0.00  0.00    +0.000 NA
ATOM      4  C   UNL     1       3.319   3.882  18.778  0.00  0.00    +0.000 A 
ATOM      5  C   UNL     1       2.985   2.671  19.387  0.00  0.00    +0.000 A 
ATOM      6  C   UNL     1       2.092   2.726  20.476  0.00  0.00    +0.000 A 
ATOM      7  C   UNL     1       1.551   3.941  20.942  0.00  0.00    +0.000 A 
ATOM      8  C   UNL     1       1.902   5.151  20.318  0.00  0.00    +0.000 A 
ATOM      9  C   UNL     1       1.469   6.449  20.644  0.00  0.00    +0.000 A 
ATOM     10  C   UNL     1       1.934   7.559  19.905  0.00  0.00    +0.000 A 
ATOM     11  C   UNL     1       2.831   7.416  18.827  0.00  0.00    +0.000 A 
ATOM     12  C   UNL     1       3.230   6.119  18.531  0.00  0.00    +0.000 A 
ATOM     13  C   UNL     1       2.767   5.054  19.267  0.00  0.00    +0.000 A 
ENDROOT
BRANCH   3  14
ATOM     14  N   UNL     1       5.632   3.571  16.003  0.00  0.00    +0.000 N 
ATOM     15  H   UNL     1       5.463   4.545  15.745  0.00  0.00    +0.000 HD
ATOM     16  H   UNL     1       5.407   3.024  15.174  0.00  0.00    +0.000 HD
ENDBRANCH   3  14
BRANCH   1  18
ATOM     17  C   UNL     1       6.145   6.880  17.222  0.00  0.00    +0.000 C 
ATOM     18  C   UNL     1       4.826   6.429  16.610  0.00  0.00    +0.000 C 
ENDBRANCH   1  18
TORSDOF 2
ENDMDL
