MODEL 1
REMARK VINA RESULT:      -6.7      0.000      0.000
REMARK  Name = 
REMARK  3 active torsions:
REMARK  status: ('A' for Active; 'I' for Inactive)
REMARK    1  A    between atoms: C_2  and  C_3
REMARK    2  A    between atoms: C_7  and  C_8
REMARK    3  A    between atoms: C_8  and  O_10
REMARK                            x       y       z     vdW  Elec       q    Type
REMARK                         _______ _______ _______ _____ _____    ______ ____
ROOT
ATOM      1  C   UNL     1       2.850   3.532  17.519  0.00  0.00    +0.000 C 
ATOM      2  C   UNL     1       3.387   4.889  17.803  0.00  0.00    +0.000 C 
ATOM      3  C   UNL     1       4.448   5.198  18.879  0.00  0.00    +0.000 C 
ATOM      4  C   UNL     1       5.693   4.764  18.209  0.00  0.00    +0.000 A 
ATOM      5  C   UNL     1       7.061   5.084  18.211  0.00  0.00    +0.000 A 
ATOM      6  N   UNL     1       7.678   4.540  17.123  0.00  0.00    +0.000 NA
ATOM      7  N   UNL     1       6.664   3.968  16.413  0.00  0.00    +0.000 N 
ATOM      8  C   UNL     1       5.481   4.078  17.047  0.00  0.00    +0.000 A 
ATOM      9  C   UNL     1       4.020   3.989  16.679  0.00  0.00    +0.000 C 
ATOM     10  H   UNL     1       6.869   3.574  15.497  0.00  0.00    +0.000 HD
ENDROOT
BRANCH   1  12
ATOM     11  C   UNL     1       2.110   2.263  19.521  0.00  0.00    +0.000 C 
ATOM     12  C   UNL     1       2.941   2.434  18.483  0.00  0.00    +0.000 C 
ENDBRANCH   1  12
BRANCH   5  13
ATOM     13  C   UNL     1       7.798   5.975  19.108  0.00  0.00    +0.000 C 
ATOM     14  O   UNL     1       8.298   7.041  18.776  0.00  0.00    +0.000 OA
BRANCH  13  15
ATOM     15  O   UNL     1       7.909   5.463  20.366  0.00  0.00    +0.000 OA
ATOM     16  H   UNL     1       8.540   4.707  20.293  0.00  0.00    +0.000 HD
ENDBRANCH  13  15
ENDBRANCH   5  13
TORSDOF 3
ENDMDL
MODEL 2
REMARK VINA RESULT:      -6.7      2.355      3.024
REMARK  Name = 
REMARK  3 active torsions:
REMARK  status: ('A' for Active; 'I' for Inactive)
REMARK    1  A    between atoms: C_2  and  C_3
REMARK    2  A    between atoms: C_7  and  C_8
REMARK    3  A    between atoms: C_8  and  O_10
REMARK                            x       y       z     vdW  Elec       q    Type
REMARK                         _______ _______ _______ _____ _____    ______ ____
ROOT
ATOM      1  C   UNL     1       1.679   2.167  19.289  0.00  0.00    +0.000 C 
ATOM      2  C   UNL     1       1.927   2.778  17.956  0.00  0.00    +0.000 C 
ATOM      3  C   UNL     1       2.158   4.284  17.719  0.00  0.00    +0.000 C 
ATOM      4  C   UNL     1       3.569   4.443  18.136  0.00  0.00    +0.000 A 
ATOM      5  C   UNL     1       4.675   5.255  17.837  0.00  0.00    +0.000 A 
ATOM      6  N   UNL     1       5.819   4.702  18.334  0.00  0.00    +0.000 NA
ATOM      7  N   UNL     1       5.417   3.507  18.853  0.00  0.00    +0.000 N 
ATOM      8  C   UNL     1       4.084   3.340  18.758  0.00  0.00    +0.000 A 
ATOM      9  C   UNL     1       3.111   2.187  18.806  0.00  0.00    +0.000 C 
ATOM     10  H   UNL     1       6.124   2.863  19.201  0.00  0.00    +0.000 HD
ENDROOT
BRANCH   1  12
ATOM     11  C   UNL     1       1.760   2.900  21.659  0.00  0.00    +0.000 C 
ATOM     12  C   UNL     1       1.213   2.947  20.436  0.00  0.00    +0.000 C 
ENDBRANCH   1  12
BRANCH   5  13
ATOM     13  C   UNL     1       4.737   6.457  17.005  0.00  0.00    +0.000 C 
ATOM     14  O   UNL     1       5.530   6.632  16.090  0.00  0.00    +0.000 OA
BRANCH  13  15
ATOM     15  O   UNL     1       3.830   7.398  17.390  0.00  0.00    +0.000 OA
ATOM     16  H   UNL     1       3.114   6.904  17.859  0.00  0.00    +0.000 HD
ENDBRANCH  13  15
ENDBRANCH   5  13
TORSDOF 3
ENDMDL
MODEL 3
REMARK VINA RESULT:      -6.7      2.259      3.109
REMARK  Name = 
REMARK  3 active torsions:
REMARK  status: ('A' for Active; 'I' for Inactive)
REMARK    1  A    between atoms: C_2  and  C_3
REMARK    2  A    between atoms: C_7  and  C_8
REMARK    3  A    between atoms: C_8  and  O_10
REMARK                            x       y       z     vdW  Elec       q    Type
REMARK                         _______ _______ _______ _____ _____    ______ ____
ROOT
ATOM      1  C   UNL     1       1.771   2.204  19.246  0.00  0.00    +0.000 C 
ATOM      2  C   UNL     1       2.378   2.210  17.889  0.00  0.00    +0.000 C 
ATOM      3  C   UNL     1       2.721   3.488  17.095  0.00  0.00    +0.000 C 
ATOM      4  C   UNL     1       3.981   3.916  17.741  0.00  0.00    +0.000 A 
ATOM      5  C   UNL     1       5.157   4.609  17.409  0.00  0.00    +0.000 A 
ATOM      6  N   UNL     1       6.112   4.409  18.363  0.00  0.00    +0.000 NA
ATOM      7  N   UNL     1       5.544   3.519  19.226  0.00  0.00    +0.000 N 
ATOM      8  C   UNL     1       4.275   3.225  18.883  0.00  0.00    +0.000 A 
ATOM      9  C   UNL     1       3.279   2.129  19.176  0.00  0.00    +0.000 C 
ATOM     10  H   UNL     1       6.111   3.140  19.981  0.00  0.00    +0.000 HD
ENDROOT
BRANCH   1  12
ATOM     11  C   UNL     1       1.403   4.009  20.910  0.00  0.00    +0.000 C 
ATOM     12  C   UNL     1       1.055   3.358  19.791  0.00  0.00    +0.000 C 
ENDBRANCH   1  12
BRANCH   5  13
ATOM     13  C   UNL     1       5.478   5.346  16.186  0.00  0.00    +0.000 C 
ATOM     14  O   UNL     1       5.669   6.553  16.129  0.00  0.00    +0.000 OA
BRANCH  13  15
ATOM     15  O   UNL     1       5.502   4.538  15.088  0.00  0.00    +0.000 OA
ATOM     16  H   UNL     1       5.724   3.637  15.425  0.00  0.00    +0.000 HD
ENDBRANCH  13  15
ENDBRANCH   5  13
TORSDOF 3
ENDMDL
MODEL 4
REMARK VINA RESULT:      -6.6      1.661      1.943
REMARK  Name = 
REMARK  3 active torsions:
REMARK  status: ('A' for Active; 'I' for Inactive)
REMARK    1  A    between atoms: C_2  and  C_3
REMARK    2  A    between atoms: C_7  and  C_8
REMARK    3  A    between atoms: C_8  and  O_10
REMARK                            x       y       z     vdW  Elec       q    Type
REMARK                         _______ _______ _______ _____ _____    ______ ____
ROOT
ATOM      1  C   UNL     1       2.200   4.748  18.735  0.00  0.00    +0.000 C 
ATOM      2  C   UNL     1       2.964   5.473  17.686  0.00  0.00    +0.000 C 
ATOM      3  C   UNL     1       4.037   6.543  17.974  0.00  0.00    +0.000 C 
ATOM      4  C   UNL     1       5.201   5.711  18.350  0.00  0.00    +0.000 A 
ATOM      5  C   UNL     1       6.603   5.768  18.296  0.00  0.00    +0.000 A 
ATOM      6  N   UNL     1       7.139   4.533  18.514  0.00  0.00    +0.000 NA
ATOM      7  N   UNL     1       6.056   3.709  18.607  0.00  0.00    +0.000 N 
ATOM      8  C   UNL     1       4.897   4.390  18.526  0.00  0.00    +0.000 A 
ATOM      9  C   UNL     1       3.453   4.076  18.220  0.00  0.00    +0.000 C 
ATOM     10  H   UNL     1       6.209   2.706  18.676  0.00  0.00    +0.000 HD
ENDROOT
BRANCH   1  12
ATOM     11  C   UNL     1       2.208   4.502  21.206  0.00  0.00    +0.000 C 
ATOM     12  C   UNL     1       2.071   5.252  20.103  0.00  0.00    +0.000 C 
ENDBRANCH   1  12
BRANCH   5  13
ATOM     13  C   UNL     1       7.466   6.892  17.929  0.00  0.00    +0.000 C 
ATOM     14  O   UNL     1       7.396   7.510  16.876  0.00  0.00    +0.000 OA
BRANCH  13  15
ATOM     15  O   UNL     1       8.402   7.156  18.884  0.00  0.00    +0.000 OA
ATOM     16  H   UNL     1       8.089   6.697  19.700  0.00  0.00    +0.000 HD
ENDBRANCH  13  15
ENDBRANCH   5  13
TORSDOF 3
ENDMDL
MODEL 5
REMARK VINA RESULT:      -6.5      2.510      3.292
REMARK  Name = 
REMARK  3 active torsions:
REMARK  status: ('A' for Active; 'I' for Inactive)
REMARK    1  A    between atoms: C_2  and  C_3
REMARK    2  A    between atoms: C_7  and  C_8
REMARK    3  A    between atoms: C_8  and  O_10
REMARK                            x       y       z     vdW  Elec       q    Type
REMARK                         _______ _______ _______ _____ _____    ______ ____
ROOT
ATOM      1  C   UNL     1       3.467   4.370  19.323  0.00  0.00    +0.000 C 
ATOM      2  C   UNL     1       3.716   3.608  18.072  0.00  0.00    +0.000 C 
ATOM      3  C   UNL     1       4.146   4.245  16.734  0.00  0.00    +0.000 C 
ATOM      4  C   UNL     1       5.588   4.484  16.963  0.00  0.00    +0.000 A 
ATOM      5  C   UNL     1       6.778   4.557  16.221  0.00  0.00    +0.000 A 
ATOM      6  N   UNL     1       7.860   4.489  17.050  0.00  0.00    +0.000 NA
ATOM      7  N   UNL     1       7.324   4.281  18.286  0.00  0.00    +0.000 N 
ATOM      8  C   UNL     1       5.978   4.288  18.259  0.00  0.00    +0.000 A 
ATOM      9  C   UNL     1       4.854   3.799  19.140  0.00  0.00    +0.000 C 
ATOM     10  H   UNL     1       7.951   4.100  19.067  0.00  0.00    +0.000 HD
ENDROOT
BRANCH   1  12
ATOM     11  C   UNL     1       2.363   6.423  18.468  0.00  0.00    +0.000 C 
ATOM     12  C   UNL     1       3.190   5.808  19.325  0.00  0.00    +0.000 C 
ENDBRANCH   1  12
BRANCH   5  13
ATOM     13  C   UNL     1       6.960   4.562  14.769  0.00  0.00    +0.000 C 
ATOM     14  O   UNL     1       7.517   5.449  14.139  0.00  0.00    +0.000 OA
BRANCH  13  15
ATOM     15  O   UNL     1       6.394   3.473  14.175  0.00  0.00    +0.000 OA
ATOM     16  H   UNL     1       5.488   3.758  13.903  0.00  0.00    +0.000 HD
ENDBRANCH  13  15
ENDBRANCH   5  13
TORSDOF 3
ENDMDL
MODEL 6
REMARK VINA RESULT:      -6.4      3.474      4.897
REMARK  Name = 
REMARK  3 active torsions:
REMARK  status: ('A' for Active; 'I' for Inactive)
REMARK    1  A    between atoms: C_2  and  C_3
REMARK    2  A    between atoms: C_7  and  C_8
REMARK    3  A    between atoms: C_8  and  O_10
REMARK                            x       y       z     vdW  Elec       q    Type
REMARK                         _______ _______ _______ _____ _____    ______ ____
ROOT
ATOM      1  C   UNL     1       5.336   6.056  16.817  0.00  0.00    +0.000 C 
ATOM      2  C   UNL     1       4.177   6.109  17.746  0.00  0.00    +0.000 C 
ATOM      3  C   UNL     1       3.005   5.106  17.733  0.00  0.00    +0.000 C 
ATOM      4  C   UNL     1       3.598   3.939  18.421  0.00  0.00    +0.000 A 
ATOM      5  C   UNL     1       3.186   2.863  19.226  0.00  0.00    +0.000 A 
ATOM      6  N   UNL     1       4.262   2.282  19.830  0.00  0.00    +0.000 NA
ATOM      7  N   UNL     1       5.317   3.064  19.465  0.00  0.00    +0.000 N 
ATOM      8  C   UNL     1       4.947   4.044  18.618  0.00  0.00    +0.000 A 
ATOM      9  C   UNL     1       5.504   5.367  18.151  0.00  0.00    +0.000 C 
ATOM     10  H   UNL     1       6.229   2.881  19.877  0.00  0.00    +0.000 HD
ENDROOT
BRANCH   1  12
ATOM     11  C   UNL     1       6.241   4.486  15.119  0.00  0.00    +0.000 C 
ATOM     12  C   UNL     1       5.292   5.332  15.545  0.00  0.00    +0.000 C 
ENDBRANCH   1  12
BRANCH   5  13
ATOM     13  C   UNL     1       1.829   2.429  19.558  0.00  0.00    +0.000 C 
ATOM     14  O   UNL     1       1.251   2.684  20.605  0.00  0.00    +0.000 OA
BRANCH  13  15
ATOM     15  O   UNL     1       1.280   1.657  18.577  0.00  0.00    +0.000 OA
ATOM     16  H   UNL     1       2.011   1.076  18.254  0.00  0.00    +0.000 HD
ENDBRANCH  13  15
ENDBRANCH   5  13
TORSDOF 3
ENDMDL
MODEL 7
REMARK VINA RESULT:      -6.4      2.512      3.027
REMARK  Name = 
REMARK  3 active torsions:
REMARK  status: ('A' for Active; 'I' for Inactive)
REMARK    1  A    between atoms: C_2  and  C_3
REMARK    2  A    between atoms: C_7  and  C_8
REMARK    3  A    between atoms: C_8  and  O_10
REMARK                            x       y       z     vdW  Elec       q    Type
REMARK                         _______ _______ _______ _____ _____    ______ ____
ROOT
ATOM      1  C   UNL     1       1.718   2.198  19.130  0.00  0.00    +0.000 C 
ATOM      2  C   UNL     1       1.493   3.264  18.118  0.00  0.00    +0.000 C 
ATOM      3  C   UNL     1       2.090   4.684  18.203  0.00  0.00    +0.000 C 
ATOM      4  C   UNL     1       3.482   4.453  17.758  0.00  0.00    +0.000 A 
ATOM      5  C   UNL     1       4.514   5.150  17.107  0.00  0.00    +0.000 A 
ATOM      6  N   UNL     1       5.482   4.285  16.688  0.00  0.00    +0.000 NA
ATOM      7  N   UNL     1       4.991   3.053  17.003  0.00  0.00    +0.000 N 
ATOM      8  C   UNL     1       3.813   3.131  17.651  0.00  0.00    +0.000 A 
ATOM      9  C   UNL     1       2.650   2.213  17.940  0.00  0.00    +0.000 C 
ATOM     10  H   UNL     1       5.503   2.229  16.696  0.00  0.00    +0.000 HD
ENDROOT
BRANCH   1  12
ATOM     11  C   UNL     1       1.343   2.797  21.510  0.00  0.00    +0.000 C 
ATOM     12  C   UNL     1       2.162   2.490  20.494  0.00  0.00    +0.000 C 
ENDBRANCH   1  12
BRANCH   5  13
ATOM     13  C   UNL     1       4.584   6.567  16.747  0.00  0.00    +0.000 C 
ATOM     14  O   UNL     1       4.063   7.474  17.381  0.00  0.00    +0.000 OA
BRANCH  13  15
ATOM     15  O   UNL     1       5.266   6.770  15.584  0.00  0.00    +0.000 OA
ATOM     16  H   UNL     1       5.060   7.697  15.312  0.00  0.00    +0.000 HD
ENDBRANCH  13  15
ENDBRANCH   5  13
TORSDOF 3
ENDMDL
MODEL 8
REMARK VINA RESULT:      -6.4      3.630      5.082
REMARK  Name = 
REMARK  3 active torsions:
REMARK  status: ('A' for Active; 'I' for Inactive)
REMARK    1  A    between atoms: C_2  and  C_3
REMARK    2  A    between atoms: C_7  and  C_8
REMARK    3  A    between atoms: C_8  and  O_10
REMARK                            x       y       z     vdW  Elec       q    Type
REMARK                         _______ _______ _______ _____ _____    ______ ____
ROOT
ATOM      1  C   UNL     1       5.327   6.023  17.182  0.00  0.00    +0.000 C 
ATOM      2  C   UNL     1       4.162   6.142  18.097  0.00  0.00    +0.000 C 
ATOM      3  C   UNL     1       2.832   5.381  17.917  0.00  0.00    +0.000 C 
ATOM      4  C   UNL     1       3.184   4.035  18.421  0.00  0.00    +0.000 A 
ATOM      5  C   UNL     1       2.559   2.942  19.044  0.00  0.00    +0.000 A 
ATOM      6  N   UNL     1       3.492   2.092  19.560  0.00  0.00    +0.000 NA
ATOM      7  N   UNL     1       4.681   2.718  19.331  0.00  0.00    +0.000 N 
ATOM      8  C   UNL     1       4.522   3.865  18.644  0.00  0.00    +0.000 A 
ATOM      9  C   UNL     1       5.321   5.121  18.394  0.00  0.00    +0.000 C 
ATOM     10  H   UNL     1       5.530   2.312  19.718  0.00  0.00    +0.000 HD
ENDROOT
BRANCH   1  12
ATOM     11  C   UNL     1       5.967   4.552  15.287  0.00  0.00    +0.000 C 
ATOM     12  C   UNL     1       5.203   5.520  15.813  0.00  0.00    +0.000 C 
ENDBRANCH   1  12
BRANCH   5  13
ATOM     13  C   UNL     1       1.135   2.714  19.291  0.00  0.00    +0.000 C 
ATOM     14  O   UNL     1       0.365   2.189  18.499  0.00  0.00    +0.000 OA
BRANCH  13  15
ATOM     15  O   UNL     1       0.738   3.196  20.503  0.00  0.00    +0.000 OA
ATOM     16  H   UNL     1       1.242   2.677  21.175  0.00  0.00    +0.000 HD
ENDBRANCH  13  15
ENDBRANCH   5  13
TORSDOF 3
ENDMDL
MODEL 9
REMARK VINA RESULT:      -6.3      0.669      1.094
REMARK  Name = 
REMARK  3 active torsions:
REMARK  status: ('A' for Active; 'I' for Inactive)
REMARK    1  A    between atoms: C_2  and  C_3
REMARK    2  A    between atoms: C_7  and  C_8
REMARK    3  A    between atoms: C_8  and  O_10
REMARK                            x       y       z     vdW  Elec       q    Type
REMARK                         _______ _______ _______ _____ _____    ______ ____
ROOT
ATOM      1  C   UNL     1       2.190   3.879  18.022  0.00  0.00    +0.000 C 
ATOM      2  C   UNL     1       2.904   5.158  18.276  0.00  0.00    +0.000 C 
ATOM      3  C   UNL     1       4.082   5.316  19.260  0.00  0.00    +0.000 C 
ATOM      4  C   UNL     1       5.206   4.758  18.477  0.00  0.00    +0.000 A 
ATOM      5  C   UNL     1       6.597   4.918  18.362  0.00  0.00    +0.000 A 
ATOM      6  N   UNL     1       7.050   4.332  17.217  0.00  0.00    +0.000 NA
ATOM      7  N   UNL     1       5.920   3.898  16.590  0.00  0.00    +0.000 N 
ATOM      8  C   UNL     1       4.816   4.129  17.328  0.00  0.00    +0.000 A 
ATOM      9  C   UNL     1       3.329   4.218  17.089  0.00  0.00    +0.000 C 
ATOM     10  H   UNL     1       5.998   3.506  15.655  0.00  0.00    +0.000 HD
ENDROOT
BRANCH   1  12
ATOM     11  C   UNL     1       1.498   2.668  20.077  0.00  0.00    +0.000 C 
ATOM     12  C   UNL     1       2.234   2.755  18.959  0.00  0.00    +0.000 C 
ENDBRANCH   1  12
BRANCH   5  13
ATOM     13  C   UNL     1       7.508   5.696  19.203  0.00  0.00    +0.000 C 
ATOM     14  O   UNL     1       7.782   5.431  20.365  0.00  0.00    +0.000 OA
BRANCH  13  15
ATOM     15  O   UNL     1       7.995   6.793  18.558  0.00  0.00    +0.000 OA
ATOM     16  H   UNL     1       7.206   7.346  18.338  0.00  0.00    +0.000 HD
ENDBRANCH  13  15
ENDBRANCH   5  13
TORSDOF 3
ENDMDL
