MODEL 1
REMARK VINA RESULT:      -7.6      0.000      0.000
REMARK  Name = 
REMARK  6 active torsions:
REMARK  status: ('A' for Active; 'I' for Inactive)
REMARK    1  A    between atoms: C_1  and  C_2
REMARK    2  A    between atoms: C_6  and  O_7
REMARK    3  A    between atoms: C_14  and  O_15
REMARK    4  A    between atoms: C_16  and  O_17
REMARK    5  A    between atoms: C_22  and  C_23
REMARK    6  A    between atoms: C_22  and  C_24
REMARK                            x       y       z     vdW  Elec       q    Type
REMARK                         _______ _______ _______ _____ _____    ______ ____
ROOT
ATOM      1  C   UNL     1       0.700   3.034  19.540  0.00  0.00    +0.000 C 
ATOM      2  C   UNL     1       1.817   3.474  18.573  0.00  0.00    +0.000 C 
ATOM      3  O   UNL     1       2.990   2.636  19.112  0.00  0.00    +0.000 OA
ATOM      4  C   UNL     1       4.070   3.294  18.590  0.00  0.00    +0.000 A 
ATOM      5  C   UNL     1       5.266   3.648  19.188  0.00  0.00    +0.000 A 
ATOM      6  C   UNL     1       5.996   4.704  18.595  0.00  0.00    +0.000 A 
ATOM      7  C   UNL     1       5.707   5.096  17.304  0.00  0.00    +0.000 A 
ATOM      8  C   UNL     1       6.627   5.834  16.413  0.00  0.00    +0.000 A 
ATOM      9  O   UNL     1       7.324   6.699  16.846  0.00  0.00    +0.000 OA
ATOM     10  C   UNL     1       6.661   5.327  15.044  0.00  0.00    +0.000 A 
ATOM     11  C   UNL     1       7.764   5.695  14.238  0.00  0.00    +0.000 A 
ATOM     12  C   UNL     1       7.957   5.075  12.995  0.00  0.00    +0.000 A 
ATOM     13  C   UNL     1       7.061   4.082  12.603  0.00  0.00    +0.000 A 
ATOM     14  C   UNL     1       5.932   3.766  13.393  0.00  0.00    +0.000 A 
ATOM     15  C   UNL     1       5.693   4.401  14.628  0.00  0.00    +0.000 A 
ATOM     16  O   UNL     1       4.569   4.149  15.421  0.00  0.00    +0.000 OA
ATOM     17  C   UNL     1       4.543   4.661  16.742  0.00  0.00    +0.000 A 
ATOM     18  C   UNL     1       3.621   4.182  17.669  0.00  0.00    +0.000 A 
ATOM     19  C   UNL     1       2.498   4.890  18.557  0.00  0.00    +0.000 C 
ATOM     20  C   UNL     1       2.554   6.339  18.053  0.00  0.00    +0.000 C 
ATOM     21  C   UNL     1       2.280   5.246  20.102  0.00  0.00    +0.000 C 
ENDROOT
BRANCH   6  22
ATOM     22  O   UNL     1       6.982   5.308  19.319  0.00  0.00    +0.000 OA
ATOM     23  H   UNL     1       6.571   5.567  20.171  0.00  0.00    +0.000 HD
ENDBRANCH   6  22
BRANCH  13  24
ATOM     24  O   UNL     1       7.262   3.416  11.432  0.00  0.00    +0.000 OA
ATOM     25  H   UNL     1       6.765   3.873  10.723  0.00  0.00    +0.000 HD
ENDBRANCH  13  24
BRANCH  14  26
ATOM     26  O   UNL     1       5.114   2.759  12.929  0.00  0.00    +0.000 OA
ATOM     27  H   UNL     1       5.314   1.994  13.501  0.00  0.00    +0.000 HD
ENDBRANCH  14  26
TORSDOF 3
ENDMDL
MODEL 2
REMARK VINA RESULT:      -7.3      2.899      6.603
REMARK  Name = 
REMARK  6 active torsions:
REMARK  status: ('A' for Active; 'I' for Inactive)
REMARK    1  A    between atoms: C_1  and  C_2
REMARK    2  A    between atoms: C_6  and  O_7
REMARK    3  A    between atoms: C_14  and  O_15
REMARK    4  A    between atoms: C_16  and  O_17
REMARK    5  A    between atoms: C_22  and  C_23
REMARK    6  A    between atoms: C_22  and  C_24
REMARK                            x       y       z     vdW  Elec       q    Type
REMARK                         _______ _______ _______ _____ _____    ______ ____
ROOT
ATOM      1  C   UNL     1       7.201   5.098  13.677  0.00  0.00    +0.000 C 
ATOM      2  C   UNL     1       6.190   5.541  14.753  0.00  0.00    +0.000 C 
ATOM      3  O   UNL     1       7.152   6.100  15.818  0.00  0.00    +0.000 OA
ATOM      4  C   UNL     1       6.364   6.101  16.936  0.00  0.00    +0.000 A 
ATOM      5  C   UNL     1       6.656   5.697  18.226  0.00  0.00    +0.000 A 
ATOM      6  C   UNL     1       5.564   5.363  19.061  0.00  0.00    +0.000 A 
ATOM      7  C   UNL     1       4.290   5.768  18.717  0.00  0.00    +0.000 A 
ATOM      8  C   UNL     1       3.157   5.896  19.656  0.00  0.00    +0.000 A 
ATOM      9  O   UNL     1       2.998   5.095  20.525  0.00  0.00    +0.000 OA
ATOM     10  C   UNL     1       2.369   7.111  19.473  0.00  0.00    +0.000 A 
ATOM     11  C   UNL     1       1.529   7.513  20.539  0.00  0.00    +0.000 A 
ATOM     12  C   UNL     1       0.914   8.773  20.505  0.00  0.00    +0.000 A 
ATOM     13  C   UNL     1       1.177   9.611  19.423  0.00  0.00    +0.000 A 
ATOM     14  C   UNL     1       1.972   9.173  18.340  0.00  0.00    +0.000 A 
ATOM     15  C   UNL     1       2.571   7.898  18.330  0.00  0.00    +0.000 A 
ATOM     16  O   UNL     1       3.330   7.410  17.261  0.00  0.00    +0.000 OA
ATOM     17  C   UNL     1       4.077   6.220  17.448  0.00  0.00    +0.000 A 
ATOM     18  C   UNL     1       5.084   5.868  16.554  0.00  0.00    +0.000 A 
ATOM     19  C   UNL     1       5.341   4.574  15.655  0.00  0.00    +0.000 C 
ATOM     20  C   UNL     1       4.069   3.751  15.901  0.00  0.00    +0.000 C 
ATOM     21  C   UNL     1       6.357   3.336  15.649  0.00  0.00    +0.000 C 
ENDROOT
BRANCH   6  22
ATOM     22  O   UNL     1       5.802   4.649  20.198  0.00  0.00    +0.000 OA
ATOM     23  H   UNL     1       4.982   4.139  20.373  0.00  0.00    +0.000 HD
ENDBRANCH   6  22
BRANCH  13  24
ATOM     24  O   UNL     1       0.647  10.866  19.397  0.00  0.00    +0.000 OA
ATOM     25  H   UNL     1       1.326  11.484  19.059  0.00  0.00    +0.000 HD
ENDBRANCH  13  24
BRANCH  14  26
ATOM     26  O   UNL     1       2.188  10.081  17.325  0.00  0.00    +0.000 OA
ATOM     27  H   UNL     1       1.296  10.305  16.999  0.00  0.00    +0.000 HD
ENDBRANCH  14  26
TORSDOF 3
ENDMDL
MODEL 3
REMARK VINA RESULT:      -6.4      9.626     11.989
REMARK  Name = 
REMARK  6 active torsions:
REMARK  status: ('A' for Active; 'I' for Inactive)
REMARK    1  A    between atoms: C_1  and  C_2
REMARK    2  A    between atoms: C_6  and  O_7
REMARK    3  A    between atoms: C_14  and  O_15
REMARK    4  A    between atoms: C_16  and  O_17
REMARK    5  A    between atoms: C_22  and  C_23
REMARK    6  A    between atoms: C_22  and  C_24
REMARK                            x       y       z     vdW  Elec       q    Type
REMARK                         _______ _______ _______ _____ _____    ______ ____
ROOT
ATOM      1  C   UNL     1      -4.379  16.442  23.859  0.00  0.00    +0.000 C 
ATOM      2  C   UNL     1      -3.787  15.439  22.850  0.00  0.00    +0.000 C 
ATOM      3  O   UNL     1      -4.310  14.116  23.440  0.00  0.00    +0.000 OA
ATOM      4  C   UNL     1      -3.478  13.199  22.857  0.00  0.00    +0.000 A 
ATOM      5  C   UNL     1      -2.831  12.111  23.413  0.00  0.00    +0.000 A 
ATOM      6  C   UNL     1      -1.692  11.620  22.732  0.00  0.00    +0.000 A 
ATOM      7  C   UNL     1      -1.473  11.979  21.417  0.00  0.00    +0.000 A 
ATOM      8  C   UNL     1      -0.628  11.232  20.463  0.00  0.00    +0.000 A 
ATOM      9  O   UNL     1       0.398  10.740  20.819  0.00  0.00    +0.000 OA
ATOM     10  C   UNL     1      -1.221  11.082  19.137  0.00  0.00    +0.000 A 
ATOM     11  C   UNL     1      -0.690  10.078  18.293  0.00  0.00    +0.000 A 
ATOM     12  C   UNL     1      -1.349   9.749  17.101  0.00  0.00    +0.000 A 
ATOM     13  C   UNL     1      -2.538  10.408  16.796  0.00  0.00    +0.000 A 
ATOM     14  C   UNL     1      -3.026  11.448  17.620  0.00  0.00    +0.000 A 
ATOM     15  C   UNL     1      -2.363  11.826  18.804  0.00  0.00    +0.000 A 
ATOM     16  O   UNL     1      -2.787  12.875  19.626  0.00  0.00    +0.000 OA
ATOM     17  C   UNL     1      -2.191  13.019  20.903  0.00  0.00    +0.000 A 
ATOM     18  C   UNL     1      -2.782  13.822  21.875  0.00  0.00    +0.000 A 
ATOM     19  C   UNL     1      -2.263  15.077  22.716  0.00  0.00    +0.000 C 
ATOM     20  C   UNL     1      -0.880  15.329  22.100  0.00  0.00    +0.000 C 
ATOM     21  C   UNL     1      -1.843  15.376  24.232  0.00  0.00    +0.000 C 
ENDROOT
BRANCH   6  22
ATOM     22  O   UNL     1      -0.836  10.792  23.396  0.00  0.00    +0.000 OA
ATOM     23  H   UNL     1      -0.893  11.047  24.342  0.00  0.00    +0.000 HD
ENDBRANCH   6  22
BRANCH  13  24
ATOM     24  O   UNL     1      -3.236  10.061  15.678  0.00  0.00    +0.000 OA
ATOM     25  H   UNL     1      -3.392  10.867  15.145  0.00  0.00    +0.000 HD
ENDBRANCH  13  24
BRANCH  14  26
ATOM     26  O   UNL     1      -4.218  12.028  17.244  0.00  0.00    +0.000 OA
ATOM     27  H   UNL     1      -4.035  12.428  16.372  0.00  0.00    +0.000 HD
ENDBRANCH  14  26
TORSDOF 3
ENDMDL
MODEL 4
REMARK VINA RESULT:      -6.4      9.229     12.617
REMARK  Name = 
REMARK  6 active torsions:
REMARK  status: ('A' for Active; 'I' for Inactive)
REMARK    1  A    between atoms: C_1  and  C_2
REMARK    2  A    between atoms: C_6  and  O_7
REMARK    3  A    between atoms: C_14  and  O_15
REMARK    4  A    between atoms: C_16  and  O_17
REMARK    5  A    between atoms: C_22  and  C_23
REMARK    6  A    between atoms: C_22  and  C_24
REMARK                            x       y       z     vdW  Elec       q    Type
REMARK                         _______ _______ _______ _____ _____    ______ ____
ROOT
ATOM      1  C   UNL     1       2.564  13.586  21.214  0.00  0.00    +0.000 C 
ATOM      2  C   UNL     1       1.103  13.316  20.803  0.00  0.00    +0.000 C 
ATOM      3  O   UNL     1       1.071  11.780  20.905  0.00  0.00    +0.000 OA
ATOM      4  C   UNL     1      -0.030  11.470  20.154  0.00  0.00    +0.000 A 
ATOM      5  C   UNL     1      -0.205  10.481  19.204  0.00  0.00    +0.000 A 
ATOM      6  C   UNL     1      -1.244  10.667  18.262  0.00  0.00    +0.000 A 
ATOM      7  C   UNL     1      -2.237  11.593  18.512  0.00  0.00    +0.000 A 
ATOM      8  C   UNL     1      -3.576  11.591  17.887  0.00  0.00    +0.000 A 
ATOM      9  O   UNL     1      -3.708  11.306  16.737  0.00  0.00    +0.000 OA
ATOM     10  C   UNL     1      -4.666  11.854  18.822  0.00  0.00    +0.000 A 
ATOM     11  C   UNL     1      -5.974  11.496  18.419  0.00  0.00    +0.000 A 
ATOM     12  C   UNL     1      -7.024  11.529  19.348  0.00  0.00    +0.000 A 
ATOM     13  C   UNL     1      -6.736  11.891  20.662  0.00  0.00    +0.000 A 
ATOM     14  C   UNL     1      -5.436  12.301  21.036  0.00  0.00    +0.000 A 
ATOM     15  C   UNL     1      -4.371  12.313  20.115  0.00  0.00    +0.000 A 
ATOM     16  O   UNL     1      -3.080  12.751  20.431  0.00  0.00    +0.000 OA
ATOM     17  C   UNL     1      -2.036  12.504  19.507  0.00  0.00    +0.000 A 
ATOM     18  C   UNL     1      -0.704  12.618  19.896  0.00  0.00    +0.000 A 
ATOM     19  C   UNL     1       0.519  13.490  19.354  0.00  0.00    +0.000 C 
ATOM     20  C   UNL     1      -0.152  14.358  18.281  0.00  0.00    +0.000 C 
ATOM     21  C   UNL     1       1.878  13.227  18.548  0.00  0.00    +0.000 C 
ENDROOT
BRANCH   6  22
ATOM     22  O   UNL     1      -1.242   9.914  17.125  0.00  0.00    +0.000 OA
ATOM     23  H   UNL     1      -1.491  10.523  16.397  0.00  0.00    +0.000 HD
ENDBRANCH   6  22
BRANCH  13  24
ATOM     24  O   UNL     1      -7.724  11.867  21.601  0.00  0.00    +0.000 OA
ATOM     25  H   UNL     1      -8.056  12.779  21.727  0.00  0.00    +0.000 HD
ENDBRANCH  13  24
BRANCH  14  26
ATOM     26  O   UNL     1      -5.247  12.623  22.363  0.00  0.00    +0.000 OA
ATOM     27  H   UNL     1      -5.120  11.764  22.811  0.00  0.00    +0.000 HD
ENDBRANCH  14  26
TORSDOF 3
ENDMDL
MODEL 5
REMARK VINA RESULT:      -6.2      9.956     12.276
REMARK  Name = 
REMARK  6 active torsions:
REMARK  status: ('A' for Active; 'I' for Inactive)
REMARK    1  A    between atoms: C_1  and  C_2
REMARK    2  A    between atoms: C_6  and  O_7
REMARK    3  A    between atoms: C_14  and  O_15
REMARK    4  A    between atoms: C_16  and  O_17
REMARK    5  A    between atoms: C_22  and  C_23
REMARK    6  A    between atoms: C_22  and  C_24
REMARK                            x       y       z     vdW  Elec       q    Type
REMARK                         _______ _______ _______ _____ _____    ______ ____
ROOT
ATOM      1  C   UNL     1      -6.382  15.306  23.941  0.00  0.00    +0.000 C 
ATOM      2  C   UNL     1      -5.493  14.578  22.912  0.00  0.00    +0.000 C 
ATOM      3  O   UNL     1      -5.325  13.217  23.612  0.00  0.00    +0.000 OA
ATOM      4  C   UNL     1      -4.225  12.708  22.976  0.00  0.00    +0.000 A 
ATOM      5  C   UNL     1      -3.119  12.064  23.499  0.00  0.00    +0.000 A 
ATOM      6  C   UNL     1      -1.942  12.062  22.714  0.00  0.00    +0.000 A 
ATOM      7  C   UNL     1      -2.016  12.364  21.369  0.00  0.00    +0.000 A 
ATOM      8  C   UNL     1      -1.010  11.982  20.356  0.00  0.00    +0.000 A 
ATOM      9  O   UNL     1       0.153  12.019  20.614  0.00  0.00    +0.000 OA
ATOM     10  C   UNL     1      -1.585  11.473  19.114  0.00  0.00    +0.000 A 
ATOM     11  C   UNL     1      -0.737  10.732  18.257  0.00  0.00    +0.000 A 
ATOM     12  C   UNL     1      -1.280  10.046  17.161  0.00  0.00    +0.000 A 
ATOM     13  C   UNL     1      -2.659  10.092  16.967  0.00  0.00    +0.000 A 
ATOM     14  C   UNL     1      -3.485  10.882  17.798  0.00  0.00    +0.000 A 
ATOM     15  C   UNL     1      -2.961  11.612  18.882  0.00  0.00    +0.000 A 
ATOM     16  O   UNL     1      -3.735  12.439  19.704  0.00  0.00    +0.000 OA
ATOM     17  C   UNL     1      -3.160  12.938  20.898  0.00  0.00    +0.000 A 
ATOM     18  C   UNL     1      -3.962  13.484  21.896  0.00  0.00    +0.000 A 
ATOM     19  C   UNL     1      -3.984  14.907  22.621  0.00  0.00    +0.000 C 
ATOM     20  C   UNL     1      -2.913  15.683  21.843  0.00  0.00    +0.000 C 
ATOM     21  C   UNL     1      -3.615  15.490  24.066  0.00  0.00    +0.000 C 
ENDROOT
BRANCH   6  22
ATOM     22  O   UNL     1      -0.756  11.750  23.310  0.00  0.00    +0.000 OA
ATOM     23  H   UNL     1      -0.316  12.607  23.499  0.00  0.00    +0.000 HD
ENDBRANCH   6  22
BRANCH  13  24
ATOM     24  O   UNL     1      -3.222   9.380  15.951  0.00  0.00    +0.000 OA
ATOM     25  H   UNL     1      -3.654   8.587  16.327  0.00  0.00    +0.000 HD
ENDBRANCH  13  24
BRANCH  14  26
ATOM     26  O   UNL     1      -4.838  10.848  17.536  0.00  0.00    +0.000 OA
ATOM     27  H   UNL     1      -4.971  11.515  16.835  0.00  0.00    +0.000 HD
ENDBRANCH  14  26
TORSDOF 3
ENDMDL
MODEL 6
REMARK VINA RESULT:      -6.2      6.096      8.493
REMARK  Name = 
REMARK  6 active torsions:
REMARK  status: ('A' for Active; 'I' for Inactive)
REMARK    1  A    between atoms: C_1  and  C_2
REMARK    2  A    between atoms: C_6  and  O_7
REMARK    3  A    between atoms: C_14  and  O_15
REMARK    4  A    between atoms: C_16  and  O_17
REMARK    5  A    between atoms: C_22  and  C_23
REMARK    6  A    between atoms: C_22  and  C_24
REMARK                            x       y       z     vdW  Elec       q    Type
REMARK                         _______ _______ _______ _____ _____    ______ ____
ROOT
ATOM      1  C   UNL     1      -2.683  12.759  23.037  0.00  0.00    +0.000 C 
ATOM      2  C   UNL     1      -1.774  11.875  22.159  0.00  0.00    +0.000 C 
ATOM      3  O   UNL     1      -0.392  12.424  22.558  0.00  0.00    +0.000 OA
ATOM      4  C   UNL     1       0.392  11.995  21.522  0.00  0.00    +0.000 A 
ATOM      5  C   UNL     1       1.363  12.670  20.807  0.00  0.00    +0.000 A 
ATOM      6  C   UNL     1       1.680  12.174  19.520  0.00  0.00    +0.000 A 
ATOM      7  C   UNL     1       1.302  10.894  19.168  0.00  0.00    +0.000 A 
ATOM      8  C   UNL     1       1.918  10.094  18.089  0.00  0.00    +0.000 A 
ATOM      9  O   UNL     1       2.245  10.608  17.065  0.00  0.00    +0.000 OA
ATOM     10  C   UNL     1       2.168   8.702  18.453  0.00  0.00    +0.000 A 
ATOM     11  C   UNL     1       3.085   7.973  17.660  0.00  0.00    +0.000 A 
ATOM     12  C   UNL     1       3.522   6.709  18.081  0.00  0.00    +0.000 A 
ATOM     13  C   UNL     1       3.054   6.217  19.298  0.00  0.00    +0.000 A 
ATOM     14  C   UNL     1       2.094   6.931  20.051  0.00  0.00    +0.000 A 
ATOM     15  C   UNL     1       1.610   8.186  19.633  0.00  0.00    +0.000 A 
ATOM     16  O   UNL     1       0.632   8.907  20.325  0.00  0.00    +0.000 OA
ATOM     17  C   UNL     1       0.388  10.251  19.950  0.00  0.00    +0.000 A 
ATOM     18  C   UNL     1      -0.323  11.104  20.791  0.00  0.00    +0.000 A 
ATOM     19  C   UNL     1      -1.648  11.972  20.596  0.00  0.00    +0.000 C 
ATOM     20  C   UNL     1      -2.105  11.554  19.191  0.00  0.00    +0.000 C 
ATOM     21  C   UNL     1      -2.021  13.523  20.452  0.00  0.00    +0.000 C 
ENDROOT
BRANCH   6  22
ATOM     22  O   UNL     1       2.362  12.979  18.656  0.00  0.00    +0.000 OA
ATOM     23  H   UNL     1       1.962  13.871  18.745  0.00  0.00    +0.000 HD
ENDBRANCH   6  22
BRANCH  13  24
ATOM     24  O   UNL     1       3.512   5.022  19.764  0.00  0.00    +0.000 OA
ATOM     25  H   UNL     1       2.747   4.429  19.907  0.00  0.00    +0.000 HD
ENDBRANCH  13  24
BRANCH  14  26
ATOM     26  O   UNL     1       1.707   6.371  21.249  0.00  0.00    +0.000 OA
ATOM     27  H   UNL     1       0.865   5.919  21.051  0.00  0.00    +0.000 HD
ENDBRANCH  14  26
TORSDOF 3
ENDMDL
MODEL 7
REMARK VINA RESULT:      -6.0      9.703     13.000
REMARK  Name = 
REMARK  6 active torsions:
REMARK  status: ('A' for Active; 'I' for Inactive)
REMARK    1  A    between atoms: C_1  and  C_2
REMARK    2  A    between atoms: C_6  and  O_7
REMARK    3  A    between atoms: C_14  and  O_15
REMARK    4  A    between atoms: C_16  and  O_17
REMARK    5  A    between atoms: C_22  and  C_23
REMARK    6  A    between atoms: C_22  and  C_24
REMARK                            x       y       z     vdW  Elec       q    Type
REMARK                         _______ _______ _______ _____ _____    ______ ____
ROOT
ATOM      1  C   UNL     1      -2.242   9.497  16.747  0.00  0.00    +0.000 C 
ATOM      2  C   UNL     1      -2.145  10.373  18.012  0.00  0.00    +0.000 C 
ATOM      3  O   UNL     1      -1.975  11.762  17.370  0.00  0.00    +0.000 OA
ATOM      4  C   UNL     1      -1.461  12.491  18.407  0.00  0.00    +0.000 A 
ATOM      5  C   UNL     1      -0.418  13.399  18.421  0.00  0.00    +0.000 A 
ATOM      6  C   UNL     1       0.204  13.648  19.666  0.00  0.00    +0.000 A 
ATOM      7  C   UNL     1      -0.433  13.284  20.835  0.00  0.00    +0.000 A 
ATOM      8  C   UNL     1      -0.151  13.854  22.169  0.00  0.00    +0.000 A 
ATOM      9  O   UNL     1       0.967  14.103  22.497  0.00  0.00    +0.000 OA
ATOM     10  C   UNL     1      -1.348  14.163  22.947  0.00  0.00    +0.000 A 
ATOM     11  C   UNL     1      -1.206  15.048  24.041  0.00  0.00    +0.000 A 
ATOM     12  C   UNL     1      -2.346  15.543  24.690  0.00  0.00    +0.000 A 
ATOM     13  C   UNL     1      -3.599  15.165  24.212  0.00  0.00    +0.000 A 
ATOM     14  C   UNL     1      -3.724  14.235  23.154  0.00  0.00    +0.000 A 
ATOM     15  C   UNL     1      -2.595  13.693  22.509  0.00  0.00    +0.000 A 
ATOM     16  O   UNL     1      -2.672  12.739  21.488  0.00  0.00    +0.000 OA
ATOM     17  C   UNL     1      -1.500  12.438  20.753  0.00  0.00    +0.000 A 
ATOM     18  C   UNL     1      -1.579  11.757  19.541  0.00  0.00    +0.000 A 
ATOM     19  C   UNL     1      -0.929  10.399  19.008  0.00  0.00    +0.000 C 
ATOM     20  C   UNL     1      -0.217   9.869  20.260  0.00  0.00    +0.000 C 
ATOM     21  C   UNL     1       0.208   9.978  17.962  0.00  0.00    +0.000 C 
ENDROOT
BRANCH   6  22
ATOM     22  O   UNL     1       1.426  14.255  19.680  0.00  0.00    +0.000 OA
ATOM     23  H   UNL     1       2.074  13.561  19.436  0.00  0.00    +0.000 HD
ENDBRANCH   6  22
BRANCH  13  24
ATOM     24  O   UNL     1      -4.724  15.683  24.780  0.00  0.00    +0.000 OA
ATOM     25  H   UNL     1      -5.504  15.336  24.300  0.00  0.00    +0.000 HD
ENDBRANCH  13  24
BRANCH  14  26
ATOM     26  O   UNL     1      -5.005  13.937  22.741  0.00  0.00    +0.000 OA
ATOM     27  H   UNL     1      -4.987  14.060  21.772  0.00  0.00    +0.000 HD
ENDBRANCH  14  26
TORSDOF 3
ENDMDL
MODEL 8
REMARK VINA RESULT:      -6.0     10.667     13.346
REMARK  Name = 
REMARK  6 active torsions:
REMARK  status: ('A' for Active; 'I' for Inactive)
REMARK    1  A    between atoms: C_1  and  C_2
REMARK    2  A    between atoms: C_6  and  O_7
REMARK    3  A    between atoms: C_14  and  O_15
REMARK    4  A    between atoms: C_16  and  O_17
REMARK    5  A    between atoms: C_22  and  C_23
REMARK    6  A    between atoms: C_22  and  C_24
REMARK                            x       y       z     vdW  Elec       q    Type
REMARK                         _______ _______ _______ _____ _____    ______ ____
ROOT
ATOM      1  C   UNL     1      -0.912  15.417  24.653  0.00  0.00    +0.000 C 
ATOM      2  C   UNL     1      -1.533  14.633  23.480  0.00  0.00    +0.000 C 
ATOM      3  O   UNL     1      -2.140  15.792  22.668  0.00  0.00    +0.000 OA
ATOM      4  C   UNL     1      -3.047  15.138  21.880  0.00  0.00    +0.000 A 
ATOM      5  C   UNL     1      -4.354  15.470  21.571  0.00  0.00    +0.000 A 
ATOM      6  C   UNL     1      -5.201  14.423  21.138  0.00  0.00    +0.000 A 
ATOM      7  C   UNL     1      -4.652  13.232  20.708  0.00  0.00    +0.000 A 
ATOM      8  C   UNL     1      -5.330  12.250  19.836  0.00  0.00    +0.000 A 
ATOM      9  O   UNL     1      -6.491  12.018  19.973  0.00  0.00    +0.000 OA
ATOM     10  C   UNL     1      -4.481  11.715  18.774  0.00  0.00    +0.000 A 
ATOM     11  C   UNL     1      -5.122  11.088  17.679  0.00  0.00    +0.000 A 
ATOM     12  C   UNL     1      -4.379  10.746  16.540  0.00  0.00    +0.000 A 
ATOM     13  C   UNL     1      -3.023  11.065  16.512  0.00  0.00    +0.000 A 
ATOM     14  C   UNL     1      -2.386  11.639  17.635  0.00  0.00    +0.000 A 
ATOM     15  C   UNL     1      -3.100  11.958  18.807  0.00  0.00    +0.000 A 
ATOM     16  O   UNL     1      -2.503  12.488  19.956  0.00  0.00    +0.000 OA
ATOM     17  C   UNL     1      -3.338  12.988  20.984  0.00  0.00    +0.000 A 
ATOM     18  C   UNL     1      -2.819  13.806  21.984  0.00  0.00    +0.000 A 
ATOM     19  C   UNL     1      -2.793  13.698  23.577  0.00  0.00    +0.000 C 
ATOM     20  C   UNL     1      -3.414  12.316  23.818  0.00  0.00    +0.000 C 
ATOM     21  C   UNL     1      -3.502  14.432  24.811  0.00  0.00    +0.000 C 
ENDROOT
BRANCH   6  22
ATOM     22  O   UNL     1      -6.550  14.622  21.150  0.00  0.00    +0.000 OA
ATOM     23  H   UNL     1      -6.760  14.989  22.035  0.00  0.00    +0.000 HD
ENDBRANCH   6  22
BRANCH  13  24
ATOM     24  O   UNL     1      -2.292  10.805  15.392  0.00  0.00    +0.000 OA
ATOM     25  H   UNL     1      -1.798  11.614  15.147  0.00  0.00    +0.000 HD
ENDBRANCH  13  24
BRANCH  14  26
ATOM     26  O   UNL     1      -1.046  11.933  17.503  0.00  0.00    +0.000 OA
ATOM     27  H   UNL     1      -0.596  11.069  17.556  0.00  0.00    +0.000 HD
ENDBRANCH  14  26
TORSDOF 3
ENDMDL
MODEL 9
REMARK VINA RESULT:      -5.9     10.833     13.308
REMARK  Name = 
REMARK  6 active torsions:
REMARK  status: ('A' for Active; 'I' for Inactive)
REMARK    1  A    between atoms: C_1  and  C_2
REMARK    2  A    between atoms: C_6  and  O_7
REMARK    3  A    between atoms: C_14  and  O_15
REMARK    4  A    between atoms: C_16  and  O_17
REMARK    5  A    between atoms: C_22  and  C_23
REMARK    6  A    between atoms: C_22  and  C_24
REMARK                            x       y       z     vdW  Elec       q    Type
REMARK                         _______ _______ _______ _____ _____    ______ ____
ROOT
ATOM      1  C   UNL     1      -7.265  16.963  21.633  0.00  0.00    +0.000 C 
ATOM      2  C   UNL     1      -6.096  15.978  21.436  0.00  0.00    +0.000 C 
ATOM      3  O   UNL     1      -6.799  14.649  21.770  0.00  0.00    +0.000 OA
ATOM      4  C   UNL     1      -5.738  13.826  22.031  0.00  0.00    +0.000 A 
ATOM      5  C   UNL     1      -5.556  12.911  23.051  0.00  0.00    +0.000 A 
ATOM      6  C   UNL     1      -4.225  12.547  23.362  0.00  0.00    +0.000 A 
ATOM      7  C   UNL     1      -3.214  12.813  22.461  0.00  0.00    +0.000 A 
ATOM      8  C   UNL     1      -1.906  12.125  22.425  0.00  0.00    +0.000 A 
ATOM      9  O   UNL     1      -1.345  11.837  23.436  0.00  0.00    +0.000 OA
ATOM     10  C   UNL     1      -1.466  11.760  21.081  0.00  0.00    +0.000 A 
ATOM     11  C   UNL     1      -0.452  10.780  20.969  0.00  0.00    +0.000 A 
ATOM     12  C   UNL     1      -0.138  10.241  19.713  0.00  0.00    +0.000 A 
ATOM     13  C   UNL     1      -0.866  10.673  18.606  0.00  0.00    +0.000 A 
ATOM     14  C   UNL     1      -1.836  11.693  18.725  0.00  0.00    +0.000 A 
ATOM     15  C   UNL     1      -2.144  12.279  19.968  0.00  0.00    +0.000 A 
ATOM     16  O   UNL     1      -3.067  13.319  20.125  0.00  0.00    +0.000 OA
ATOM     17  C   UNL     1      -3.473  13.673  21.435  0.00  0.00    +0.000 A 
ATOM     18  C   UNL     1      -4.604  14.458  21.639  0.00  0.00    +0.000 A 
ATOM     19  C   UNL     1      -4.846  15.852  22.381  0.00  0.00    +0.000 C 
ATOM     20  C   UNL     1      -3.419  16.263  22.769  0.00  0.00    +0.000 C 
ATOM     21  C   UNL     1      -5.550  16.353  23.728  0.00  0.00    +0.000 C 
ENDROOT
BRANCH   6  22
ATOM     22  O   UNL     1      -3.975  11.929  24.553  0.00  0.00    +0.000 OA
ATOM     23  H   UNL     1      -4.736  12.144  25.133  0.00  0.00    +0.000 HD
ENDBRANCH   6  22
BRANCH  13  24
ATOM     24  O   UNL     1      -0.629  10.118  17.384  0.00  0.00    +0.000 OA
ATOM     25  H   UNL     1      -1.355  10.372  16.779  0.00  0.00    +0.000 HD
ENDBRANCH  13  24
BRANCH  14  26
ATOM     26  O   UNL     1      -2.515  12.039  17.576  0.00  0.00    +0.000 OA
ATOM     27  H   UNL     1      -2.404  13.006  17.504  0.00  0.00    +0.000 HD
ENDBRANCH  14  26
TORSDOF 3
ENDMDL
