MODEL 1
REMARK VINA RESULT:      -7.5      0.000      0.000
REMARK  Name = 
REMARK  13 active torsions:
REMARK  status: ('A' for Active; 'I' for Inactive)
REMARK    1  A    between atoms: N_5  and  C_6
REMARK    2  A    between atoms: C_8  and  C_9
REMARK    3  A    between atoms: C_9  and  O_10
REMARK    4  A    between atoms: O_10  and  P_11
REMARK    5  A    between atoms: P_11  and  O_13
REMARK    6  A    between atoms: P_11  and  O_14
REMARK    7  A    between atoms: O_14  and  P_15
REMARK    8  A    between atoms: P_15  and  O_17
REMARK    9  A    between atoms: P_15  and  O_18
REMARK   10  A    between atoms: O_18  and  P_19
REMARK   11  A    between atoms: P_19  and  O_21
REMARK   12  A    between atoms: P_19  and  O_22
REMARK   13  A    between atoms: C_26  and  O_27
REMARK                            x       y       z     vdW  Elec       q    Type
REMARK                         _______ _______ _______ _____ _____    ______ ____
ROOT
ATOM      1  C   UNL     1       2.338   5.832  19.897  0.00  0.00    +0.000 C 
ATOM      2  O   UNL     1       3.750   5.535  20.157  0.00  0.00    +0.000 OA
ATOM      3  C   UNL     1       3.987   4.279  19.440  0.00  0.00    +0.000 C 
ATOM      4  C   UNL     1       3.143   3.184  20.115  0.00  0.00    +0.000 C 
ATOM      5  O   UNL     1       1.789   3.475  19.661  0.00  0.00    +0.000 OA
ATOM      6  C   UNL     1       1.929   4.722  18.902  0.00  0.00    +0.000 C 
ATOM      7  C   UNL     1       3.224   4.482  18.140  0.00  0.00    +0.000 C 
ENDROOT
BRANCH   1  12
ATOM      8  N   UNL     1       1.213  10.943  18.160  0.00  0.00    +0.000 N 
ATOM      9  C   UNL     1       1.518   9.676  18.572  0.00  0.00    +0.000 A 
ATOM     10  C   UNL     1       2.199   8.759  17.640  0.00  0.00    +0.000 A 
ATOM     11  C   UNL     1       2.496   7.551  18.120  0.00  0.00    +0.000 A 
ATOM     12  N   UNL     1       2.144   7.191  19.400  0.00  0.00    +0.000 N 
ATOM     13  C   UNL     1       1.454   8.070  20.238  0.00  0.00    +0.000 A 
ATOM     14  O   UNL     1       1.076   7.714  21.352  0.00  0.00    +0.000 OA
ATOM     15  N   UNL     1       1.195   9.341  19.785  0.00  0.00    +0.000 NA
ATOM     16  H   UNL     1       1.751  11.350  17.408  0.00  0.00    +0.000 HD
ATOM     17  H   UNL     1       1.017  11.579  18.926  0.00  0.00    +0.000 HD
ENDBRANCH   1  12
BRANCH   7  18
ATOM     18  O   UNL     1       3.188   3.337  17.300  0.00  0.00    +0.000 OA
ATOM     19  H   UNL     1       3.642   3.565  16.464  0.00  0.00    +0.000 HD
ENDBRANCH   7  18
BRANCH   3  20
ATOM     20  C   UNL     1       5.465   3.938  19.350  0.00  0.00    +0.000 C 
BRANCH  20  21
ATOM     21  O   UNL     1       6.251   5.125  19.243  0.00  0.00    +0.000 OA
BRANCH  21  22
ATOM     22  P   UNL     1       6.805   5.451  17.637  0.00  0.00    +0.000 P 
ATOM     23  O   UNL     1       7.685   6.577  18.182  0.00  0.00    +0.000 OA
BRANCH  22  24
ATOM     24  O   UNL     1       7.671   4.065  17.790  0.00  0.00    +0.000 OA
ATOM     25  H   UNL     1       7.240   3.501  18.462  0.00  0.00    +0.000 HD
ENDBRANCH  22  24
BRANCH  22  26
ATOM     26  O   UNL     1       7.360   5.778  16.030  0.00  0.00    +0.000 OA
BRANCH  26  27
ATOM     27  P   UNL     1       6.839   4.512  14.972  0.00  0.00    +0.000 P 
ATOM     28  O   UNL     1       5.449   4.576  15.616  0.00  0.00    +0.000 OA
BRANCH  27  29
ATOM     29  O   UNL     1       6.842   5.575  13.730  0.00  0.00    +0.000 OA
ATOM     30  H   UNL     1       7.535   5.318  13.079  0.00  0.00    +0.000 HD
ENDBRANCH  27  29
BRANCH  27  31
ATOM     31  O   UNL     1       6.319   3.247  13.914  0.00  0.00    +0.000 OA
BRANCH  31  32
ATOM     32  P   UNL     1       6.228   3.410  12.340  0.00  0.00    +0.000 P 
ATOM     33  O   UNL     1       7.264   4.227  11.645  0.00  0.00    +0.000 OA
BRANCH  32  34
ATOM     34  O   UNL     1       6.186   1.891  11.834  0.00  0.00    +0.000 OA
ATOM     35  H   UNL     1       6.905   1.708  11.201  0.00  0.00    +0.000 HD
ENDBRANCH  32  34
BRANCH  32  36
ATOM     36  O   UNL     1       4.726   3.871  12.059  0.00  0.00    +0.000 OA
ATOM     37  H   UNL     1       4.706   4.696  11.545  0.00  0.00    +0.000 HD
ENDBRANCH  32  36
ENDBRANCH  31  32
ENDBRANCH  27  31
ENDBRANCH  26  27
ENDBRANCH  22  26
ENDBRANCH  21  22
ENDBRANCH  20  21
ENDBRANCH   3  20
TORSDOF 13
ENDMDL
MODEL 2
REMARK VINA RESULT:      -7.3      1.913      3.688
REMARK  Name = 
REMARK  13 active torsions:
REMARK  status: ('A' for Active; 'I' for Inactive)
REMARK    1  A    between atoms: N_5  and  C_6
REMARK    2  A    between atoms: C_8  and  C_9
REMARK    3  A    between atoms: C_9  and  O_10
REMARK    4  A    between atoms: O_10  and  P_11
REMARK    5  A    between atoms: P_11  and  O_13
REMARK    6  A    between atoms: P_11  and  O_14
REMARK    7  A    between atoms: O_14  and  P_15
REMARK    8  A    between atoms: P_15  and  O_17
REMARK    9  A    between atoms: P_15  and  O_18
REMARK   10  A    between atoms: O_18  and  P_19
REMARK   11  A    between atoms: P_19  and  O_21
REMARK   12  A    between atoms: P_19  and  O_22
REMARK   13  A    between atoms: C_26  and  O_27
REMARK                            x       y       z     vdW  Elec       q    Type
REMARK                         _______ _______ _______ _____ _____    ______ ____
ROOT
ATOM      1  C   UNL     1       2.679   6.021  20.087  0.00  0.00    +0.000 C 
ATOM      2  O   UNL     1       3.209   5.203  18.991  0.00  0.00    +0.000 OA
ATOM      3  C   UNL     1       2.581   3.894  19.189  0.00  0.00    +0.000 C 
ATOM      4  C   UNL     1       3.110   3.311  20.509  0.00  0.00    +0.000 C 
ATOM      5  O   UNL     1       2.402   4.079  21.525  0.00  0.00    +0.000 OA
ATOM      6  C   UNL     1       1.652   5.078  20.756  0.00  0.00    +0.000 C 
ATOM      7  C   UNL     1       1.155   4.257  19.575  0.00  0.00    +0.000 C 
ENDROOT
BRANCH   1  12
ATOM      8  N   UNL     1       0.950  10.879  18.133  0.00  0.00    +0.000 N 
ATOM      9  C   UNL     1       1.352   9.673  18.636  0.00  0.00    +0.000 A 
ATOM     10  C   UNL     1       1.000   9.316  20.022  0.00  0.00    +0.000 A 
ATOM     11  C   UNL     1       1.396   8.111  20.435  0.00  0.00    +0.000 A 
ATOM     12  N   UNL     1       2.121   7.283  19.611  0.00  0.00    +0.000 N 
ATOM     13  C   UNL     1       2.480   7.676  18.319  0.00  0.00    +0.000 A 
ATOM     14  O   UNL     1       3.193   6.963  17.617  0.00  0.00    +0.000 OA
ATOM     15  N   UNL     1       2.028   8.887  17.852  0.00  0.00    +0.000 NA
ATOM     16  H   UNL     1       0.147  11.331  18.547  0.00  0.00    +0.000 HD
ATOM     17  H   UNL     1       0.979  10.922  17.120  0.00  0.00    +0.000 HD
ENDBRANCH   1  12
BRANCH   7  18
ATOM     18  O   UNL     1       0.352   3.147  19.950  0.00  0.00    +0.000 OA
ATOM     19  H   UNL     1       0.336   2.522  19.198  0.00  0.00    +0.000 HD
ENDBRANCH   7  18
BRANCH   3  20
ATOM     20  C   UNL     1       2.781   2.975  17.995  0.00  0.00    +0.000 C 
BRANCH  20  21
ATOM     21  O   UNL     1       4.132   2.521  17.928  0.00  0.00    +0.000 OA
BRANCH  21  22
ATOM     22  P   UNL     1       5.021   3.168  16.593  0.00  0.00    +0.000 P 
ATOM     23  O   UNL     1       3.792   3.981  16.185  0.00  0.00    +0.000 OA
BRANCH  22  24
ATOM     24  O   UNL     1       5.818   4.059  17.719  0.00  0.00    +0.000 OA
ATOM     25  H   UNL     1       5.647   3.672  18.600  0.00  0.00    +0.000 HD
ENDBRANCH  22  24
BRANCH  22  26
ATOM     26  O   UNL     1       5.909   3.817  15.257  0.00  0.00    +0.000 OA
BRANCH  26  27
ATOM     27  P   UNL     1       6.771   5.227  15.768  0.00  0.00    +0.000 P 
ATOM     28  O   UNL     1       7.609   5.153  14.485  0.00  0.00    +0.000 OA
BRANCH  27  29
ATOM     29  O   UNL     1       5.454   6.133  15.429  0.00  0.00    +0.000 OA
ATOM     30  H   UNL     1       5.332   6.812  16.133  0.00  0.00    +0.000 HD
ENDBRANCH  27  29
BRANCH  27  31
ATOM     31  O   UNL     1       7.633   6.637  16.279  0.00  0.00    +0.000 OA
BRANCH  31  32
ATOM     32  P   UNL     1       7.492   7.267  17.727  0.00  0.00    +0.000 P 
ATOM     33  O   UNL     1       8.195   8.550  18.020  0.00  0.00    +0.000 OA
BRANCH  32  34
ATOM     34  O   UNL     1       5.904   7.368  17.910  0.00  0.00    +0.000 OA
ATOM     35  H   UNL     1       5.464   7.599  17.072  0.00  0.00    +0.000 HD
ENDBRANCH  32  34
BRANCH  32  36
ATOM     36  O   UNL     1       7.844   6.077  18.731  0.00  0.00    +0.000 OA
ATOM     37  H   UNL     1       7.274   5.306  18.570  0.00  0.00    +0.000 HD
ENDBRANCH  32  36
ENDBRANCH  31  32
ENDBRANCH  27  31
ENDBRANCH  26  27
ENDBRANCH  22  26
ENDBRANCH  21  22
ENDBRANCH  20  21
ENDBRANCH   3  20
TORSDOF 13
ENDMDL
MODEL 3
REMARK VINA RESULT:      -7.3      1.744      3.523
REMARK  Name = 
REMARK  13 active torsions:
REMARK  status: ('A' for Active; 'I' for Inactive)
REMARK    1  A    between atoms: N_5  and  C_6
REMARK    2  A    between atoms: C_8  and  C_9
REMARK    3  A    between atoms: C_9  and  O_10
REMARK    4  A    between atoms: O_10  and  P_11
REMARK    5  A    between atoms: P_11  and  O_13
REMARK    6  A    between atoms: P_11  and  O_14
REMARK    7  A    between atoms: O_14  and  P_15
REMARK    8  A    between atoms: P_15  and  O_17
REMARK    9  A    between atoms: P_15  and  O_18
REMARK   10  A    between atoms: O_18  and  P_19
REMARK   11  A    between atoms: P_19  and  O_21
REMARK   12  A    between atoms: P_19  and  O_22
REMARK   13  A    between atoms: C_26  and  O_27
REMARK                            x       y       z     vdW  Elec       q    Type
REMARK                         _______ _______ _______ _____ _____    ______ ____
ROOT
ATOM      1  C   UNL     1       2.808   5.945  19.996  0.00  0.00    +0.000 C 
ATOM      2  O   UNL     1       3.290   5.066  18.926  0.00  0.00    +0.000 OA
ATOM      3  C   UNL     1       2.563   3.812  19.141  0.00  0.00    +0.000 C 
ATOM      4  C   UNL     1       3.029   3.220  20.481  0.00  0.00    +0.000 C 
ATOM      5  O   UNL     1       2.366   4.061  21.470  0.00  0.00    +0.000 OA
ATOM      6  C   UNL     1       1.704   5.096  20.669  0.00  0.00    +0.000 C 
ATOM      7  C   UNL     1       1.164   4.288  19.498  0.00  0.00    +0.000 C 
ENDROOT
BRANCH   1  12
ATOM      8  N   UNL     1       0.715  10.738  18.249  0.00  0.00    +0.000 N 
ATOM      9  C   UNL     1       1.258   9.553  18.661  0.00  0.00    +0.000 A 
ATOM     10  C   UNL     1       1.989   8.719  17.690  0.00  0.00    +0.000 A 
ATOM     11  C   UNL     1       2.521   7.594  18.169  0.00  0.00    +0.000 A 
ATOM     12  N   UNL     1       2.352   7.234  19.486  0.00  0.00    +0.000 N 
ATOM     13  C   UNL     1       1.609   8.026  20.366  0.00  0.00    +0.000 A 
ATOM     14  O   UNL     1       1.398   7.660  21.519  0.00  0.00    +0.000 OA
ATOM     15  N   UNL     1       1.106   9.221  19.908  0.00  0.00    +0.000 NA
ATOM     16  H   UNL     1       1.109  11.194  17.437  0.00  0.00    +0.000 HD
ATOM     17  H   UNL     1       0.490  11.365  19.014  0.00  0.00    +0.000 HD
ENDBRANCH   1  12
BRANCH   7  18
ATOM     18  O   UNL     1       0.274   3.250  19.883  0.00  0.00    +0.000 OA
ATOM     19  H   UNL     1       0.740   2.680  20.526  0.00  0.00    +0.000 HD
ENDBRANCH   7  18
BRANCH   3  20
ATOM     20  C   UNL     1       2.710   2.855  17.970  0.00  0.00    +0.000 C 
BRANCH  20  21
ATOM     21  O   UNL     1       4.061   2.411  17.848  0.00  0.00    +0.000 OA
BRANCH  21  22
ATOM     22  P   UNL     1       4.927   3.159  16.551  0.00  0.00    +0.000 P 
ATOM     23  O   UNL     1       3.688   3.990  16.219  0.00  0.00    +0.000 OA
BRANCH  22  24
ATOM     24  O   UNL     1       5.734   3.973  17.728  0.00  0.00    +0.000 OA
ATOM     25  H   UNL     1       5.401   4.892  17.756  0.00  0.00    +0.000 HD
ENDBRANCH  22  24
BRANCH  22  26
ATOM     26  O   UNL     1       5.793   3.909  15.254  0.00  0.00    +0.000 OA
BRANCH  26  27
ATOM     27  P   UNL     1       6.817   5.152  15.887  0.00  0.00    +0.000 P 
ATOM     28  O   UNL     1       7.598   5.151  14.567  0.00  0.00    +0.000 OA
BRANCH  27  29
ATOM     29  O   UNL     1       5.592   6.221  15.717  0.00  0.00    +0.000 OA
ATOM     30  H   UNL     1       5.132   6.062  14.860  0.00  0.00    +0.000 HD
ENDBRANCH  27  29
BRANCH  27  31
ATOM     31  O   UNL     1       7.839   6.396  16.519  0.00  0.00    +0.000 OA
BRANCH  31  32
ATOM     32  P   UNL     1       7.393   7.388  17.672  0.00  0.00    +0.000 P 
ATOM     33  O   UNL     1       7.060   8.798  17.313  0.00  0.00    +0.000 OA
BRANCH  32  34
ATOM     34  O   UNL     1       6.168   6.609  18.349  0.00  0.00    +0.000 OA
ATOM     35  H   UNL     1       6.150   5.673  18.078  0.00  0.00    +0.000 HD
ENDBRANCH  32  34
BRANCH  32  36
ATOM     36  O   UNL     1       8.513   7.241  18.799  0.00  0.00    +0.000 OA
ATOM     37  H   UNL     1       8.341   6.467  19.362  0.00  0.00    +0.000 HD
ENDBRANCH  32  36
ENDBRANCH  31  32
ENDBRANCH  27  31
ENDBRANCH  26  27
ENDBRANCH  22  26
ENDBRANCH  21  22
ENDBRANCH  20  21
ENDBRANCH   3  20
TORSDOF 13
ENDMDL
MODEL 4
REMARK VINA RESULT:      -7.1      1.652      3.454
REMARK  Name = 
REMARK  13 active torsions:
REMARK  status: ('A' for Active; 'I' for Inactive)
REMARK    1  A    between atoms: N_5  and  C_6
REMARK    2  A    between atoms: C_8  and  C_9
REMARK    3  A    between atoms: C_9  and  O_10
REMARK    4  A    between atoms: O_10  and  P_11
REMARK    5  A    between atoms: P_11  and  O_13
REMARK    6  A    between atoms: P_11  and  O_14
REMARK    7  A    between atoms: O_14  and  P_15
REMARK    8  A    between atoms: P_15  and  O_17
REMARK    9  A    between atoms: P_15  and  O_18
REMARK   10  A    between atoms: O_18  and  P_19
REMARK   11  A    between atoms: P_19  and  O_21
REMARK   12  A    between atoms: P_19  and  O_22
REMARK   13  A    between atoms: C_26  and  O_27
REMARK                            x       y       z     vdW  Elec       q    Type
REMARK                         _______ _______ _______ _____ _____    ______ ____
ROOT
ATOM      1  C   UNL     1       2.439   5.897  20.439  0.00  0.00    +0.000 C 
ATOM      2  O   UNL     1       3.642   5.203  19.970  0.00  0.00    +0.000 OA
ATOM      3  C   UNL     1       3.178   3.843  19.681  0.00  0.00    +0.000 C 
ATOM      4  C   UNL     1       2.750   3.197  21.009  0.00  0.00    +0.000 C 
ATOM      5  O   UNL     1       1.473   3.837  21.299  0.00  0.00    +0.000 OA
ATOM      6  C   UNL     1       1.329   4.839  20.238  0.00  0.00    +0.000 C 
ATOM      7  C   UNL     1       1.829   4.079  19.019  0.00  0.00    +0.000 C 
ENDROOT
BRANCH   1  12
ATOM      8  N   UNL     1       1.203  10.636  17.907  0.00  0.00    +0.000 N 
ATOM      9  C   UNL     1       1.536   9.459  18.516  0.00  0.00    +0.000 A 
ATOM     10  C   UNL     1       2.195   8.401  17.728  0.00  0.00    +0.000 A 
ATOM     11  C   UNL     1       2.521   7.293  18.394  0.00  0.00    +0.000 A 
ATOM     12  N   UNL     1       2.215   7.151  19.727  0.00  0.00    +0.000 N 
ATOM     13  C   UNL     1       1.543   8.155  20.429  0.00  0.00    +0.000 A 
ATOM     14  O   UNL     1       1.205   7.990  21.599  0.00  0.00    +0.000 OA
ATOM     15  N   UNL     1       1.255   9.331  19.778  0.00  0.00    +0.000 NA
ATOM     16  H   UNL     1       1.712  10.914  17.079  0.00  0.00    +0.000 HD
ATOM     17  H   UNL     1       1.025  11.391  18.561  0.00  0.00    +0.000 HD
ENDBRANCH   1  12
BRANCH   7  18
ATOM     18  O   UNL     1       1.097   2.892  18.746  0.00  0.00    +0.000 OA
ATOM     19  H   UNL     1       1.700   2.133  18.874  0.00  0.00    +0.000 HD
ENDBRANCH   7  18
BRANCH   3  20
ATOM     20  C   UNL     1       4.212   3.033  18.917  0.00  0.00    +0.000 C 
BRANCH  20  21
ATOM     21  O   UNL     1       3.831   2.888  17.549  0.00  0.00    +0.000 OA
BRANCH  21  22
ATOM     22  P   UNL     1       5.071   3.332  16.428  0.00  0.00    +0.000 P 
ATOM     23  O   UNL     1       3.997   3.734  15.417  0.00  0.00    +0.000 OA
BRANCH  22  24
ATOM     24  O   UNL     1       5.308   4.633  17.401  0.00  0.00    +0.000 OA
ATOM     25  H   UNL     1       4.907   5.418  16.976  0.00  0.00    +0.000 HD
ENDBRANCH  22  24
BRANCH  22  26
ATOM     26  O   UNL     1       6.312   3.777  15.306  0.00  0.00    +0.000 OA
BRANCH  26  27
ATOM     27  P   UNL     1       7.101   5.213  15.860  0.00  0.00    +0.000 P 
ATOM     28  O   UNL     1       8.003   4.348  16.749  0.00  0.00    +0.000 OA
BRANCH  27  29
ATOM     29  O   UNL     1       7.842   5.343  14.409  0.00  0.00    +0.000 OA
ATOM     30  H   UNL     1       8.697   5.820  14.517  0.00  0.00    +0.000 HD
ENDBRANCH  27  29
BRANCH  27  31
ATOM     31  O   UNL     1       7.891   6.649  16.414  0.00  0.00    +0.000 OA
BRANCH  31  32
ATOM     32  P   UNL     1       7.358   7.525  17.623  0.00  0.00    +0.000 P 
ATOM     33  O   UNL     1       5.902   7.493  17.943  0.00  0.00    +0.000 OA
BRANCH  32  34
ATOM     34  O   UNL     1       8.277   7.036  18.840  0.00  0.00    +0.000 OA
ATOM     35  H   UNL     1       7.806   7.105  19.691  0.00  0.00    +0.000 HD
ENDBRANCH  32  34
BRANCH  32  36
ATOM     36  O   UNL     1       7.944   8.987  17.362  0.00  0.00    +0.000 OA
ATOM     37  H   UNL     1       8.559   8.986  16.608  0.00  0.00    +0.000 HD
ENDBRANCH  32  36
ENDBRANCH  31  32
ENDBRANCH  27  31
ENDBRANCH  26  27
ENDBRANCH  22  26
ENDBRANCH  21  22
ENDBRANCH  20  21
ENDBRANCH   3  20
TORSDOF 13
ENDMDL
MODEL 5
REMARK VINA RESULT:      -7.1      1.782      3.503
REMARK  Name = 
REMARK  13 active torsions:
REMARK  status: ('A' for Active; 'I' for Inactive)
REMARK    1  A    between atoms: N_5  and  C_6
REMARK    2  A    between atoms: C_8  and  C_9
REMARK    3  A    between atoms: C_9  and  O_10
REMARK    4  A    between atoms: O_10  and  P_11
REMARK    5  A    between atoms: P_11  and  O_13
REMARK    6  A    between atoms: P_11  and  O_14
REMARK    7  A    between atoms: O_14  and  P_15
REMARK    8  A    between atoms: P_15  and  O_17
REMARK    9  A    between atoms: P_15  and  O_18
REMARK   10  A    between atoms: O_18  and  P_19
REMARK   11  A    between atoms: P_19  and  O_21
REMARK   12  A    between atoms: P_19  and  O_22
REMARK   13  A    between atoms: C_26  and  O_27
REMARK                            x       y       z     vdW  Elec       q    Type
REMARK                         _______ _______ _______ _____ _____    ______ ____
ROOT
ATOM      1  C   UNL     1       2.557   5.578  20.231  0.00  0.00    +0.000 C 
ATOM      2  O   UNL     1       3.310   4.688  19.341  0.00  0.00    +0.000 OA
ATOM      3  C   UNL     1       2.531   3.446  19.339  0.00  0.00    +0.000 C 
ATOM      4  C   UNL     1       2.587   2.851  20.756  0.00  0.00    +0.000 C 
ATOM      5  O   UNL     1       1.683   3.706  21.516  0.00  0.00    +0.000 OA
ATOM      6  C   UNL     1       1.294   4.749  20.561  0.00  0.00    +0.000 C 
ATOM      7  C   UNL     1       1.096   3.946  19.284  0.00  0.00    +0.000 C 
ENDROOT
BRANCH   1  12
ATOM      8  N   UNL     1       1.151  10.450  18.066  0.00  0.00    +0.000 N 
ATOM      9  C   UNL     1       1.525   9.241  18.583  0.00  0.00    +0.000 A 
ATOM     10  C   UNL     1       2.181   8.254  17.706  0.00  0.00    +0.000 A 
ATOM     11  C   UNL     1       2.549   7.111  18.285  0.00  0.00    +0.000 A 
ATOM     12  N   UNL     1       2.287   6.872  19.613  0.00  0.00    +0.000 N 
ATOM     13  C   UNL     1       1.617   7.811  20.402  0.00  0.00    +0.000 A 
ATOM     14  O   UNL     1       1.317   7.560  21.567  0.00  0.00    +0.000 OA
ATOM     15  N   UNL     1       1.286   9.022  19.841  0.00  0.00    +0.000 NA
ATOM     16  H   UNL     1       1.629  10.794  17.245  0.00  0.00    +0.000 HD
ATOM     17  H   UNL     1       0.978  11.154  18.776  0.00  0.00    +0.000 HD
ENDBRANCH   1  12
BRANCH   7  18
ATOM     18  O   UNL     1       0.117   2.923  19.398  0.00  0.00    +0.000 OA
ATOM     19  H   UNL     1       0.350   2.213  18.768  0.00  0.00    +0.000 HD
ENDBRANCH   7  18
BRANCH   3  20
ATOM     20  C   UNL     1       2.990   2.482  18.258  0.00  0.00    +0.000 C 
BRANCH  20  21
ATOM     21  O   UNL     1       4.415   2.401  18.225  0.00  0.00    +0.000 OA
BRANCH  21  22
ATOM     22  P   UNL     1       5.121   3.102  16.810  0.00  0.00    +0.000 P 
ATOM     23  O   UNL     1       3.788   3.781  16.495  0.00  0.00    +0.000 OA
BRANCH  22  24
ATOM     24  O   UNL     1       5.916   4.092  17.852  0.00  0.00    +0.000 OA
ATOM     25  H   UNL     1       6.782   3.690  18.064  0.00  0.00    +0.000 HD
ENDBRANCH  22  24
BRANCH  22  26
ATOM     26  O   UNL     1       5.828   3.804  15.395  0.00  0.00    +0.000 OA
BRANCH  26  27
ATOM     27  P   UNL     1       6.721   5.218  15.838  0.00  0.00    +0.000 P 
ATOM     28  O   UNL     1       7.499   5.111  14.520  0.00  0.00    +0.000 OA
BRANCH  27  29
ATOM     29  O   UNL     1       5.396   6.126  15.539  0.00  0.00    +0.000 OA
ATOM     30  H   UNL     1       5.439   6.480  14.621  0.00  0.00    +0.000 HD
ENDBRANCH  27  29
BRANCH  27  31
ATOM     31  O   UNL     1       7.614   6.631  16.280  0.00  0.00    +0.000 OA
BRANCH  31  32
ATOM     32  P   UNL     1       7.491   7.332  17.697  0.00  0.00    +0.000 P 
ATOM     33  O   UNL     1       7.960   6.591  18.904  0.00  0.00    +0.000 OA
BRANCH  32  34
ATOM     34  O   UNL     1       8.266   8.714  17.472  0.00  0.00    +0.000 OA
ATOM     35  H   UNL     1       7.849   9.441  17.971  0.00  0.00    +0.000 HD
ENDBRANCH  32  34
BRANCH  32  36
ATOM     36  O   UNL     1       5.978   7.835  17.778  0.00  0.00    +0.000 OA
ATOM     37  H   UNL     1       5.811   8.539  17.128  0.00  0.00    +0.000 HD
ENDBRANCH  32  36
ENDBRANCH  31  32
ENDBRANCH  27  31
ENDBRANCH  26  27
ENDBRANCH  22  26
ENDBRANCH  21  22
ENDBRANCH  20  21
ENDBRANCH   3  20
TORSDOF 13
ENDMDL
MODEL 6
REMARK VINA RESULT:      -7.1      1.303      1.777
REMARK  Name = 
REMARK  13 active torsions:
REMARK  status: ('A' for Active; 'I' for Inactive)
REMARK    1  A    between atoms: N_5  and  C_6
REMARK    2  A    between atoms: C_8  and  C_9
REMARK    3  A    between atoms: C_9  and  O_10
REMARK    4  A    between atoms: O_10  and  P_11
REMARK    5  A    between atoms: P_11  and  O_13
REMARK    6  A    between atoms: P_11  and  O_14
REMARK    7  A    between atoms: O_14  and  P_15
REMARK    8  A    between atoms: P_15  and  O_17
REMARK    9  A    between atoms: P_15  and  O_18
REMARK   10  A    between atoms: O_18  and  P_19
REMARK   11  A    between atoms: P_19  and  O_21
REMARK   12  A    between atoms: P_19  and  O_22
REMARK   13  A    between atoms: C_26  and  O_27
REMARK                            x       y       z     vdW  Elec       q    Type
REMARK                         _______ _______ _______ _____ _____    ______ ____
ROOT
ATOM      1  C   UNL     1       2.086   5.508  20.411  0.00  0.00    +0.000 C 
ATOM      2  O   UNL     1       3.363   4.803  20.262  0.00  0.00    +0.000 OA
ATOM      3  C   UNL     1       2.978   3.459  19.822  0.00  0.00    +0.000 C 
ATOM      4  C   UNL     1       2.202   2.791  20.969  0.00  0.00    +0.000 C 
ATOM      5  O   UNL     1       0.901   3.447  20.924  0.00  0.00    +0.000 OA
ATOM      6  C   UNL     1       1.059   4.476  19.891  0.00  0.00    +0.000 C 
ATOM      7  C   UNL     1       1.859   3.735  18.829  0.00  0.00    +0.000 C 
ENDROOT
BRANCH   1  12
ATOM      8  N   UNL     1       1.651  10.374  17.855  0.00  0.00    +0.000 N 
ATOM      9  C   UNL     1       1.785   9.162  18.471  0.00  0.00    +0.000 A 
ATOM     10  C   UNL     1       2.354   8.029  17.718  0.00  0.00    +0.000 A 
ATOM     11  C   UNL     1       2.487   6.886  18.392  0.00  0.00    +0.000 A 
ATOM     12  N   UNL     1       2.076   6.783  19.700  0.00  0.00    +0.000 N 
ATOM     13  C   UNL     1       1.494   7.864  20.367  0.00  0.00    +0.000 A 
ATOM     14  O   UNL     1       1.059   7.742  21.509  0.00  0.00    +0.000 OA
ATOM     15  N   UNL     1       1.406   9.069  19.711  0.00  0.00    +0.000 NA
ATOM     16  H   UNL     1       2.247  10.585  17.066  0.00  0.00    +0.000 HD
ATOM     17  H   UNL     1       1.529  11.145  18.505  0.00  0.00    +0.000 HD
ENDBRANCH   1  12
BRANCH   7  18
ATOM     18  O   UNL     1       1.213   2.569  18.338  0.00  0.00    +0.000 OA
ATOM     19  H   UNL     1       0.940   2.032  19.108  0.00  0.00    +0.000 HD
ENDBRANCH   7  18
BRANCH   3  20
ATOM     20  C   UNL     1       4.169   2.648  19.341  0.00  0.00    +0.000 C 
BRANCH  20  21
ATOM     21  O   UNL     1       5.393   3.305  19.669  0.00  0.00    +0.000 OA
BRANCH  21  22
ATOM     22  P   UNL     1       5.639   4.790  18.817  0.00  0.00    +0.000 P 
ATOM     23  O   UNL     1       7.129   4.720  19.147  0.00  0.00    +0.000 OA
BRANCH  22  24
ATOM     24  O   UNL     1       5.418   3.899  17.456  0.00  0.00    +0.000 OA
ATOM     25  H   UNL     1       6.056   4.200  16.778  0.00  0.00    +0.000 HD
ENDBRANCH  22  24
BRANCH  22  26
ATOM     26  O   UNL     1       5.885   6.276  17.964  0.00  0.00    +0.000 OA
BRANCH  26  27
ATOM     27  P   UNL     1       6.024   5.951  16.270  0.00  0.00    +0.000 P 
ATOM     28  O   UNL     1       5.565   7.386  15.980  0.00  0.00    +0.000 OA
BRANCH  27  29
ATOM     29  O   UNL     1       7.652   5.990  16.416  0.00  0.00    +0.000 OA
ATOM     30  H   UNL     1       8.055   5.358  15.777  0.00  0.00    +0.000 HD
ENDBRANCH  27  29
BRANCH  27  31
ATOM     31  O   UNL     1       6.165   5.627  14.577  0.00  0.00    +0.000 OA
BRANCH  31  32
ATOM     32  P   UNL     1       6.178   4.163  13.968  0.00  0.00    +0.000 P 
ATOM     33  O   UNL     1       6.974   3.910  12.733  0.00  0.00    +0.000 OA
BRANCH  32  34
ATOM     34  O   UNL     1       6.652   3.273  15.212  0.00  0.00    +0.000 OA
ATOM     35  H   UNL     1       7.604   3.071  15.161  0.00  0.00    +0.000 HD
ENDBRANCH  32  34
BRANCH  32  36
ATOM     36  O   UNL     1       4.640   3.749  13.859  0.00  0.00    +0.000 OA
ATOM     37  H   UNL     1       4.065   4.533  13.890  0.00  0.00    +0.000 HD
ENDBRANCH  32  36
ENDBRANCH  31  32
ENDBRANCH  27  31
ENDBRANCH  26  27
ENDBRANCH  22  26
ENDBRANCH  21  22
ENDBRANCH  20  21
ENDBRANCH   3  20
TORSDOF 13
ENDMDL
MODEL 7
REMARK VINA RESULT:      -7.0      1.066      1.380
REMARK  Name = 
REMARK  13 active torsions:
REMARK  status: ('A' for Active; 'I' for Inactive)
REMARK    1  A    between atoms: N_5  and  C_6
REMARK    2  A    between atoms: C_8  and  C_9
REMARK    3  A    between atoms: C_9  and  O_10
REMARK    4  A    between atoms: O_10  and  P_11
REMARK    5  A    between atoms: P_11  and  O_13
REMARK    6  A    between atoms: P_11  and  O_14
REMARK    7  A    between atoms: O_14  and  P_15
REMARK    8  A    between atoms: P_15  and  O_17
REMARK    9  A    between atoms: P_15  and  O_18
REMARK   10  A    between atoms: O_18  and  P_19
REMARK   11  A    between atoms: P_19  and  O_21
REMARK   12  A    between atoms: P_19  and  O_22
REMARK   13  A    between atoms: C_26  and  O_27
REMARK                            x       y       z     vdW  Elec       q    Type
REMARK                         _______ _______ _______ _____ _____    ______ ____
ROOT
ATOM      1  C   UNL     1       2.727   6.085  19.673  0.00  0.00    +0.000 C 
ATOM      2  O   UNL     1       3.894   5.617  18.918  0.00  0.00    +0.000 OA
ATOM      3  C   UNL     1       3.489   4.301  18.418  0.00  0.00    +0.000 C 
ATOM      4  C   UNL     1       3.309   3.370  19.629  0.00  0.00    +0.000 C 
ATOM      5  O   UNL     1       2.046   3.812  20.208  0.00  0.00    +0.000 OA
ATOM      6  C   UNL     1       1.677   4.982  19.404  0.00  0.00    +0.000 C 
ATOM      7  C   UNL     1       2.044   4.526  18.000  0.00  0.00    +0.000 C 
ENDROOT
BRANCH   1  12
ATOM      8  N   UNL     1       0.783  11.062  18.314  0.00  0.00    +0.000 N 
ATOM      9  C   UNL     1       1.290   9.833  18.631  0.00  0.00    +0.000 A 
ATOM     10  C   UNL     1       2.031   9.073  17.608  0.00  0.00    +0.000 A 
ATOM     11  C   UNL     1       2.526   7.898  17.997  0.00  0.00    +0.000 A 
ATOM     12  N   UNL     1       2.312   7.425  19.270  0.00  0.00    +0.000 N 
ATOM     13  C   UNL     1       1.561   8.151  20.199  0.00  0.00    +0.000 A 
ATOM     14  O   UNL     1       1.310   7.687  21.308  0.00  0.00    +0.000 OA
ATOM     15  N   UNL     1       1.096   9.393  19.839  0.00  0.00    +0.000 NA
ATOM     16  H   UNL     1       1.209  11.581  17.558  0.00  0.00    +0.000 HD
ATOM     17  H   UNL     1       0.550  11.623  19.127  0.00  0.00    +0.000 HD
ENDBRANCH   1  12
BRANCH   7  18
ATOM     18  O   UNL     1       1.366   3.348  17.586  0.00  0.00    +0.000 OA
ATOM     19  H   UNL     1       0.511   3.617  17.195  0.00  0.00    +0.000 HD
ENDBRANCH   7  18
BRANCH   3  20
ATOM     20  C   UNL     1       4.454   3.760  17.375  0.00  0.00    +0.000 C 
BRANCH  20  21
ATOM     21  O   UNL     1       5.805   4.021  17.755  0.00  0.00    +0.000 OA
BRANCH  21  22
ATOM     22  P   UNL     1       6.756   4.740  16.500  0.00  0.00    +0.000 P 
ATOM     23  O   UNL     1       8.009   4.542  17.353  0.00  0.00    +0.000 OA
BRANCH  22  24
ATOM     24  O   UNL     1       6.516   3.334  15.687  0.00  0.00    +0.000 OA
ATOM     25  H   UNL     1       7.368   3.048  15.301  0.00  0.00    +0.000 HD
ENDBRANCH  22  24
BRANCH  22  26
ATOM     26  O   UNL     1       7.707   5.459  15.246  0.00  0.00    +0.000 OA
BRANCH  26  27
ATOM     27  P   UNL     1       7.318   4.717  13.732  0.00  0.00    +0.000 P 
ATOM     28  O   UNL     1       5.883   5.242  13.869  0.00  0.00    +0.000 OA
BRANCH  27  29
ATOM     29  O   UNL     1       8.180   5.875  12.965  0.00  0.00    +0.000 OA
ATOM     30  H   UNL     1       8.594   6.472  13.630  0.00  0.00    +0.000 HD
ENDBRANCH  27  29
BRANCH  27  31
ATOM     31  O   UNL     1       6.929   3.977  12.218  0.00  0.00    +0.000 OA
BRANCH  31  32
ATOM     32  P   UNL     1       5.766   2.914  12.041  0.00  0.00    +0.000 P 
ATOM     33  O   UNL     1       6.032   1.690  11.232  0.00  0.00    +0.000 OA
BRANCH  32  34
ATOM     34  O   UNL     1       5.359   2.587  13.555  0.00  0.00    +0.000 OA
ATOM     35  H   UNL     1       5.015   3.379  14.009  0.00  0.00    +0.000 HD
ENDBRANCH  32  34
BRANCH  32  36
ATOM     36  O   UNL     1       4.503   3.763  11.558  0.00  0.00    +0.000 OA
ATOM     37  H   UNL     1       4.776   4.493  10.978  0.00  0.00    +0.000 HD
ENDBRANCH  32  36
ENDBRANCH  31  32
ENDBRANCH  27  31
ENDBRANCH  26  27
ENDBRANCH  22  26
ENDBRANCH  21  22
ENDBRANCH  20  21
ENDBRANCH   3  20
TORSDOF 13
ENDMDL
MODEL 8
REMARK VINA RESULT:      -6.9      3.499      5.913
REMARK  Name = 
REMARK  13 active torsions:
REMARK  status: ('A' for Active; 'I' for Inactive)
REMARK    1  A    between atoms: N_5  and  C_6
REMARK    2  A    between atoms: C_8  and  C_9
REMARK    3  A    between atoms: C_9  and  O_10
REMARK    4  A    between atoms: O_10  and  P_11
REMARK    5  A    between atoms: P_11  and  O_13
REMARK    6  A    between atoms: P_11  and  O_14
REMARK    7  A    between atoms: O_14  and  P_15
REMARK    8  A    between atoms: P_15  and  O_17
REMARK    9  A    between atoms: P_15  and  O_18
REMARK   10  A    between atoms: O_18  and  P_19
REMARK   11  A    between atoms: P_19  and  O_21
REMARK   12  A    between atoms: P_19  and  O_22
REMARK   13  A    between atoms: C_26  and  O_27
REMARK                            x       y       z     vdW  Elec       q    Type
REMARK                         _______ _______ _______ _____ _____    ______ ____
ROOT
ATOM      1  C   UNL     1       0.015  10.784  19.924  0.00  0.00    +0.000 C 
ATOM      2  O   UNL     1       1.028   9.802  19.525  0.00  0.00    +0.000 OA
ATOM      3  C   UNL     1       1.085   8.872  20.656  0.00  0.00    +0.000 C 
ATOM      4  C   UNL     1       1.627   9.640  21.873  0.00  0.00    +0.000 C 
ATOM      5  O   UNL     1       0.495  10.460  22.286  0.00  0.00    +0.000 OA
ATOM      6  C   UNL     1      -0.519  10.209  21.257  0.00  0.00    +0.000 C 
ATOM      7  C   UNL     1      -0.379   8.710  21.037  0.00  0.00    +0.000 C 
ENDROOT
BRANCH   1  12
ATOM      8  N   UNL     1      -4.117  11.522  16.348  0.00  0.00    +0.000 N 
ATOM      9  C   UNL     1      -3.074  11.329  17.210  0.00  0.00    +0.000 A 
ATOM     10  C   UNL     1      -2.121  10.234  16.954  0.00  0.00    +0.000 A 
ATOM     11  C   UNL     1      -1.110  10.126  17.817  0.00  0.00    +0.000 A 
ATOM     12  N   UNL     1      -1.004  10.972  18.896  0.00  0.00    +0.000 N 
ATOM     13  C   UNL     1      -1.956  11.967  19.134  0.00  0.00    +0.000 A 
ATOM     14  O   UNL     1      -1.897  12.668  20.142  0.00  0.00    +0.000 OA
ATOM     15  N   UNL     1      -2.970  12.137  18.222  0.00  0.00    +0.000 NA
ATOM     16  H   UNL     1      -4.028  11.187  15.398  0.00  0.00    +0.000 HD
ATOM     17  H   UNL     1      -4.541  12.441  16.429  0.00  0.00    +0.000 HD
ENDBRANCH   1  12
BRANCH   7  18
ATOM     18  O   UNL     1      -0.595   7.938  22.209  0.00  0.00    +0.000 OA
ATOM     19  H   UNL     1      -0.817   7.028  21.932  0.00  0.00    +0.000 HD
ENDBRANCH   7  18
BRANCH   3  20
ATOM     20  C   UNL     1       1.876   7.616  20.328  0.00  0.00    +0.000 C 
BRANCH  20  21
ATOM     21  O   UNL     1       1.305   6.477  20.971  0.00  0.00    +0.000 OA
BRANCH  21  22
ATOM     22  P   UNL     1       2.196   5.015  20.721  0.00  0.00    +0.000 P 
ATOM     23  O   UNL     1       1.177   4.589  19.664  0.00  0.00    +0.000 OA
BRANCH  22  24
ATOM     24  O   UNL     1       3.295   5.966  19.955  0.00  0.00    +0.000 OA
ATOM     25  H   UNL     1       3.133   6.896  20.209  0.00  0.00    +0.000 HD
ENDBRANCH  22  24
BRANCH  22  26
ATOM     26  O   UNL     1       3.087   3.553  20.470  0.00  0.00    +0.000 OA
BRANCH  26  27
ATOM     27  P   UNL     1       4.275   3.807  19.238  0.00  0.00    +0.000 P 
ATOM     28  O   UNL     1       5.035   2.576  19.749  0.00  0.00    +0.000 OA
BRANCH  27  29
ATOM     29  O   UNL     1       3.204   3.279  18.122  0.00  0.00    +0.000 OA
ATOM     30  H   UNL     1       2.360   3.032  18.567  0.00  0.00    +0.000 HD
ENDBRANCH  27  29
BRANCH  27  31
ATOM     31  O   UNL     1       5.462   4.060  18.006  0.00  0.00    +0.000 OA
BRANCH  31  32
ATOM     32  P   UNL     1       6.709   5.023  18.183  0.00  0.00    +0.000 P 
ATOM     33  O   UNL     1       6.706   6.335  17.472  0.00  0.00    +0.000 OA
BRANCH  32  34
ATOM     34  O   UNL     1       6.811   5.175  19.773  0.00  0.00    +0.000 OA
ATOM     35  H   UNL     1       6.023   4.808  20.216  0.00  0.00    +0.000 HD
ENDBRANCH  32  34
BRANCH  32  36
ATOM     36  O   UNL     1       7.982   4.110  17.877  0.00  0.00    +0.000 OA
ATOM     37  H   UNL     1       8.699   4.634  17.480  0.00  0.00    +0.000 HD
ENDBRANCH  32  36
ENDBRANCH  31  32
ENDBRANCH  27  31
ENDBRANCH  26  27
ENDBRANCH  22  26
ENDBRANCH  21  22
ENDBRANCH  20  21
ENDBRANCH   3  20
TORSDOF 13
ENDMDL
MODEL 9
REMARK VINA RESULT:      -6.8      2.976      5.298
REMARK  Name = 
REMARK  13 active torsions:
REMARK  status: ('A' for Active; 'I' for Inactive)
REMARK    1  A    between atoms: N_5  and  C_6
REMARK    2  A    between atoms: C_8  and  C_9
REMARK    3  A    between atoms: C_9  and  O_10
REMARK    4  A    between atoms: O_10  and  P_11
REMARK    5  A    between atoms: P_11  and  O_13
REMARK    6  A    between atoms: P_11  and  O_14
REMARK    7  A    between atoms: O_14  and  P_15
REMARK    8  A    between atoms: P_15  and  O_17
REMARK    9  A    between atoms: P_15  and  O_18
REMARK   10  A    between atoms: O_18  and  P_19
REMARK   11  A    between atoms: P_19  and  O_21
REMARK   12  A    between atoms: P_19  and  O_22
REMARK   13  A    between atoms: C_26  and  O_27
REMARK                            x       y       z     vdW  Elec       q    Type
REMARK                         _______ _______ _______ _____ _____    ______ ____
ROOT
ATOM      1  C   UNL     1       0.233  10.649  19.992  0.00  0.00    +0.000 C 
ATOM      2  O   UNL     1       1.122   9.517  19.711  0.00  0.00    +0.000 OA
ATOM      3  C   UNL     1       1.057   8.704  20.928  0.00  0.00    +0.000 C 
ATOM      4  C   UNL     1       1.681   9.519  22.074  0.00  0.00    +0.000 C 
ATOM      5  O   UNL     1       0.654  10.506  22.384  0.00  0.00    +0.000 OA
ATOM      6  C   UNL     1      -0.376  10.278  21.365  0.00  0.00    +0.000 C 
ATOM      7  C   UNL     1      -0.418   8.758  21.295  0.00  0.00    +0.000 C 
ENDROOT
BRANCH   1  12
ATOM      8  N   UNL     1      -3.759  11.501  16.285  0.00  0.00    +0.000 N 
ATOM      9  C   UNL     1      -2.751  11.276  17.181  0.00  0.00    +0.000 A 
ATOM     10  C   UNL     1      -1.896  10.086  17.020  0.00  0.00    +0.000 A 
ATOM     11  C   UNL     1      -0.913   9.949  17.910  0.00  0.00    +0.000 A 
ATOM     12  N   UNL     1      -0.749  10.855  18.932  0.00  0.00    +0.000 N 
ATOM     13  C   UNL     1      -1.611  11.944  19.082  0.00  0.00    +0.000 A 
ATOM     14  O   UNL     1      -1.505  12.705  20.041  0.00  0.00    +0.000 OA
ATOM     15  N   UNL     1      -2.592  12.140  18.139  0.00  0.00    +0.000 NA
ATOM     16  H   UNL     1      -3.686  11.094  15.363  0.00  0.00    +0.000 HD
ATOM     17  H   UNL     1      -4.101  12.457  16.295  0.00  0.00    +0.000 HD
ENDBRANCH   1  12
BRANCH   7  18
ATOM     18  O   UNL     1      -0.734   8.139  22.534  0.00  0.00    +0.000 OA
ATOM     19  H   UNL     1      -0.636   8.810  23.238  0.00  0.00    +0.000 HD
ENDBRANCH   7  18
BRANCH   3  20
ATOM     20  C   UNL     1       1.692   7.336  20.740  0.00  0.00    +0.000 C 
BRANCH  20  21
ATOM     21  O   UNL     1       1.940   7.081  19.358  0.00  0.00    +0.000 OA
BRANCH  21  22
ATOM     22  P   UNL     1       2.597   5.511  19.045  0.00  0.00    +0.000 P 
ATOM     23  O   UNL     1       3.327   6.073  17.825  0.00  0.00    +0.000 OA
BRANCH  22  24
ATOM     24  O   UNL     1       3.564   5.797  20.341  0.00  0.00    +0.000 OA
ATOM     25  H   UNL     1       3.787   4.941  20.759  0.00  0.00    +0.000 HD
ENDBRANCH  22  24
BRANCH  22  26
ATOM     26  O   UNL     1       3.255   3.941  18.732  0.00  0.00    +0.000 OA
BRANCH  26  27
ATOM     27  P   UNL     1       4.666   4.095  17.742  0.00  0.00    +0.000 P 
ATOM     28  O   UNL     1       5.528   4.095  19.011  0.00  0.00    +0.000 OA
BRANCH  27  29
ATOM     29  O   UNL     1       4.490   2.536  17.282  0.00  0.00    +0.000 OA
ATOM     30  H   UNL     1       5.325   2.045  17.459  0.00  0.00    +0.000 HD
ENDBRANCH  27  29
BRANCH  27  31
ATOM     31  O   UNL     1       6.076   4.248  16.753  0.00  0.00    +0.000 OA
BRANCH  31  32
ATOM     32  P   UNL     1       6.804   5.630  16.482  0.00  0.00    +0.000 P 
ATOM     33  O   UNL     1       7.706   6.182  17.534  0.00  0.00    +0.000 OA
BRANCH  32  34
ATOM     34  O   UNL     1       7.555   5.362  15.093  0.00  0.00    +0.000 OA
ATOM     35  H   UNL     1       6.931   5.073  14.402  0.00  0.00    +0.000 HD
ENDBRANCH  32  34
BRANCH  32  36
ATOM     36  O   UNL     1       5.644   6.623  16.019  0.00  0.00    +0.000 OA
ATOM     37  H   UNL     1       4.918   6.636  16.666  0.00  0.00    +0.000 HD
ENDBRANCH  32  36
ENDBRANCH  31  32
ENDBRANCH  27  31
ENDBRANCH  26  27
ENDBRANCH  22  26
ENDBRANCH  21  22
ENDBRANCH  20  21
ENDBRANCH   3  20
TORSDOF 13
ENDMDL
