MODEL 1
REMARK VINA RESULT:      -7.8      0.000      0.000
REMARK  Name = 
REMARK  10 active torsions:
REMARK  status: ('A' for Active; 'I' for Inactive)
REMARK    1  A    between atoms: C_1  and  C_2
REMARK    2  A    between atoms: C_4  and  C_5
REMARK    3  A    between atoms: N_6  and  C_7
REMARK    4  A    between atoms: C_7  and  C_8
REMARK    5  A    between atoms: C_7  and  C_9
REMARK    6  A    between atoms: C_9  and  N_10
REMARK    7  A    between atoms: C_12  and  O_13
REMARK    8  A    between atoms: O_13  and  C_14
REMARK    9  A    between atoms: C_22  and  C_23
REMARK   10  A    between atoms: C_23  and  O_25
REMARK                            x       y       z     vdW  Elec       q    Type
REMARK                         _______ _______ _______ _____ _____    ______ ____
ROOT
ATOM      1  N   UNL     1       3.465   7.431  17.755  0.00  0.00    +0.000 N 
ATOM      2  C   UNL     1       3.314   6.446  18.730  0.00  0.00    +0.000 A 
ATOM      3  C   UNL     1       2.481   6.533  19.780  0.00  0.00    +0.000 A 
ATOM      4  C   UNL     1       1.792   7.860  19.963  0.00  0.00    +0.000 A 
ATOM      5  O   UNL     1       1.257   8.212  21.012  0.00  0.00    +0.000 OA
ATOM      6  C   UNL     1       1.736   8.767  18.793  0.00  0.00    +0.000 A 
ATOM      7  C   UNL     1       2.562   8.489  17.775  0.00  0.00    +0.000 A 
ENDROOT
BRANCH   6   8
ATOM      8  C   UNL     1       0.879   9.968  18.729  0.00  0.00    +0.000 C 
ATOM      9  O   UNL     1       0.987  10.917  19.491  0.00  0.00    +0.000 OA
BRANCH   8  10
ATOM     10  O   UNL     1      -0.033   9.952  17.731  0.00  0.00    +0.000 OA
ATOM     11  H   UNL     1      -0.933  10.255  18.005  0.00  0.00    +0.000 HD
ENDBRANCH   8  10
ENDBRANCH   6   8
BRANCH   1  12
ATOM     12  C   UNL     1       4.535   7.367  16.734  0.00  0.00    +0.000 C 
BRANCH  12  13
ATOM     13  C   UNL     1       5.671   6.359  17.046  0.00  0.00    +0.000 C 
ATOM     14  C   UNL     1       6.945   7.055  17.542  0.00  0.00    +0.000 C 
BRANCH  13  20
ATOM     15  C   UNL     1       7.611   4.762  12.902  0.00  0.00    +0.000 C 
ATOM     16  C   UNL     1       6.784   4.728  14.131  0.00  0.00    +0.000 A 
ATOM     17  C   UNL     1       5.885   3.729  14.553  0.00  0.00    +0.000 A 
ATOM     18  C   UNL     1       5.345   4.190  15.736  0.00  0.00    +0.000 A 
ATOM     19  C   UNL     1       4.334   3.563  16.620  0.00  0.00    +0.000 C 
ATOM     20  N   UNL     1       5.931   5.416  15.957  0.00  0.00    +0.000 N 
ATOM     21  N   UNL     1       6.831   5.738  15.003  0.00  0.00    +0.000 NA
ENDBRANCH  13  20
ENDBRANCH  12  13
ENDBRANCH   1  12
BRANCH   3  22
ATOM     22  O   UNL     1       2.343   5.467  20.664  0.00  0.00    +0.000 OA
BRANCH  22  23
ATOM     23  C   UNL     1       2.213   4.193  20.162  0.00  0.00    +0.000 A 
ATOM     24  C   UNL     1       3.248   3.253  20.177  0.00  0.00    +0.000 A 
ATOM     25  C   UNL     1       3.083   2.028  19.532  0.00  0.00    +0.000 A 
ATOM     26  C   UNL     1       1.861   1.710  18.941  0.00  0.00    +0.000 A 
ATOM     27  C   UNL     1       0.795   2.608  19.017  0.00  0.00    +0.000 A 
ATOM     28  C   UNL     1       0.970   3.849  19.629  0.00  0.00    +0.000 A 
ENDBRANCH  22  23
ENDBRANCH   3  22
TORSDOF 7
ENDMDL
MODEL 2
REMARK VINA RESULT:      -7.7      3.458      7.478
REMARK  Name = 
REMARK  10 active torsions:
REMARK  status: ('A' for Active; 'I' for Inactive)
REMARK    1  A    between atoms: C_1  and  C_2
REMARK    2  A    between atoms: C_4  and  C_5
REMARK    3  A    between atoms: N_6  and  C_7
REMARK    4  A    between atoms: C_7  and  C_8
REMARK    5  A    between atoms: C_7  and  C_9
REMARK    6  A    between atoms: C_9  and  N_10
REMARK    7  A    between atoms: C_12  and  O_13
REMARK    8  A    between atoms: O_13  and  C_14
REMARK    9  A    between atoms: C_22  and  C_23
REMARK   10  A    between atoms: C_23  and  O_25
REMARK                            x       y       z     vdW  Elec       q    Type
REMARK                         _______ _______ _______ _____ _____    ______ ____
ROOT
ATOM      1  N   UNL     1       2.090   6.863  19.990  0.00  0.00    +0.000 N 
ATOM      2  C   UNL     1       3.101   6.689  19.048  0.00  0.00    +0.000 A 
ATOM      3  C   UNL     1       3.694   5.516  18.771  0.00  0.00    +0.000 A 
ATOM      4  C   UNL     1       3.318   4.364  19.667  0.00  0.00    +0.000 A 
ATOM      5  O   UNL     1       3.976   3.330  19.760  0.00  0.00    +0.000 OA
ATOM      6  C   UNL     1       2.067   4.488  20.449  0.00  0.00    +0.000 A 
ATOM      7  C   UNL     1       1.537   5.715  20.549  0.00  0.00    +0.000 A 
ENDROOT
BRANCH   6   8
ATOM      8  C   UNL     1       1.428   3.359  21.156  0.00  0.00    +0.000 C 
ATOM      9  O   UNL     1       1.810   2.936  22.236  0.00  0.00    +0.000 OA
BRANCH   8  10
ATOM     10  O   UNL     1       0.354   2.837  20.521  0.00  0.00    +0.000 OA
ATOM     11  H   UNL     1      -0.388   3.476  20.394  0.00  0.00    +0.000 HD
ENDBRANCH   8  10
ENDBRANCH   6   8
BRANCH   1  12
ATOM     12  C   UNL     1       1.612   8.206  20.391  0.00  0.00    +0.000 C 
BRANCH  12  13
ATOM     13  C   UNL     1       0.952   9.027  19.253  0.00  0.00    +0.000 C 
ATOM     14  C   UNL     1       1.977   9.517  18.222  0.00  0.00    +0.000 C 
BRANCH  13  20
ATOM     15  C   UNL     1      -0.740  12.335  22.364  0.00  0.00    +0.000 C 
ATOM     16  C   UNL     1      -0.659  11.544  21.113  0.00  0.00    +0.000 A 
ATOM     17  C   UNL     1      -1.537  11.557  20.012  0.00  0.00    +0.000 A 
ATOM     18  C   UNL     1      -1.042  10.618  19.131  0.00  0.00    +0.000 A 
ATOM     19  C   UNL     1      -1.564  10.195  17.809  0.00  0.00    +0.000 C 
ATOM     20  N   UNL     1       0.080  10.098  19.736  0.00  0.00    +0.000 N 
ATOM     21  N   UNL     1       0.339  10.677  20.928  0.00  0.00    +0.000 NA
ENDBRANCH  13  20
ENDBRANCH  12  13
ENDBRANCH   1  12
BRANCH   3  22
ATOM     22  O   UNL     1       4.645   5.424  17.760  0.00  0.00    +0.000 OA
BRANCH  22  23
ATOM     23  C   UNL     1       5.891   5.973  17.961  0.00  0.00    +0.000 A 
ATOM     24  C   UNL     1       6.809   5.471  18.889  0.00  0.00    +0.000 A 
ATOM     25  C   UNL     1       7.999   6.159  19.129  0.00  0.00    +0.000 A 
ATOM     26  C   UNL     1       8.306   7.300  18.390  0.00  0.00    +0.000 A 
ATOM     27  C   UNL     1       7.435   7.740  17.391  0.00  0.00    +0.000 A 
ATOM     28  C   UNL     1       6.228   7.076  17.176  0.00  0.00    +0.000 A 
ENDBRANCH  22  23
ENDBRANCH   3  22
TORSDOF 7
ENDMDL
MODEL 3
REMARK VINA RESULT:      -7.4      0.845      1.019
REMARK  Name = 
REMARK  10 active torsions:
REMARK  status: ('A' for Active; 'I' for Inactive)
REMARK    1  A    between atoms: C_1  and  C_2
REMARK    2  A    between atoms: C_4  and  C_5
REMARK    3  A    between atoms: N_6  and  C_7
REMARK    4  A    between atoms: C_7  and  C_8
REMARK    5  A    between atoms: C_7  and  C_9
REMARK    6  A    between atoms: C_9  and  N_10
REMARK    7  A    between atoms: C_12  and  O_13
REMARK    8  A    between atoms: O_13  and  C_14
REMARK    9  A    between atoms: C_22  and  C_23
REMARK   10  A    between atoms: C_23  and  O_25
REMARK                            x       y       z     vdW  Elec       q    Type
REMARK                         _______ _______ _______ _____ _____    ______ ____
ROOT
ATOM      1  N   UNL     1       3.357   7.553  17.756  0.00  0.00    +0.000 N 
ATOM      2  C   UNL     1       3.224   6.566  18.730  0.00  0.00    +0.000 A 
ATOM      3  C   UNL     1       2.417   6.654  19.801  0.00  0.00    +0.000 A 
ATOM      4  C   UNL     1       1.743   7.985  20.006  0.00  0.00    +0.000 A 
ATOM      5  O   UNL     1       1.237   8.337  21.071  0.00  0.00    +0.000 OA
ATOM      6  C   UNL     1       1.665   8.898  18.843  0.00  0.00    +0.000 A 
ATOM      7  C   UNL     1       2.463   8.618  17.803  0.00  0.00    +0.000 A 
ENDROOT
BRANCH   6   8
ATOM      8  C   UNL     1       0.816  10.106  18.805  0.00  0.00    +0.000 C 
ATOM      9  O   UNL     1       0.915  11.027  19.602  0.00  0.00    +0.000 OA
BRANCH   8  10
ATOM     10  O   UNL     1      -0.078  10.130  17.790  0.00  0.00    +0.000 OA
ATOM     11  H   UNL     1      -0.859   9.541  17.929  0.00  0.00    +0.000 HD
ENDBRANCH   8  10
ENDBRANCH   6   8
BRANCH   1  12
ATOM     12  C   UNL     1       4.401   7.486  16.708  0.00  0.00    +0.000 C 
BRANCH  12  13
ATOM     13  C   UNL     1       5.719   6.799  17.148  0.00  0.00    +0.000 C 
ATOM     14  C   UNL     1       6.852   7.809  17.376  0.00  0.00    +0.000 C 
BRANCH  13  20
ATOM     15  C   UNL     1       5.667   3.988  13.200  0.00  0.00    +0.000 C 
ATOM     16  C   UNL     1       6.082   4.458  14.543  0.00  0.00    +0.000 A 
ATOM     17  C   UNL     1       6.976   3.850  15.446  0.00  0.00    +0.000 A 
ATOM     18  C   UNL     1       6.988   4.661  16.561  0.00  0.00    +0.000 A 
ATOM     19  C   UNL     1       7.737   4.509  17.832  0.00  0.00    +0.000 C 
ATOM     20  N   UNL     1       6.118   5.690  16.280  0.00  0.00    +0.000 N 
ATOM     21  N   UNL     1       5.586   5.593  15.042  0.00  0.00    +0.000 NA
ENDBRANCH  13  20
ENDBRANCH  12  13
ENDBRANCH   1  12
BRANCH   3  22
ATOM     22  O   UNL     1       2.293   5.586  20.684  0.00  0.00    +0.000 OA
BRANCH  22  23
ATOM     23  C   UNL     1       2.186   4.309  20.180  0.00  0.00    +0.000 A 
ATOM     24  C   UNL     1       3.289   3.479  19.956  0.00  0.00    +0.000 A 
ATOM     25  C   UNL     1       3.113   2.249  19.321  0.00  0.00    +0.000 A 
ATOM     26  C   UNL     1       1.832   1.816  18.982  0.00  0.00    +0.000 A 
ATOM     27  C   UNL     1       0.723   2.601  19.301  0.00  0.00    +0.000 A 
ATOM     28  C   UNL     1       0.900   3.848  19.901  0.00  0.00    +0.000 A 
ENDBRANCH  22  23
ENDBRANCH   3  22
TORSDOF 7
ENDMDL
MODEL 4
REMARK VINA RESULT:      -7.3      3.106      7.184
REMARK  Name = 
REMARK  10 active torsions:
REMARK  status: ('A' for Active; 'I' for Inactive)
REMARK    1  A    between atoms: C_1  and  C_2
REMARK    2  A    between atoms: C_4  and  C_5
REMARK    3  A    between atoms: N_6  and  C_7
REMARK    4  A    between atoms: C_7  and  C_8
REMARK    5  A    between atoms: C_7  and  C_9
REMARK    6  A    between atoms: C_9  and  N_10
REMARK    7  A    between atoms: C_12  and  O_13
REMARK    8  A    between atoms: O_13  and  C_14
REMARK    9  A    between atoms: C_22  and  C_23
REMARK   10  A    between atoms: C_23  and  O_25
REMARK                            x       y       z     vdW  Elec       q    Type
REMARK                         _______ _______ _______ _____ _____    ______ ____
ROOT
ATOM      1  N   UNL     1       2.214   6.550  19.591  0.00  0.00    +0.000 N 
ATOM      2  C   UNL     1       2.742   6.149  18.365  0.00  0.00    +0.000 A 
ATOM      3  C   UNL     1       3.069   4.884  18.052  0.00  0.00    +0.000 A 
ATOM      4  C   UNL     1       2.987   3.887  19.178  0.00  0.00    +0.000 A 
ATOM      5  O   UNL     1       3.535   2.786  19.156  0.00  0.00    +0.000 OA
ATOM      6  C   UNL     1       2.172   4.256  20.358  0.00  0.00    +0.000 A 
ATOM      7  C   UNL     1       1.836   5.548  20.479  0.00  0.00    +0.000 A 
ENDROOT
BRANCH   6   8
ATOM      8  C   UNL     1       1.776   3.299  21.412  0.00  0.00    +0.000 C 
ATOM      9  O   UNL     1       2.452   3.070  22.404  0.00  0.00    +0.000 OA
BRANCH   8  10
ATOM     10  O   UNL     1       0.579   2.705  21.207  0.00  0.00    +0.000 OA
ATOM     11  H   UNL     1       0.312   2.657  20.257  0.00  0.00    +0.000 HD
ENDBRANCH   8  10
ENDBRANCH   6   8
BRANCH   1  12
ATOM     12  C   UNL     1       2.057   7.978  19.948  0.00  0.00    +0.000 C 
BRANCH  12  13
ATOM     13  C   UNL     1       1.302   8.831  18.897  0.00  0.00    +0.000 C 
ATOM     14  C   UNL     1       2.254   9.474  17.879  0.00  0.00    +0.000 C 
BRANCH  13  20
ATOM     15  C   UNL     1      -0.586  11.673  22.339  0.00  0.00    +0.000 C 
ATOM     16  C   UNL     1      -0.454  11.035  21.008  0.00  0.00    +0.000 A 
ATOM     17  C   UNL     1      -1.322  11.128  19.902  0.00  0.00    +0.000 A 
ATOM     18  C   UNL     1      -0.771  10.322  18.928  0.00  0.00    +0.000 A 
ATOM     19  C   UNL     1      -1.261  10.026  17.560  0.00  0.00    +0.000 C 
ATOM     20  N   UNL     1       0.371   9.794  19.486  0.00  0.00    +0.000 N 
ATOM     21  N   UNL     1       0.590  10.247  20.739  0.00  0.00    +0.000 NA
ENDBRANCH  13  20
ENDBRANCH  12  13
ENDBRANCH   1  12
BRANCH   3  22
ATOM     22  O   UNL     1       3.521   4.565  16.775  0.00  0.00    +0.000 OA
BRANCH  22  23
ATOM     23  C   UNL     1       4.873   4.590  16.518  0.00  0.00    +0.000 A 
ATOM     24  C   UNL     1       5.839   4.789  17.509  0.00  0.00    +0.000 A 
ATOM     25  C   UNL     1       7.180   4.932  17.153  0.00  0.00    +0.000 A 
ATOM     26  C   UNL     1       7.565   4.798  15.819  0.00  0.00    +0.000 A 
ATOM     27  C   UNL     1       6.613   4.496  14.845  0.00  0.00    +0.000 A 
ATOM     28  C   UNL     1       5.266   4.391  15.194  0.00  0.00    +0.000 A 
ENDBRANCH  22  23
ENDBRANCH   3  22
TORSDOF 7
ENDMDL
MODEL 5
REMARK VINA RESULT:      -7.3      3.165      7.114
REMARK  Name = 
REMARK  10 active torsions:
REMARK  status: ('A' for Active; 'I' for Inactive)
REMARK    1  A    between atoms: C_1  and  C_2
REMARK    2  A    between atoms: C_4  and  C_5
REMARK    3  A    between atoms: N_6  and  C_7
REMARK    4  A    between atoms: C_7  and  C_8
REMARK    5  A    between atoms: C_7  and  C_9
REMARK    6  A    between atoms: C_9  and  N_10
REMARK    7  A    between atoms: C_12  and  O_13
REMARK    8  A    between atoms: O_13  and  C_14
REMARK    9  A    between atoms: C_22  and  C_23
REMARK   10  A    between atoms: C_23  and  O_25
REMARK                            x       y       z     vdW  Elec       q    Type
REMARK                         _______ _______ _______ _____ _____    ______ ____
ROOT
ATOM      1  N   UNL     1       2.463   6.521  19.798  0.00  0.00    +0.000 N 
ATOM      2  C   UNL     1       3.766   6.243  19.390  0.00  0.00    +0.000 A 
ATOM      3  C   UNL     1       4.277   5.008  19.254  0.00  0.00    +0.000 A 
ATOM      4  C   UNL     1       3.399   3.880  19.727  0.00  0.00    +0.000 A 
ATOM      5  O   UNL     1       3.812   2.747  19.966  0.00  0.00    +0.000 OA
ATOM      6  C   UNL     1       1.952   4.158  19.879  0.00  0.00    +0.000 A 
ATOM      7  C   UNL     1       1.584   5.447  19.895  0.00  0.00    +0.000 A 
ENDROOT
BRANCH   6   8
ATOM      8  C   UNL     1       0.931   3.108  20.072  0.00  0.00    +0.000 C 
ATOM      9  O   UNL     1       0.274   2.630  19.159  0.00  0.00    +0.000 OA
BRANCH   8  10
ATOM     10  O   UNL     1       0.793   2.688  21.350  0.00  0.00    +0.000 OA
ATOM     11  H   UNL     1      -0.123   2.398  21.580  0.00  0.00    +0.000 HD
ENDBRANCH   8  10
ENDBRANCH   6   8
BRANCH   1  12
ATOM     12  C   UNL     1       2.018   7.896  20.118  0.00  0.00    +0.000 C 
BRANCH  12  13
ATOM     13  C   UNL     1       1.273   8.622  18.969  0.00  0.00    +0.000 C 
ATOM     14  C   UNL     1       2.222   9.045  17.839  0.00  0.00    +0.000 C 
BRANCH  13  20
ATOM     15  C   UNL     1      -0.376  12.019  22.007  0.00  0.00    +0.000 C 
ATOM     16  C   UNL     1      -0.303  11.203  20.772  0.00  0.00    +0.000 A 
ATOM     17  C   UNL     1      -1.175  11.210  19.666  0.00  0.00    +0.000 A 
ATOM     18  C   UNL     1      -0.692  10.245  18.805  0.00  0.00    +0.000 A 
ATOM     19  C   UNL     1      -1.215   9.806  17.490  0.00  0.00    +0.000 C 
ATOM     20  N   UNL     1       0.418   9.718  19.426  0.00  0.00    +0.000 N 
ATOM     21  N   UNL     1       0.682  10.315  20.608  0.00  0.00    +0.000 NA
ENDBRANCH  13  20
ENDBRANCH  12  13
ENDBRANCH   1  12
BRANCH   3  22
ATOM     22  O   UNL     1       5.568   4.825  18.769  0.00  0.00    +0.000 OA
BRANCH  22  23
ATOM     23  C   UNL     1       5.771   4.760  17.410  0.00  0.00    +0.000 A 
ATOM     24  C   UNL     1       4.810   4.281  16.514  0.00  0.00    +0.000 A 
ATOM     25  C   UNL     1       5.135   4.122  15.167  0.00  0.00    +0.000 A 
ATOM     26  C   UNL     1       6.390   4.513  14.702  0.00  0.00    +0.000 A 
ATOM     27  C   UNL     1       7.311   5.087  15.579  0.00  0.00    +0.000 A 
ATOM     28  C   UNL     1       7.002   5.212  16.934  0.00  0.00    +0.000 A 
ENDBRANCH  22  23
ENDBRANCH   3  22
TORSDOF 7
ENDMDL
MODEL 6
REMARK VINA RESULT:      -7.3      3.074      6.888
REMARK  Name = 
REMARK  10 active torsions:
REMARK  status: ('A' for Active; 'I' for Inactive)
REMARK    1  A    between atoms: C_1  and  C_2
REMARK    2  A    between atoms: C_4  and  C_5
REMARK    3  A    between atoms: N_6  and  C_7
REMARK    4  A    between atoms: C_7  and  C_8
REMARK    5  A    between atoms: C_7  and  C_9
REMARK    6  A    between atoms: C_9  and  N_10
REMARK    7  A    between atoms: C_12  and  O_13
REMARK    8  A    between atoms: O_13  and  C_14
REMARK    9  A    between atoms: C_22  and  C_23
REMARK   10  A    between atoms: C_23  and  O_25
REMARK                            x       y       z     vdW  Elec       q    Type
REMARK                         _______ _______ _______ _____ _____    ______ ____
ROOT
ATOM      1  N   UNL     1       4.968   3.700  18.072  0.00  0.00    +0.000 N 
ATOM      2  C   UNL     1       4.800   4.190  16.779  0.00  0.00    +0.000 A 
ATOM      3  C   UNL     1       5.447   5.254  16.275  0.00  0.00    +0.000 A 
ATOM      4  C   UNL     1       6.288   6.033  17.253  0.00  0.00    +0.000 A 
ATOM      5  O   UNL     1       6.685   7.179  17.050  0.00  0.00    +0.000 OA
ATOM      6  C   UNL     1       6.678   5.354  18.510  0.00  0.00    +0.000 A 
ATOM      7  C   UNL     1       6.004   4.239  18.828  0.00  0.00    +0.000 A 
ENDROOT
BRANCH   6   8
ATOM      8  C   UNL     1       7.705   5.872  19.436  0.00  0.00    +0.000 C 
ATOM      9  O   UNL     1       7.934   5.383  20.533  0.00  0.00    +0.000 OA
BRANCH   8  10
ATOM     10  O   UNL     1       8.405   6.928  18.963  0.00  0.00    +0.000 OA
ATOM     11  H   UNL     1       7.879   7.763  18.905  0.00  0.00    +0.000 HD
ENDBRANCH   8  10
ENDBRANCH   6   8
BRANCH   1  12
ATOM     12  C   UNL     1       4.088   2.649  18.633  0.00  0.00    +0.000 C 
BRANCH  12  13
ATOM     13  C   UNL     1       2.588   3.030  18.708  0.00  0.00    +0.000 C 
ATOM     14  C   UNL     1       1.918   3.022  17.326  0.00  0.00    +0.000 C 
BRANCH  13  20
ATOM     15  C   UNL     1       2.138   7.806  19.396  0.00  0.00    +0.000 C 
ATOM     16  C   UNL     1       2.144   6.365  19.744  0.00  0.00    +0.000 A 
ATOM     17  C   UNL     1       1.987   5.770  21.011  0.00  0.00    +0.000 A 
ATOM     18  C   UNL     1       2.109   4.412  20.801  0.00  0.00    +0.000 A 
ATOM     19  C   UNL     1       2.044   3.297  21.776  0.00  0.00    +0.000 C 
ATOM     20  N   UNL     1       2.333   4.264  19.451  0.00  0.00    +0.000 N 
ATOM     21  N   UNL     1       2.324   5.443  18.794  0.00  0.00    +0.000 NA
ENDBRANCH  13  20
ENDBRANCH  12  13
ENDBRANCH   1  12
BRANCH   3  22
ATOM     22  O   UNL     1       5.270   5.627  14.947  0.00  0.00    +0.000 OA
BRANCH  22  23
ATOM     23  C   UNL     1       5.906   4.910  13.959  0.00  0.00    +0.000 A 
ATOM     24  C   UNL     1       7.236   5.129  13.588  0.00  0.00    +0.000 A 
ATOM     25  C   UNL     1       7.771   4.454  12.491  0.00  0.00    +0.000 A 
ATOM     26  C   UNL     1       7.005   3.506  11.815  0.00  0.00    +0.000 A 
ATOM     27  C   UNL     1       5.712   3.214  12.251  0.00  0.00    +0.000 A 
ATOM     28  C   UNL     1       5.162   3.916  13.324  0.00  0.00    +0.000 A 
ENDBRANCH  22  23
ENDBRANCH   3  22
TORSDOF 7
ENDMDL
MODEL 7
REMARK VINA RESULT:      -7.3      0.880      1.529
REMARK  Name = 
REMARK  10 active torsions:
REMARK  status: ('A' for Active; 'I' for Inactive)
REMARK    1  A    between atoms: C_1  and  C_2
REMARK    2  A    between atoms: C_4  and  C_5
REMARK    3  A    between atoms: N_6  and  C_7
REMARK    4  A    between atoms: C_7  and  C_8
REMARK    5  A    between atoms: C_7  and  C_9
REMARK    6  A    between atoms: C_9  and  N_10
REMARK    7  A    between atoms: C_12  and  O_13
REMARK    8  A    between atoms: O_13  and  C_14
REMARK    9  A    between atoms: C_22  and  C_23
REMARK   10  A    between atoms: C_23  and  O_25
REMARK                            x       y       z     vdW  Elec       q    Type
REMARK                         _______ _______ _______ _____ _____    ______ ____
ROOT
ATOM      1  N   UNL     1       3.510   7.578  17.801  0.00  0.00    +0.000 N 
ATOM      2  C   UNL     1       3.420   6.500  18.679  0.00  0.00    +0.000 A 
ATOM      3  C   UNL     1       2.583   6.438  19.729  0.00  0.00    +0.000 A 
ATOM      4  C   UNL     1       1.817   7.699  20.032  0.00  0.00    +0.000 A 
ATOM      5  O   UNL     1       1.264   7.920  21.107  0.00  0.00    +0.000 OA
ATOM      6  C   UNL     1       1.707   8.707  18.952  0.00  0.00    +0.000 A 
ATOM      7  C   UNL     1       2.546   8.575  17.916  0.00  0.00    +0.000 A 
ENDROOT
BRANCH   6   8
ATOM      8  C   UNL     1       0.779   9.856  18.996  0.00  0.00    +0.000 C 
ATOM      9  O   UNL     1      -0.024  10.109  18.111  0.00  0.00    +0.000 OA
BRANCH   8  10
ATOM     10  O   UNL     1       0.869  10.605  20.118  0.00  0.00    +0.000 OA
ATOM     11  H   UNL     1       0.016  11.023  20.390  0.00  0.00    +0.000 HD
ENDBRANCH   8  10
ENDBRANCH   6   8
BRANCH   1  12
ATOM     12  C   UNL     1       4.581   7.674  16.784  0.00  0.00    +0.000 C 
BRANCH  12  13
ATOM     13  C   UNL     1       5.896   6.941  17.154  0.00  0.00    +0.000 C 
ATOM     14  C   UNL     1       7.088   7.904  17.255  0.00  0.00    +0.000 C 
BRANCH  13  20
ATOM     15  C   UNL     1       5.513   4.053  13.282  0.00  0.00    +0.000 C 
ATOM     16  C   UNL     1       5.996   4.517  14.603  0.00  0.00    +0.000 A 
ATOM     17  C   UNL     1       6.854   3.854  15.503  0.00  0.00    +0.000 A 
ATOM     18  C   UNL     1       6.962   4.688  16.597  0.00  0.00    +0.000 A 
ATOM     19  C   UNL     1       7.724   4.502  17.855  0.00  0.00    +0.000 C 
ATOM     20  N   UNL     1       6.178   5.782  16.307  0.00  0.00    +0.000 N 
ATOM     21  N   UNL     1       5.612   5.702  15.083  0.00  0.00    +0.000 NA
ENDBRANCH  13  20
ENDBRANCH  12  13
ENDBRANCH   1  12
BRANCH   3  22
ATOM     22  O   UNL     1       2.510   5.289  20.509  0.00  0.00    +0.000 OA
BRANCH  22  23
ATOM     23  C   UNL     1       2.272   4.079  19.898  0.00  0.00    +0.000 A 
ATOM     24  C   UNL     1       1.006   3.674  19.465  0.00  0.00    +0.000 A 
ATOM     25  C   UNL     1       0.820   2.382  18.975  0.00  0.00    +0.000 A 
ATOM     26  C   UNL     1       1.910   1.522  18.844  0.00  0.00    +0.000 A 
ATOM     27  C   UNL     1       3.191   1.964  19.180  0.00  0.00    +0.000 A 
ATOM     28  C   UNL     1       3.373   3.243  19.706  0.00  0.00    +0.000 A 
ENDBRANCH  22  23
ENDBRANCH   3  22
TORSDOF 7
ENDMDL
MODEL 8
REMARK VINA RESULT:      -7.2      3.191      6.715
REMARK  Name = 
REMARK  10 active torsions:
REMARK  status: ('A' for Active; 'I' for Inactive)
REMARK    1  A    between atoms: C_1  and  C_2
REMARK    2  A    between atoms: C_4  and  C_5
REMARK    3  A    between atoms: N_6  and  C_7
REMARK    4  A    between atoms: C_7  and  C_8
REMARK    5  A    between atoms: C_7  and  C_9
REMARK    6  A    between atoms: C_9  and  N_10
REMARK    7  A    between atoms: C_12  and  O_13
REMARK    8  A    between atoms: O_13  and  C_14
REMARK    9  A    between atoms: C_22  and  C_23
REMARK   10  A    between atoms: C_23  and  O_25
REMARK                            x       y       z     vdW  Elec       q    Type
REMARK                         _______ _______ _______ _____ _____    ______ ____
ROOT
ATOM      1  N   UNL     1       2.700   6.204  19.710  0.00  0.00    +0.000 N 
ATOM      2  C   UNL     1       3.981   5.825  19.314  0.00  0.00    +0.000 A 
ATOM      3  C   UNL     1       4.416   4.555  19.250  0.00  0.00    +0.000 A 
ATOM      4  C   UNL     1       3.476   3.512  19.794  0.00  0.00    +0.000 A 
ATOM      5  O   UNL     1       3.824   2.373  20.099  0.00  0.00    +0.000 OA
ATOM      6  C   UNL     1       2.050   3.886  19.936  0.00  0.00    +0.000 A 
ATOM      7  C   UNL     1       1.760   5.192  19.875  0.00  0.00    +0.000 A 
ENDROOT
BRANCH   6   8
ATOM      8  C   UNL     1       0.970   2.911  20.195  0.00  0.00    +0.000 C 
ATOM      9  O   UNL     1       0.263   2.437  19.319  0.00  0.00    +0.000 OA
BRANCH   8  10
ATOM     10  O   UNL     1       0.836   2.557  21.493  0.00  0.00    +0.000 OA
ATOM     11  H   UNL     1       0.996   3.296  22.130  0.00  0.00    +0.000 HD
ENDBRANCH   8  10
ENDBRANCH   6   8
BRANCH   1  12
ATOM     12  C   UNL     1       2.340   7.620  19.949  0.00  0.00    +0.000 C 
BRANCH  12  13
ATOM     13  C   UNL     1       1.722   8.348  18.727  0.00  0.00    +0.000 C 
ATOM     14  C   UNL     1       2.546   8.139  17.450  0.00  0.00    +0.000 C 
BRANCH  13  20
ATOM     15  C   UNL     1       2.119  13.152  18.219  0.00  0.00    +0.000 C 
ATOM     16  C   UNL     1       1.607  11.867  18.751  0.00  0.00    +0.000 A 
ATOM     17  C   UNL     1       0.684  11.658  19.795  0.00  0.00    +0.000 A 
ATOM     18  C   UNL     1       0.574  10.289  19.926  0.00  0.00    +0.000 A 
ATOM     19  C   UNL     1      -0.244   9.494  20.873  0.00  0.00    +0.000 C 
ATOM     20  N   UNL     1       1.419   9.758  18.979  0.00  0.00    +0.000 N 
ATOM     21  N   UNL     1       2.028  10.708  18.237  0.00  0.00    +0.000 NA
ENDBRANCH  13  20
ENDBRANCH  12  13
ENDBRANCH   1  12
BRANCH   3  22
ATOM     22  O   UNL     1       5.691   4.267  18.772  0.00  0.00    +0.000 OA
BRANCH  22  23
ATOM     23  C   UNL     1       5.945   4.393  17.425  0.00  0.00    +0.000 A 
ATOM     24  C   UNL     1       5.028   4.033  16.434  0.00  0.00    +0.000 A 
ATOM     25  C   UNL     1       5.406   4.066  15.092  0.00  0.00    +0.000 A 
ATOM     26  C   UNL     1       6.671   4.533  14.736  0.00  0.00    +0.000 A 
ATOM     27  C   UNL     1       7.548   4.990  15.720  0.00  0.00    +0.000 A 
ATOM     28  C   UNL     1       7.186   4.922  17.066  0.00  0.00    +0.000 A 
ENDBRANCH  22  23
ENDBRANCH   3  22
TORSDOF 7
ENDMDL
MODEL 9
REMARK VINA RESULT:      -7.2      3.479      7.055
REMARK  Name = 
REMARK  10 active torsions:
REMARK  status: ('A' for Active; 'I' for Inactive)
REMARK    1  A    between atoms: C_1  and  C_2
REMARK    2  A    between atoms: C_4  and  C_5
REMARK    3  A    between atoms: N_6  and  C_7
REMARK    4  A    between atoms: C_7  and  C_8
REMARK    5  A    between atoms: C_7  and  C_9
REMARK    6  A    between atoms: C_9  and  N_10
REMARK    7  A    between atoms: C_12  and  O_13
REMARK    8  A    between atoms: O_13  and  C_14
REMARK    9  A    between atoms: C_22  and  C_23
REMARK   10  A    between atoms: C_23  and  O_25
REMARK                            x       y       z     vdW  Elec       q    Type
REMARK                         _______ _______ _______ _____ _____    ______ ____
ROOT
ATOM      1  N   UNL     1       2.721   5.897  19.640  0.00  0.00    +0.000 N 
ATOM      2  C   UNL     1       4.089   5.686  19.479  0.00  0.00    +0.000 A 
ATOM      3  C   UNL     1       4.653   4.491  19.232  0.00  0.00    +0.000 A 
ATOM      4  C   UNL     1       3.727   3.305  19.291  0.00  0.00    +0.000 A 
ATOM      5  O   UNL     1       4.114   2.143  19.401  0.00  0.00    +0.000 OA
ATOM      6  C   UNL     1       2.274   3.566  19.176  0.00  0.00    +0.000 A 
ATOM      7  C   UNL     1       1.874   4.833  19.348  0.00  0.00    +0.000 A 
ENDROOT
BRANCH   6   8
ATOM      8  C   UNL     1       1.267   2.509  18.949  0.00  0.00    +0.000 C 
ATOM      9  O   UNL     1       0.097   2.607  19.287  0.00  0.00    +0.000 OA
BRANCH   8  10
ATOM     10  O   UNL     1       1.737   1.417  18.304  0.00  0.00    +0.000 OA
ATOM     11  H   UNL     1       2.701   1.461  18.091  0.00  0.00    +0.000 HD
ENDBRANCH   8  10
ENDBRANCH   6   8
BRANCH   1  12
ATOM     12  C   UNL     1       2.177   7.194  20.103  0.00  0.00    +0.000 C 
BRANCH  12  13
ATOM     13  C   UNL     1       1.604   8.096  18.980  0.00  0.00    +0.000 C 
ATOM     14  C   UNL     1       2.569   8.232  17.795  0.00  0.00    +0.000 C 
BRANCH  13  20
ATOM     15  C   UNL     1       1.128  12.917  19.097  0.00  0.00    +0.000 C 
ATOM     16  C   UNL     1       0.918  11.508  19.506  0.00  0.00    +0.000 A 
ATOM     17  C   UNL     1       0.207  11.018  20.619  0.00  0.00    +0.000 A 
ATOM     18  C   UNL     1       0.343   9.645  20.571  0.00  0.00    +0.000 A 
ATOM     19  C   UNL     1      -0.184   8.612  21.494  0.00  0.00    +0.000 C 
ATOM     20  N   UNL     1       1.114   9.388  19.461  0.00  0.00    +0.000 N 
ATOM     21  N   UNL     1       1.442  10.512  18.788  0.00  0.00    +0.000 NA
ENDBRANCH  13  20
ENDBRANCH  12  13
ENDBRANCH   1  12
BRANCH   3  22
ATOM     22  O   UNL     1       6.023   4.387  19.012  0.00  0.00    +0.000 OA
BRANCH  22  23
ATOM     23  C   UNL     1       6.713   5.485  18.553  0.00  0.00    +0.000 A 
ATOM     24  C   UNL     1       7.798   6.048  19.231  0.00  0.00    +0.000 A 
ATOM     25  C   UNL     1       8.363   7.238  18.772  0.00  0.00    +0.000 A 
ATOM     26  C   UNL     1       7.897   7.821  17.594  0.00  0.00    +0.000 A 
ATOM     27  C   UNL     1       6.883   7.202  16.863  0.00  0.00    +0.000 A 
ATOM     28  C   UNL     1       6.291   6.033  17.341  0.00  0.00    +0.000 A 
ENDBRANCH  22  23
ENDBRANCH   3  22
TORSDOF 7
ENDMDL
