MODEL 1
REMARK VINA RESULT:      -7.2      0.000      0.000
REMARK  Name = 
REMARK  12 active torsions:
REMARK  status: ('A' for Active; 'I' for Inactive)
REMARK    1  A    between atoms: C_2  and  C_3
REMARK    2  A    between atoms: C_2  and  C_4
REMARK    3  A    between atoms: C_7  and  C_8
REMARK    4  A    between atoms: C_8  and  N_9
REMARK    5  A    between atoms: C_12  and  C_13
REMARK    6  A    between atoms: C_12  and  C_17
REMARK    7  A    between atoms: C_13  and  C_14
REMARK    8  A    between atoms: C_14  and  O_15
REMARK    9  A    between atoms: O_15  and  C_16
REMARK   10  A    between atoms: C_17  and  O_19
REMARK   11  A    between atoms: O_19  and  C_20
REMARK   12  A    between atoms: C_20  and  C_21
REMARK                            x       y       z     vdW  Elec       q    Type
REMARK                         _______ _______ _______ _____ _____    ______ ____
ROOT
ATOM      1  N   UNL     1       3.735   5.862  17.748  0.00  0.00    +0.000 NA
ATOM      2  C   UNL     1       4.483   6.961  17.140  0.00  0.00    +0.000 C 
ATOM      3  C   UNL     1       5.154   6.554  15.828  0.00  0.00    +0.000 C 
ATOM      4  C   UNL     1       6.039   5.302  15.982  0.00  0.00    +0.000 C 
ATOM      5  C   UNL     1       5.172   4.178  16.596  0.00  0.00    +0.000 C 
ATOM      6  C   UNL     1       4.457   4.599  17.876  0.00  0.00    +0.000 C 
ENDROOT
BRANCH   4   7
ATOM      7  C   UNL     1       7.235   5.591  16.910  0.00  0.00    +0.000 C 
ATOM      8  O   UNL     1       7.787   4.751  17.612  0.00  0.00    +0.000 OA
BRANCH   7   9
ATOM      9  O   UNL     1       7.628   6.895  16.838  0.00  0.00    +0.000 OA
BRANCH   9  10
ATOM     10  C   UNL     1       7.977   7.508  18.090  0.00  0.00    +0.000 C 
ATOM     11  C   UNL     1       8.146   9.006  17.917  0.00  0.00    +0.000 C 
ENDBRANCH   9  10
ENDBRANCH   7   9
ENDBRANCH   4   7
BRANCH   1  12
ATOM     12  C   UNL     1       3.072   6.271  18.998  0.00  0.00    +0.000 C 
BRANCH  12  16
ATOM     13  C   UNL     1       1.015  10.208  19.085  0.00  0.00    +0.000 C 
ATOM     14  C   UNL     1       1.201   9.481  17.732  0.00  0.00    +0.000 C 
ATOM     15  C   UNL     1       1.951   8.179  17.814  0.00  0.00    +0.000 C 
ATOM     16  C   UNL     1       2.291   7.573  18.971  0.00  0.00    +0.000 C 
ATOM     17  C   UNL     1       1.876   8.174  20.290  0.00  0.00    +0.000 C 
ATOM     18  C   UNL     1       0.732   9.173  20.183  0.00  0.00    +0.000 C 
BRANCH  13  20
ATOM     19  C   UNL     1       0.285  12.635  18.823  0.00  0.00    +0.000 C 
ATOM     20  C   UNL     1      -0.016  11.335  18.995  0.00  0.00    +0.000 C 
ATOM     21  C   UNL     1      -1.457  10.901  19.070  0.00  0.00    +0.000 C 
ENDBRANCH  13  20
ENDBRANCH  12  16
ENDBRANCH   1  12
BRANCH   4  22
ATOM     22  C   UNL     1       6.614   4.849  14.611  0.00  0.00    +0.000 C 
BRANCH  22  23
ATOM     23  C   UNL     1       5.992   3.562  14.069  0.00  0.00    +0.000 C 
BRANCH  23  24
ATOM     24  O   UNL     1       5.758   3.665  12.666  0.00  0.00    +0.000 OA
ATOM     25  C   UNL     1       6.987   3.941  11.993  0.00  0.00    +0.000 C 
ENDBRANCH  23  24
ENDBRANCH  22  23
ENDBRANCH   4  22
TORSDOF 9
ENDMDL
MODEL 2
REMARK VINA RESULT:      -7.1      0.768      1.344
REMARK  Name = 
REMARK  12 active torsions:
REMARK  status: ('A' for Active; 'I' for Inactive)
REMARK    1  A    between atoms: C_2  and  C_3
REMARK    2  A    between atoms: C_2  and  C_4
REMARK    3  A    between atoms: C_7  and  C_8
REMARK    4  A    between atoms: C_8  and  N_9
REMARK    5  A    between atoms: C_12  and  C_13
REMARK    6  A    between atoms: C_12  and  C_17
REMARK    7  A    between atoms: C_13  and  C_14
REMARK    8  A    between atoms: C_14  and  O_15
REMARK    9  A    between atoms: O_15  and  C_16
REMARK   10  A    between atoms: C_17  and  O_19
REMARK   11  A    between atoms: O_19  and  C_20
REMARK   12  A    between atoms: C_20  and  C_21
REMARK                            x       y       z     vdW  Elec       q    Type
REMARK                         _______ _______ _______ _____ _____    ______ ____
ROOT
ATOM      1  N   UNL     1       3.622   6.004  17.933  0.00  0.00    +0.000 NA
ATOM      2  C   UNL     1       4.443   6.979  17.218  0.00  0.00    +0.000 C 
ATOM      3  C   UNL     1       4.873   6.481  15.839  0.00  0.00    +0.000 C 
ATOM      4  C   UNL     1       5.572   5.108  15.900  0.00  0.00    +0.000 C 
ATOM      5  C   UNL     1       4.631   4.126  16.637  0.00  0.00    +0.000 C 
ATOM      6  C   UNL     1       4.156   4.647  17.990  0.00  0.00    +0.000 C 
ENDROOT
BRANCH   4   7
ATOM      7  C   UNL     1       6.907   5.210  16.665  0.00  0.00    +0.000 C 
ATOM      8  O   UNL     1       7.479   4.261  17.190  0.00  0.00    +0.000 OA
BRANCH   7   9
ATOM      9  O   UNL     1       7.393   6.484  16.666  0.00  0.00    +0.000 OA
BRANCH   9  10
ATOM     10  C   UNL     1       7.860   6.969  17.936  0.00  0.00    +0.000 C 
ATOM     11  C   UNL     1       8.066   8.471  17.886  0.00  0.00    +0.000 C 
ENDBRANCH   9  10
ENDBRANCH   7   9
ENDBRANCH   4   7
BRANCH   1  12
ATOM     12  C   UNL     1       3.192   6.506  19.250  0.00  0.00    +0.000 C 
BRANCH  12  16
ATOM     13  C   UNL     1       0.134   9.725  19.091  0.00  0.00    +0.000 C 
ATOM     14  C   UNL     1       0.644   9.231  20.467  0.00  0.00    +0.000 C 
ATOM     15  C   UNL     1       1.643   8.107  20.403  0.00  0.00    +0.000 C 
ATOM     16  C   UNL     1       2.208   7.662  19.261  0.00  0.00    +0.000 C 
ATOM     17  C   UNL     1       1.888   8.329  17.948  0.00  0.00    +0.000 C 
ATOM     18  C   UNL     1       1.299   9.726  18.090  0.00  0.00    +0.000 C 
BRANCH  13  20
ATOM     19  C   UNL     1      -1.261  11.653  18.184  0.00  0.00    +0.000 C 
ATOM     20  C   UNL     1      -0.610  11.057  19.199  0.00  0.00    +0.000 C 
ATOM     21  C   UNL     1      -0.617  11.685  20.568  0.00  0.00    +0.000 C 
ENDBRANCH  13  20
ENDBRANCH  12  16
ENDBRANCH   1  12
BRANCH   4  22
ATOM     22  C   UNL     1       5.894   4.578  14.474  0.00  0.00    +0.000 C 
BRANCH  22  23
ATOM     23  C   UNL     1       7.266   5.000  13.949  0.00  0.00    +0.000 C 
BRANCH  23  24
ATOM     24  O   UNL     1       7.379   4.728  12.553  0.00  0.00    +0.000 OA
ATOM     25  C   UNL     1       6.616   3.566  12.228  0.00  0.00    +0.000 C 
ENDBRANCH  23  24
ENDBRANCH  22  23
ENDBRANCH   4  22
TORSDOF 9
ENDMDL
MODEL 3
REMARK VINA RESULT:      -7.1      3.359      7.953
REMARK  Name = 
REMARK  12 active torsions:
REMARK  status: ('A' for Active; 'I' for Inactive)
REMARK    1  A    between atoms: C_2  and  C_3
REMARK    2  A    between atoms: C_2  and  C_4
REMARK    3  A    between atoms: C_7  and  C_8
REMARK    4  A    between atoms: C_8  and  N_9
REMARK    5  A    between atoms: C_12  and  C_13
REMARK    6  A    between atoms: C_12  and  C_17
REMARK    7  A    between atoms: C_13  and  C_14
REMARK    8  A    between atoms: C_14  and  O_15
REMARK    9  A    between atoms: O_15  and  C_16
REMARK   10  A    between atoms: C_17  and  O_19
REMARK   11  A    between atoms: O_19  and  C_20
REMARK   12  A    between atoms: C_20  and  C_21
REMARK                            x       y       z     vdW  Elec       q    Type
REMARK                         _______ _______ _______ _____ _____    ______ ____
ROOT
ATOM      1  N   UNL     1       5.877   6.235  17.428  0.00  0.00    +0.000 NA
ATOM      2  C   UNL     1       4.630   6.769  16.884  0.00  0.00    +0.000 C 
ATOM      3  C   UNL     1       3.564   6.976  17.959  0.00  0.00    +0.000 C 
ATOM      4  C   UNL     1       3.305   5.701  18.786  0.00  0.00    +0.000 C 
ATOM      5  C   UNL     1       4.660   5.218  19.355  0.00  0.00    +0.000 C 
ATOM      6  C   UNL     1       5.741   5.064  18.290  0.00  0.00    +0.000 C 
ENDROOT
BRANCH   4   7
ATOM      7  C   UNL     1       2.697   4.594  17.902  0.00  0.00    +0.000 C 
ATOM      8  O   UNL     1       1.574   4.635  17.413  0.00  0.00    +0.000 OA
BRANCH   7   9
ATOM      9  O   UNL     1       3.574   3.567  17.704  0.00  0.00    +0.000 OA
BRANCH   9  10
ATOM     10  C   UNL     1       2.991   2.254  17.660  0.00  0.00    +0.000 C 
ATOM     11  C   UNL     1       3.672   1.339  18.660  0.00  0.00    +0.000 C 
ENDBRANCH   9  10
ENDBRANCH   7   9
ENDBRANCH   4   7
BRANCH   1  12
ATOM     12  C   UNL     1       6.905   6.063  16.387  0.00  0.00    +0.000 C 
BRANCH  12  16
ATOM     13  C   UNL     1       6.107   3.329  12.978  0.00  0.00    +0.000 C 
ATOM     14  C   UNL     1       4.971   3.636  13.984  0.00  0.00    +0.000 C 
ATOM     15  C   UNL     1       5.366   4.536  15.124  0.00  0.00    +0.000 C 
ATOM     16  C   UNL     1       6.546   5.187  15.201  0.00  0.00    +0.000 C 
ATOM     17  C   UNL     1       7.546   5.074  14.078  0.00  0.00    +0.000 C 
ATOM     18  C   UNL     1       6.950   4.594  12.763  0.00  0.00    +0.000 C 
BRANCH  13  20
ATOM     19  C   UNL     1       4.424   3.035  11.088  0.00  0.00    +0.000 C 
ATOM     20  C   UNL     1       5.577   2.694  11.691  0.00  0.00    +0.000 C 
ATOM     21  C   UNL     1       6.464   1.644  11.074  0.00  0.00    +0.000 C 
ENDBRANCH  13  20
ENDBRANCH  12  16
ENDBRANCH   1  12
BRANCH   4  22
ATOM     22  C   UNL     1       2.302   5.976  19.941  0.00  0.00    +0.000 C 
BRANCH  22  23
ATOM     23  C   UNL     1       2.254   4.872  20.999  0.00  0.00    +0.000 C 
BRANCH  23  24
ATOM     24  O   UNL     1       1.058   4.105  20.875  0.00  0.00    +0.000 OA
ATOM     25  C   UNL     1       1.321   2.746  21.223  0.00  0.00    +0.000 C 
ENDBRANCH  23  24
ENDBRANCH  22  23
ENDBRANCH   4  22
TORSDOF 9
ENDMDL
MODEL 4
REMARK VINA RESULT:      -6.9      1.358      1.987
REMARK  Name = 
REMARK  12 active torsions:
REMARK  status: ('A' for Active; 'I' for Inactive)
REMARK    1  A    between atoms: C_2  and  C_3
REMARK    2  A    between atoms: C_2  and  C_4
REMARK    3  A    between atoms: C_7  and  C_8
REMARK    4  A    between atoms: C_8  and  N_9
REMARK    5  A    between atoms: C_12  and  C_13
REMARK    6  A    between atoms: C_12  and  C_17
REMARK    7  A    between atoms: C_13  and  C_14
REMARK    8  A    between atoms: C_14  and  O_15
REMARK    9  A    between atoms: O_15  and  C_16
REMARK   10  A    between atoms: C_17  and  O_19
REMARK   11  A    between atoms: O_19  and  C_20
REMARK   12  A    between atoms: C_20  and  C_21
REMARK                            x       y       z     vdW  Elec       q    Type
REMARK                         _______ _______ _______ _____ _____    ______ ____
ROOT
ATOM      1  N   UNL     1       2.900   6.087  18.361  0.00  0.00    +0.000 NA
ATOM      2  C   UNL     1       4.147   6.779  18.037  0.00  0.00    +0.000 C 
ATOM      3  C   UNL     1       4.848   6.181  16.818  0.00  0.00    +0.000 C 
ATOM      4  C   UNL     1       5.079   4.663  16.956  0.00  0.00    +0.000 C 
ATOM      5  C   UNL     1       3.716   3.999  17.262  0.00  0.00    +0.000 C 
ATOM      6  C   UNL     1       2.989   4.631  18.445  0.00  0.00    +0.000 C 
ENDROOT
BRANCH   4   7
ATOM      7  C   UNL     1       6.062   4.364  18.105  0.00  0.00    +0.000 C 
ATOM      8  O   UNL     1       5.775   3.738  19.118  0.00  0.00    +0.000 OA
BRANCH   7   9
ATOM      9  O   UNL     1       7.307   4.859  17.846  0.00  0.00    +0.000 OA
BRANCH   9  10
ATOM     10  C   UNL     1       7.853   5.725  18.856  0.00  0.00    +0.000 C 
ATOM     11  C   UNL     1       7.983   7.140  18.325  0.00  0.00    +0.000 C 
ENDBRANCH   9  10
ENDBRANCH   7   9
ENDBRANCH   4   7
BRANCH   1  12
ATOM     12  C   UNL     1       2.221   6.687  19.521  0.00  0.00    +0.000 C 
BRANCH  12  16
ATOM     13  C   UNL     1       0.574  10.763  18.884  0.00  0.00    +0.000 C 
ATOM     14  C   UNL     1       0.766  10.241  20.328  0.00  0.00    +0.000 C 
ATOM     15  C   UNL     1       1.286   8.833  20.425  0.00  0.00    +0.000 C 
ATOM     16  C   UNL     1       1.731   8.115  19.372  0.00  0.00    +0.000 C 
ATOM     17  C   UNL     1       1.773   8.736  17.998  0.00  0.00    +0.000 C 
ATOM     18  C   UNL     1       1.727  10.258  18.005  0.00  0.00    +0.000 C 
BRANCH  13  20
ATOM     19  C   UNL     1      -0.663  12.891  18.226  0.00  0.00    +0.000 C 
ATOM     20  C   UNL     1       0.363  12.278  18.844  0.00  0.00    +0.000 C 
ATOM     21  C   UNL     1       1.382  13.093  19.597  0.00  0.00    +0.000 C 
ENDBRANCH  13  20
ENDBRANCH  12  16
ENDBRANCH   1  12
BRANCH   4  22
ATOM     22  C   UNL     1       5.688   4.068  15.656  0.00  0.00    +0.000 C 
BRANCH  22  23
ATOM     23  C   UNL     1       6.062   5.116  14.607  0.00  0.00    +0.000 C 
BRANCH  23  24
ATOM     24  O   UNL     1       7.478   5.266  14.525  0.00  0.00    +0.000 OA
ATOM     25  C   UNL     1       7.887   5.220  13.158  0.00  0.00    +0.000 C 
ENDBRANCH  23  24
ENDBRANCH  22  23
ENDBRANCH   4  22
TORSDOF 9
ENDMDL
MODEL 5
REMARK VINA RESULT:      -6.9      1.190      1.627
REMARK  Name = 
REMARK  12 active torsions:
REMARK  status: ('A' for Active; 'I' for Inactive)
REMARK    1  A    between atoms: C_2  and  C_3
REMARK    2  A    between atoms: C_2  and  C_4
REMARK    3  A    between atoms: C_7  and  C_8
REMARK    4  A    between atoms: C_8  and  N_9
REMARK    5  A    between atoms: C_12  and  C_13
REMARK    6  A    between atoms: C_12  and  C_17
REMARK    7  A    between atoms: C_13  and  C_14
REMARK    8  A    between atoms: C_14  and  O_15
REMARK    9  A    between atoms: O_15  and  C_16
REMARK   10  A    between atoms: C_17  and  O_19
REMARK   11  A    between atoms: O_19  and  C_20
REMARK   12  A    between atoms: C_20  and  C_21
REMARK                            x       y       z     vdW  Elec       q    Type
REMARK                         _______ _______ _______ _____ _____    ______ ____
ROOT
ATOM      1  N   UNL     1       2.873   6.169  18.511  0.00  0.00    +0.000 NA
ATOM      2  C   UNL     1       4.089   6.833  18.043  0.00  0.00    +0.000 C 
ATOM      3  C   UNL     1       4.692   6.149  16.817  0.00  0.00    +0.000 C 
ATOM      4  C   UNL     1       4.936   4.643  17.040  0.00  0.00    +0.000 C 
ATOM      5  C   UNL     1       3.602   4.007  17.498  0.00  0.00    +0.000 C 
ATOM      6  C   UNL     1       2.970   4.723  18.688  0.00  0.00    +0.000 C 
ENDROOT
BRANCH   4   7
ATOM      7  C   UNL     1       6.008   4.421  18.126  0.00  0.00    +0.000 C 
ATOM      8  O   UNL     1       5.824   3.796  19.164  0.00  0.00    +0.000 OA
BRANCH   7   9
ATOM      9  O   UNL     1       7.202   4.983  17.780  0.00  0.00    +0.000 OA
BRANCH   9  10
ATOM     10  C   UNL     1       7.780   5.862  18.760  0.00  0.00    +0.000 C 
ATOM     11  C   UNL     1       7.912   7.265  18.198  0.00  0.00    +0.000 C 
ENDBRANCH   9  10
ENDBRANCH   7   9
ENDBRANCH   4   7
BRANCH   1  12
ATOM     12  C   UNL     1       2.287   6.851  19.677  0.00  0.00    +0.000 C 
BRANCH  12  16
ATOM     13  C   UNL     1       0.670  10.960  19.193  0.00  0.00    +0.000 C 
ATOM     14  C   UNL     1       1.084  10.157  17.936  0.00  0.00    +0.000 C 
ATOM     15  C   UNL     1       1.661   8.796  18.221  0.00  0.00    +0.000 C 
ATOM     16  C   UNL     1       1.667   8.216  19.440  0.00  0.00    +0.000 C 
ATOM     17  C   UNL     1       1.026   8.914  20.612  0.00  0.00    +0.000 C 
ATOM     18  C   UNL     1       0.042  10.008  20.220  0.00  0.00    +0.000 C 
BRANCH  13  20
ATOM     19  C   UNL     1      -1.361  12.109  18.170  0.00  0.00    +0.000 C 
ATOM     20  C   UNL     1      -0.196  12.171  18.840  0.00  0.00    +0.000 C 
ATOM     21  C   UNL     1       0.318  13.500  19.331  0.00  0.00    +0.000 C 
ENDBRANCH  13  20
ENDBRANCH  12  16
ENDBRANCH   1  12
BRANCH   4  22
ATOM     22  C   UNL     1       5.442   3.957  15.741  0.00  0.00    +0.000 C 
BRANCH  22  23
ATOM     23  C   UNL     1       5.747   4.930  14.602  0.00  0.00    +0.000 C 
BRANCH  23  24
ATOM     24  O   UNL     1       6.729   4.387  13.722  0.00  0.00    +0.000 OA
ATOM     25  C   UNL     1       6.102   3.511  12.785  0.00  0.00    +0.000 C 
ENDBRANCH  23  24
ENDBRANCH  22  23
ENDBRANCH   4  22
TORSDOF 9
ENDMDL
MODEL 6
REMARK VINA RESULT:      -6.7      0.841      1.052
REMARK  Name = 
REMARK  12 active torsions:
REMARK  status: ('A' for Active; 'I' for Inactive)
REMARK    1  A    between atoms: C_2  and  C_3
REMARK    2  A    between atoms: C_2  and  C_4
REMARK    3  A    between atoms: C_7  and  C_8
REMARK    4  A    between atoms: C_8  and  N_9
REMARK    5  A    between atoms: C_12  and  C_13
REMARK    6  A    between atoms: C_12  and  C_17
REMARK    7  A    between atoms: C_13  and  C_14
REMARK    8  A    between atoms: C_14  and  O_15
REMARK    9  A    between atoms: O_15  and  C_16
REMARK   10  A    between atoms: C_17  and  O_19
REMARK   11  A    between atoms: O_19  and  C_20
REMARK   12  A    between atoms: C_20  and  C_21
REMARK                            x       y       z     vdW  Elec       q    Type
REMARK                         _______ _______ _______ _____ _____    ______ ____
ROOT
ATOM      1  N   UNL     1       3.488   5.576  18.336  0.00  0.00    +0.000 NA
ATOM      2  C   UNL     1       4.331   6.580  17.687  0.00  0.00    +0.000 C 
ATOM      3  C   UNL     1       5.066   6.025  16.467  0.00  0.00    +0.000 C 
ATOM      4  C   UNL     1       5.872   4.752  16.792  0.00  0.00    +0.000 C 
ATOM      5  C   UNL     1       4.909   3.730  17.440  0.00  0.00    +0.000 C 
ATOM      6  C   UNL     1       4.134   4.299  18.624  0.00  0.00    +0.000 C 
ENDROOT
BRANCH   4   7
ATOM      7  C   UNL     1       7.018   5.069  17.774  0.00  0.00    +0.000 C 
ATOM      8  O   UNL     1       7.939   4.304  18.034  0.00  0.00    +0.000 OA
BRANCH   7   9
ATOM      9  O   UNL     1       6.899   6.321  18.302  0.00  0.00    +0.000 OA
BRANCH   9  10
ATOM     10  C   UNL     1       8.133   7.034  18.491  0.00  0.00    +0.000 C 
ATOM     11  C   UNL     1       8.071   8.388  17.809  0.00  0.00    +0.000 C 
ENDBRANCH   9  10
ENDBRANCH   7   9
ENDBRANCH   4   7
BRANCH   1  12
ATOM     12  C   UNL     1       2.766   6.128  19.494  0.00  0.00    +0.000 C 
BRANCH  12  16
ATOM     13  C   UNL     1       1.030  10.201  19.122  0.00  0.00    +0.000 C 
ATOM     14  C   UNL     1       1.209   9.334  17.852  0.00  0.00    +0.000 C 
ATOM     15  C   UNL     1       1.848   7.993  18.089  0.00  0.00    +0.000 C 
ATOM     16  C   UNL     1       2.094   7.477  19.312  0.00  0.00    +0.000 C 
ATOM     17  C   UNL     1       1.679   8.232  20.549  0.00  0.00    +0.000 C 
ATOM     18  C   UNL     1       0.623   9.300  20.297  0.00  0.00    +0.000 C 
BRANCH  13  20
ATOM     19  C   UNL     1      -1.076  11.318  18.225  0.00  0.00    +0.000 C 
ATOM     20  C   UNL     1       0.097  11.388  18.880  0.00  0.00    +0.000 C 
ATOM     21  C   UNL     1       0.550  12.698  19.470  0.00  0.00    +0.000 C 
ENDBRANCH  13  20
ENDBRANCH  12  16
ENDBRANCH   1  12
BRANCH   4  22
ATOM     22  C   UNL     1       6.512   4.151  15.510  0.00  0.00    +0.000 C 
BRANCH  22  23
ATOM     23  C   UNL     1       5.685   4.365  14.242  0.00  0.00    +0.000 C 
BRANCH  23  24
ATOM     24  O   UNL     1       6.302   3.731  13.123  0.00  0.00    +0.000 OA
ATOM     25  C   UNL     1       5.304   3.357  12.173  0.00  0.00    +0.000 C 
ENDBRANCH  23  24
ENDBRANCH  22  23
ENDBRANCH   4  22
TORSDOF 9
ENDMDL
MODEL 7
REMARK VINA RESULT:      -6.7      2.027      3.717
REMARK  Name = 
REMARK  12 active torsions:
REMARK  status: ('A' for Active; 'I' for Inactive)
REMARK    1  A    between atoms: C_2  and  C_3
REMARK    2  A    between atoms: C_2  and  C_4
REMARK    3  A    between atoms: C_7  and  C_8
REMARK    4  A    between atoms: C_8  and  N_9
REMARK    5  A    between atoms: C_12  and  C_13
REMARK    6  A    between atoms: C_12  and  C_17
REMARK    7  A    between atoms: C_13  and  C_14
REMARK    8  A    between atoms: C_14  and  O_15
REMARK    9  A    between atoms: O_15  and  C_16
REMARK   10  A    between atoms: C_17  and  O_19
REMARK   11  A    between atoms: O_19  and  C_20
REMARK   12  A    between atoms: C_20  and  C_21
REMARK                            x       y       z     vdW  Elec       q    Type
REMARK                         _______ _______ _______ _____ _____    ______ ____
ROOT
ATOM      1  N   UNL     1       2.982   6.415  19.066  0.00  0.00    +0.000 NA
ATOM      2  C   UNL     1       4.279   6.014  19.610  0.00  0.00    +0.000 C 
ATOM      3  C   UNL     1       5.238   5.518  18.529  0.00  0.00    +0.000 C 
ATOM      4  C   UNL     1       4.628   4.393  17.669  0.00  0.00    +0.000 C 
ATOM      5  C   UNL     1       3.281   4.902  17.103  0.00  0.00    +0.000 C 
ATOM      6  C   UNL     1       2.344   5.449  18.176  0.00  0.00    +0.000 C 
ENDROOT
BRANCH   4   7
ATOM      7  C   UNL     1       4.380   3.132  18.521  0.00  0.00    +0.000 C 
ATOM      8  O   UNL     1       4.998   2.852  19.542  0.00  0.00    +0.000 OA
BRANCH   7   9
ATOM      9  O   UNL     1       3.366   2.372  18.015  0.00  0.00    +0.000 OA
BRANCH   9  10
ATOM     10  C   UNL     1       2.501   1.765  18.990  0.00  0.00    +0.000 C 
ATOM     11  C   UNL     1       1.074   2.245  18.802  0.00  0.00    +0.000 C 
ENDBRANCH   9  10
ENDBRANCH   7   9
ENDBRANCH   4   7
BRANCH   1  12
ATOM     12  C   UNL     1       2.076   6.914  20.113  0.00  0.00    +0.000 C 
BRANCH  12  16
ATOM     13  C   UNL     1       0.213  10.871  19.330  0.00  0.00    +0.000 C 
ATOM     14  C   UNL     1       0.274  10.336  20.782  0.00  0.00    +0.000 C 
ATOM     15  C   UNL     1       0.883   8.968  20.924  0.00  0.00    +0.000 C 
ATOM     16  C   UNL     1       1.500   8.306  19.922  0.00  0.00    +0.000 C 
ATOM     17  C   UNL     1       1.655   8.955  18.570  0.00  0.00    +0.000 C 
ATOM     18  C   UNL     1       1.495  10.469  18.587  0.00  0.00    +0.000 C 
BRANCH  13  20
ATOM     19  C   UNL     1      -0.398  13.050  18.161  0.00  0.00    +0.000 C 
ATOM     20  C   UNL     1      -0.105  12.367  19.282  0.00  0.00    +0.000 C 
ATOM     21  C   UNL     1      -0.115  13.069  20.615  0.00  0.00    +0.000 C 
ENDBRANCH  13  20
ENDBRANCH  12  16
ENDBRANCH   1  12
BRANCH   4  22
ATOM     22  C   UNL     1       5.582   3.991  16.510  0.00  0.00    +0.000 C 
BRANCH  22  23
ATOM     23  C   UNL     1       7.001   4.543  16.652  0.00  0.00    +0.000 C 
BRANCH  23  24
ATOM     24  O   UNL     1       7.570   4.810  15.372  0.00  0.00    +0.000 OA
ATOM     25  C   UNL     1       6.580   4.627  14.360  0.00  0.00    +0.000 C 
ENDBRANCH  23  24
ENDBRANCH  22  23
ENDBRANCH   4  22
TORSDOF 9
ENDMDL
MODEL 8
REMARK VINA RESULT:      -6.7      2.807      8.149
REMARK  Name = 
REMARK  12 active torsions:
REMARK  status: ('A' for Active; 'I' for Inactive)
REMARK    1  A    between atoms: C_2  and  C_3
REMARK    2  A    between atoms: C_2  and  C_4
REMARK    3  A    between atoms: C_7  and  C_8
REMARK    4  A    between atoms: C_8  and  N_9
REMARK    5  A    between atoms: C_12  and  C_13
REMARK    6  A    between atoms: C_12  and  C_17
REMARK    7  A    between atoms: C_13  and  C_14
REMARK    8  A    between atoms: C_14  and  O_15
REMARK    9  A    between atoms: O_15  and  C_16
REMARK   10  A    between atoms: C_17  and  O_19
REMARK   11  A    between atoms: O_19  and  C_20
REMARK   12  A    between atoms: C_20  and  C_21
REMARK                            x       y       z     vdW  Elec       q    Type
REMARK                         _______ _______ _______ _____ _____    ______ ____
ROOT
ATOM      1  N   UNL     1       5.847   6.188  17.613  0.00  0.00    +0.000 NA
ATOM      2  C   UNL     1       4.598   6.528  16.935  0.00  0.00    +0.000 C 
ATOM      3  C   UNL     1       3.477   6.872  17.915  0.00  0.00    +0.000 C 
ATOM      4  C   UNL     1       3.252   5.767  18.966  0.00  0.00    +0.000 C 
ATOM      5  C   UNL     1       4.605   5.488  19.662  0.00  0.00    +0.000 C 
ATOM      6  C   UNL     1       5.738   5.199  18.682  0.00  0.00    +0.000 C 
ENDROOT
BRANCH   4   7
ATOM      7  C   UNL     1       2.745   4.474  18.297  0.00  0.00    +0.000 C 
ATOM      8  O   UNL     1       2.274   4.417  17.166  0.00  0.00    +0.000 OA
BRANCH   7   9
ATOM      9  O   UNL     1       2.908   3.388  19.106  0.00  0.00    +0.000 OA
BRANCH   9  10
ATOM     10  C   UNL     1       1.700   2.696  19.467  0.00  0.00    +0.000 C 
ATOM     11  C   UNL     1       1.539   2.665  20.975  0.00  0.00    +0.000 C 
ENDBRANCH   9  10
ENDBRANCH   7   9
ENDBRANCH   4   7
BRANCH   1  12
ATOM     12  C   UNL     1       6.927   5.883  16.659  0.00  0.00    +0.000 C 
BRANCH  12  16
ATOM     13  C   UNL     1       6.105   3.351  13.102  0.00  0.00    +0.000 C 
ATOM     14  C   UNL     1       5.019   3.495  14.196  0.00  0.00    +0.000 C 
ATOM     15  C   UNL     1       5.422   4.338  15.376  0.00  0.00    +0.000 C 
ATOM     16  C   UNL     1       6.555   5.070  15.432  0.00  0.00    +0.000 C 
ATOM     17  C   UNL     1       7.484   5.118  14.245  0.00  0.00    +0.000 C 
ATOM     18  C   UNL     1       6.838   4.690  12.935  0.00  0.00    +0.000 C 
BRANCH  13  20
ATOM     19  C   UNL     1       4.373   3.147  11.245  0.00  0.00    +0.000 C 
ATOM     20  C   UNL     1       5.538   2.773  11.804  0.00  0.00    +0.000 C 
ATOM     21  C   UNL     1       6.401   1.742  11.123  0.00  0.00    +0.000 C 
ENDBRANCH  13  20
ENDBRANCH  12  16
ENDBRANCH   1  12
BRANCH   4  22
ATOM     22  C   UNL     1       2.187   6.195  20.013  0.00  0.00    +0.000 C 
BRANCH  22  23
ATOM     23  C   UNL     1       1.902   7.698  20.033  0.00  0.00    +0.000 C 
BRANCH  23  24
ATOM     24  O   UNL     1       1.505   8.121  21.335  0.00  0.00    +0.000 OA
ATOM     25  C   UNL     1       0.254   8.804  21.257  0.00  0.00    +0.000 C 
ENDBRANCH  23  24
ENDBRANCH  22  23
ENDBRANCH   4  22
TORSDOF 9
ENDMDL
MODEL 9
REMARK VINA RESULT:      -6.6      1.069      1.361
REMARK  Name = 
REMARK  12 active torsions:
REMARK  status: ('A' for Active; 'I' for Inactive)
REMARK    1  A    between atoms: C_2  and  C_3
REMARK    2  A    between atoms: C_2  and  C_4
REMARK    3  A    between atoms: C_7  and  C_8
REMARK    4  A    between atoms: C_8  and  N_9
REMARK    5  A    between atoms: C_12  and  C_13
REMARK    6  A    between atoms: C_12  and  C_17
REMARK    7  A    between atoms: C_13  and  C_14
REMARK    8  A    between atoms: C_14  and  O_15
REMARK    9  A    between atoms: O_15  and  C_16
REMARK   10  A    between atoms: C_17  and  O_19
REMARK   11  A    between atoms: O_19  and  C_20
REMARK   12  A    between atoms: C_20  and  C_21
REMARK                            x       y       z     vdW  Elec       q    Type
REMARK                         _______ _______ _______ _____ _____    ______ ____
ROOT
ATOM      1  N   UNL     1       3.673   5.938  17.648  0.00  0.00    +0.000 NA
ATOM      2  C   UNL     1       4.422   7.041  17.048  0.00  0.00    +0.000 C 
ATOM      3  C   UNL     1       4.955   6.698  15.658  0.00  0.00    +0.000 C 
ATOM      4  C   UNL     1       5.783   5.398  15.647  0.00  0.00    +0.000 C 
ATOM      5  C   UNL     1       4.914   4.275  16.262  0.00  0.00    +0.000 C 
ATOM      6  C   UNL     1       4.336   4.637  17.626  0.00  0.00    +0.000 C 
ENDROOT
BRANCH   4   7
ATOM      7  C   UNL     1       7.069   5.564  16.482  0.00  0.00    +0.000 C 
ATOM      8  O   UNL     1       7.795   6.551  16.446  0.00  0.00    +0.000 OA
BRANCH   7   9
ATOM      9  O   UNL     1       7.289   4.489  17.291  0.00  0.00    +0.000 OA
BRANCH   9  10
ATOM     10  C   UNL     1       7.999   4.765  18.510  0.00  0.00    +0.000 C 
ATOM     11  C   UNL     1       7.114   5.530  19.476  0.00  0.00    +0.000 C 
ENDBRANCH   9  10
ENDBRANCH   7   9
ENDBRANCH   4   7
BRANCH   1  12
ATOM     12  C   UNL     1       3.143   6.289  18.976  0.00  0.00    +0.000 C 
BRANCH  12  16
ATOM     13  C   UNL     1       0.840  10.060  19.435  0.00  0.00    +0.000 C 
ATOM     14  C   UNL     1       1.103   9.501  18.016  0.00  0.00    +0.000 C 
ATOM     15  C   UNL     1       1.932   8.246  17.977  0.00  0.00    +0.000 C 
ATOM     16  C   UNL     1       2.283   7.535  19.070  0.00  0.00    +0.000 C 
ATOM     17  C   UNL     1       1.800   7.959  20.434  0.00  0.00    +0.000 C 
ATOM     18  C   UNL     1       0.597   8.893  20.403  0.00  0.00    +0.000 C 
BRANCH  13  20
ATOM     19  C   UNL     1      -1.219  11.234  18.504  0.00  0.00    +0.000 C 
ATOM     20  C   UNL     1      -0.258  11.125  19.438  0.00  0.00    +0.000 C 
ATOM     21  C   UNL     1      -0.240  12.070  20.612  0.00  0.00    +0.000 C 
ENDBRANCH  13  20
ENDBRANCH  12  16
ENDBRANCH   1  12
BRANCH   4  22
ATOM     22  C   UNL     1       6.213   5.017  14.203  0.00  0.00    +0.000 C 
BRANCH  22  23
ATOM     23  C   UNL     1       5.620   3.699  13.704  0.00  0.00    +0.000 C 
BRANCH  23  24
ATOM     24  O   UNL     1       6.171   3.344  12.438  0.00  0.00    +0.000 OA
ATOM     25  C   UNL     1       7.182   4.284  12.074  0.00  0.00    +0.000 C 
ENDBRANCH  23  24
ENDBRANCH  22  23
ENDBRANCH   4  22
TORSDOF 9
ENDMDL
