MODEL 1
REMARK VINA RESULT:      -9.8      0.000      0.000
REMARK  Name = 
REMARK  6 active torsions:
REMARK  status: ('A' for Active; 'I' for Inactive)
REMARK    1  A    between atoms: C_2  and  O_3
REMARK    2  A    between atoms: C_2  and  C_4
REMARK    3  A    between atoms: C_8  and  S_9
REMARK    4  A    between atoms: C_16  and  C_17
REMARK    5  A    between atoms: C_17  and  C_18
REMARK    6  A    between atoms: C_26  and  C_27
REMARK                            x       y       z     vdW  Elec       q    Type
REMARK                         _______ _______ _______ _____ _____    ______ ____
ROOT
ATOM      1  C   UNL     1       2.537   3.969  20.530  0.00  0.00    +0.000 C 
ATOM      2  C   UNL     1       2.031   5.177  20.845  0.00  0.00    +0.000 C 
ATOM      3  C   UNL     1       2.138   6.286  19.883  0.00  0.00    +0.000 A 
ATOM      4  C   UNL     1       1.487   7.485  20.131  0.00  0.00    +0.000 A 
ATOM      5  C   UNL     1       1.634   8.574  19.256  0.00  0.00    +0.000 A 
ATOM      6  C   UNL     1       2.490   8.415  18.136  0.00  0.00    +0.000 A 
ATOM      7  C   UNL     1       3.178   7.209  17.885  0.00  0.00    +0.000 A 
ATOM      8  C   UNL     1       2.967   6.131  18.761  0.00  0.00    +0.000 A 
ATOM      9  O   UNL     1       3.552   4.924  18.562  0.00  0.00    +0.000 OA
ATOM     10  C   UNL     1       2.996   3.759  19.087  0.00  0.00    +0.000 C 
ENDROOT
BRANCH   5  11
ATOM     11  S   UNL     1       0.731  10.141  19.568  0.00  0.00    +0.000 S 
ATOM     12  F   UNL     1      -0.564   9.327  20.340  0.00  0.00    +0.000 F 
ATOM     13  F   UNL     1      -0.070   9.946  18.070  0.00  0.00    +0.000 F 
ATOM     14  F   UNL     1      -0.124  11.594  19.846  0.00  0.00    +0.000 F 
ATOM     15  F   UNL     1       1.969  11.055  18.824  0.00  0.00    +0.000 F 
ATOM     16  F   UNL     1       1.531  10.323  21.071  0.00  0.00    +0.000 F 
ENDBRANCH   5  11
BRANCH  10  17
ATOM     17  C   UNL     1       1.761   3.314  18.230  0.00  0.00    +0.000 C 
ATOM     18  F   UNL     1       0.668   2.971  19.018  0.00  0.00    +0.000 F 
ATOM     19  F   UNL     1       1.353   4.322  17.373  0.00  0.00    +0.000 F 
ATOM     20  F   UNL     1       2.094   2.209  17.472  0.00  0.00    +0.000 F 
ENDBRANCH  10  17
BRANCH   1  22
ATOM     21  O   UNL     1       3.526   2.136  21.601  0.00  0.00    +0.000 OA
ATOM     22  C   UNL     1       2.525   2.825  21.488  0.00  0.00    +0.000 C 
BRANCH  22  23
ATOM     23  O   UNL     1       1.446   2.515  22.244  0.00  0.00    +0.000 OA
ATOM     24  H   UNL     1       0.537   2.742  22.015  0.00  0.00    +0.000 HD
ENDBRANCH  22  23
ENDBRANCH   1  22
BRANCH   7  25
ATOM     25  C   UNL     1       4.081   7.099  16.662  0.00  0.00    +0.000 C 
BRANCH  25  26
ATOM     26  C   UNL     1       5.335   6.268  16.867  0.00  0.00    +0.000 A 
ATOM     27  C   UNL     1       6.299   6.653  17.819  0.00  0.00    +0.000 A 
ATOM     28  C   UNL     1       7.423   5.852  18.056  0.00  0.00    +0.000 A 
ATOM     29  C   UNL     1       7.600   4.662  17.347  0.00  0.00    +0.000 A 
ATOM     30  C   UNL     1       6.655   4.274  16.394  0.00  0.00    +0.000 A 
ATOM     31  C   UNL     1       5.526   5.069  16.154  0.00  0.00    +0.000 A 
ENDBRANCH  25  26
ENDBRANCH   7  25
TORSDOF 6
ENDMDL
MODEL 2
REMARK VINA RESULT:      -9.8      0.108      1.265
REMARK  Name = 
REMARK  6 active torsions:
REMARK  status: ('A' for Active; 'I' for Inactive)
REMARK    1  A    between atoms: C_2  and  O_3
REMARK    2  A    between atoms: C_2  and  C_4
REMARK    3  A    between atoms: C_8  and  S_9
REMARK    4  A    between atoms: C_16  and  C_17
REMARK    5  A    between atoms: C_17  and  C_18
REMARK    6  A    between atoms: C_26  and  C_27
REMARK                            x       y       z     vdW  Elec       q    Type
REMARK                         _______ _______ _______ _____ _____    ______ ____
ROOT
ATOM      1  C   UNL     1       2.489   3.990  20.578  0.00  0.00    +0.000 C 
ATOM      2  C   UNL     1       1.979   5.194  20.897  0.00  0.00    +0.000 C 
ATOM      3  C   UNL     1       2.087   6.308  19.941  0.00  0.00    +0.000 A 
ATOM      4  C   UNL     1       1.433   7.505  20.193  0.00  0.00    +0.000 A 
ATOM      5  C   UNL     1       1.581   8.598  19.324  0.00  0.00    +0.000 A 
ATOM      6  C   UNL     1       2.441   8.447  18.205  0.00  0.00    +0.000 A 
ATOM      7  C   UNL     1       3.132   7.244  17.951  0.00  0.00    +0.000 A 
ATOM      8  C   UNL     1       2.921   6.160  18.822  0.00  0.00    +0.000 A 
ATOM      9  O   UNL     1       3.509   4.956  18.618  0.00  0.00    +0.000 OA
ATOM     10  C   UNL     1       2.954   3.787  19.136  0.00  0.00    +0.000 C 
ENDROOT
BRANCH   5  11
ATOM     11  S   UNL     1       0.673  10.162  19.640  0.00  0.00    +0.000 S 
ATOM     12  F   UNL     1       1.481  10.417  21.128  0.00  0.00    +0.000 F 
ATOM     13  F   UNL     1      -0.525   9.267  20.470  0.00  0.00    +0.000 F 
ATOM     14  F   UNL     1      -0.182  11.609  19.949  0.00  0.00    +0.000 F 
ATOM     15  F   UNL     1      -0.188  10.011  18.170  0.00  0.00    +0.000 F 
ATOM     16  F   UNL     1       1.881  11.051  18.814  0.00  0.00    +0.000 F 
ENDBRANCH   5  11
BRANCH  10  17
ATOM     17  C   UNL     1       1.723   3.344  18.273  0.00  0.00    +0.000 C 
ATOM     18  F   UNL     1       0.625   3.001  19.055  0.00  0.00    +0.000 F 
ATOM     19  F   UNL     1       1.320   4.353  17.414  0.00  0.00    +0.000 F 
ATOM     20  F   UNL     1       2.058   2.239  17.515  0.00  0.00    +0.000 F 
ENDBRANCH  10  17
BRANCH   1  22
ATOM     21  O   UNL     1       3.484   2.163  21.656  0.00  0.00    +0.000 OA
ATOM     22  C   UNL     1       2.477   2.840  21.531  0.00  0.00    +0.000 C 
BRANCH  22  23
ATOM     23  O   UNL     1       1.390   2.514  22.268  0.00  0.00    +0.000 OA
ATOM     24  H   UNL     1       1.083   1.612  22.417  0.00  0.00    +0.000 HD
ENDBRANCH  22  23
ENDBRANCH   1  22
BRANCH   7  25
ATOM     25  C   UNL     1       4.040   7.141  16.731  0.00  0.00    +0.000 C 
BRANCH  25  26
ATOM     26  C   UNL     1       5.248   6.240  16.908  0.00  0.00    +0.000 A 
ATOM     27  C   UNL     1       5.373   5.057  16.154  0.00  0.00    +0.000 A 
ATOM     28  C   UNL     1       6.519   4.259  16.267  0.00  0.00    +0.000 A 
ATOM     29  C   UNL     1       7.550   4.630  17.131  0.00  0.00    +0.000 A 
ATOM     30  C   UNL     1       7.435   5.798  17.891  0.00  0.00    +0.000 A 
ATOM     31  C   UNL     1       6.292   6.602  17.780  0.00  0.00    +0.000 A 
ENDBRANCH  25  26
ENDBRANCH   7  25
TORSDOF 6
ENDMDL
MODEL 3
REMARK VINA RESULT:      -9.7      0.096      1.138
REMARK  Name = 
REMARK  6 active torsions:
REMARK  status: ('A' for Active; 'I' for Inactive)
REMARK    1  A    between atoms: C_2  and  O_3
REMARK    2  A    between atoms: C_2  and  C_4
REMARK    3  A    between atoms: C_8  and  S_9
REMARK    4  A    between atoms: C_16  and  C_17
REMARK    5  A    between atoms: C_17  and  C_18
REMARK    6  A    between atoms: C_26  and  C_27
REMARK                            x       y       z     vdW  Elec       q    Type
REMARK                         _______ _______ _______ _____ _____    ______ ____
ROOT
ATOM      1  C   UNL     1       2.471   4.002  20.574  0.00  0.00    +0.000 C 
ATOM      2  C   UNL     1       1.963   5.209  20.885  0.00  0.00    +0.000 C 
ATOM      3  C   UNL     1       2.080   6.319  19.925  0.00  0.00    +0.000 A 
ATOM      4  C   UNL     1       1.429   7.519  20.169  0.00  0.00    +0.000 A 
ATOM      5  C   UNL     1       1.586   8.608  19.296  0.00  0.00    +0.000 A 
ATOM      6  C   UNL     1       2.451   8.450  18.183  0.00  0.00    +0.000 A 
ATOM      7  C   UNL     1       3.140   7.243  17.937  0.00  0.00    +0.000 A 
ATOM      8  C   UNL     1       2.920   6.164  18.811  0.00  0.00    +0.000 A 
ATOM      9  O   UNL     1       3.505   4.957  18.616  0.00  0.00    +0.000 OA
ATOM     10  C   UNL     1       2.943   3.792  19.135  0.00  0.00    +0.000 C 
ENDROOT
BRANCH   5  11
ATOM     11  S   UNL     1       0.681  10.176  19.600  0.00  0.00    +0.000 S 
ATOM     12  F   UNL     1      -0.614   9.365  20.374  0.00  0.00    +0.000 F 
ATOM     13  F   UNL     1      -0.118   9.976  18.102  0.00  0.00    +0.000 F 
ATOM     14  F   UNL     1      -0.174  11.631  19.872  0.00  0.00    +0.000 F 
ATOM     15  F   UNL     1       1.920  11.088  18.854  0.00  0.00    +0.000 F 
ATOM     16  F   UNL     1       1.479  10.365  21.103  0.00  0.00    +0.000 F 
ENDBRANCH   5  11
BRANCH  10  17
ATOM     17  C   UNL     1       1.715   3.350  18.266  0.00  0.00    +0.000 C 
ATOM     18  F   UNL     1       1.302   4.346  17.390  0.00  0.00    +0.000 F 
ATOM     19  F   UNL     1       2.012   2.229  17.509  0.00  0.00    +0.000 F 
ATOM     20  F   UNL     1       0.648   3.047  19.088  0.00  0.00    +0.000 F 
ENDBRANCH  10  17
BRANCH   1  22
ATOM     21  O   UNL     1       3.454   2.179  21.668  0.00  0.00    +0.000 OA
ATOM     22  C   UNL     1       2.449   2.856  21.531  0.00  0.00    +0.000 C 
BRANCH  22  23
ATOM     23  O   UNL     1       1.355   2.534  22.259  0.00  0.00    +0.000 OA
ATOM     24  H   UNL     1       0.719   3.174  22.601  0.00  0.00    +0.000 HD
ENDBRANCH  22  23
ENDBRANCH   1  22
BRANCH   7  25
ATOM     25  C   UNL     1       4.055   7.133  16.723  0.00  0.00    +0.000 C 
BRANCH  25  26
ATOM     26  C   UNL     1       5.260   6.230  16.911  0.00  0.00    +0.000 A 
ATOM     27  C   UNL     1       5.391   5.047  16.158  0.00  0.00    +0.000 A 
ATOM     28  C   UNL     1       6.535   4.248  16.282  0.00  0.00    +0.000 A 
ATOM     29  C   UNL     1       7.558   4.618  17.157  0.00  0.00    +0.000 A 
ATOM     30  C   UNL     1       7.437   5.785  17.916  0.00  0.00    +0.000 A 
ATOM     31  C   UNL     1       6.296   6.590  17.795  0.00  0.00    +0.000 A 
ENDBRANCH  25  26
ENDBRANCH   7  25
TORSDOF 6
ENDMDL
MODEL 4
REMARK VINA RESULT:      -9.7      0.047      1.443
REMARK  Name = 
REMARK  6 active torsions:
REMARK  status: ('A' for Active; 'I' for Inactive)
REMARK    1  A    between atoms: C_2  and  O_3
REMARK    2  A    between atoms: C_2  and  C_4
REMARK    3  A    between atoms: C_8  and  S_9
REMARK    4  A    between atoms: C_16  and  C_17
REMARK    5  A    between atoms: C_17  and  C_18
REMARK    6  A    between atoms: C_26  and  C_27
REMARK                            x       y       z     vdW  Elec       q    Type
REMARK                         _______ _______ _______ _____ _____    ______ ____
ROOT
ATOM      1  C   UNL     1       2.516   3.985  20.547  0.00  0.00    +0.000 C 
ATOM      2  C   UNL     1       2.012   5.194  20.856  0.00  0.00    +0.000 C 
ATOM      3  C   UNL     1       2.123   6.299  19.889  0.00  0.00    +0.000 A 
ATOM      4  C   UNL     1       1.475   7.501  20.131  0.00  0.00    +0.000 A 
ATOM      5  C   UNL     1       1.626   8.585  19.252  0.00  0.00    +0.000 A 
ATOM      6  C   UNL     1       2.483   8.420  18.133  0.00  0.00    +0.000 A 
ATOM      7  C   UNL     1       3.169   7.212  17.889  0.00  0.00    +0.000 A 
ATOM      8  C   UNL     1       2.954   6.137  18.770  0.00  0.00    +0.000 A 
ATOM      9  O   UNL     1       3.536   4.928  18.577  0.00  0.00    +0.000 OA
ATOM     10  C   UNL     1       2.977   3.767  19.106  0.00  0.00    +0.000 C 
ENDROOT
BRANCH   5  11
ATOM     11  S   UNL     1       0.725  10.156  19.555  0.00  0.00    +0.000 S 
ATOM     12  F   UNL     1       1.955  11.090  18.815  0.00  0.00    +0.000 F 
ATOM     13  F   UNL     1       1.542  10.305  21.049  0.00  0.00    +0.000 F 
ATOM     14  F   UNL     1      -0.100  11.623  19.849  0.00  0.00    +0.000 F 
ATOM     15  F   UNL     1      -0.565   9.322  20.306  0.00  0.00    +0.000 F 
ATOM     16  F   UNL     1      -0.082  10.003  18.053  0.00  0.00    +0.000 F 
ENDBRANCH   5  11
BRANCH  10  17
ATOM     17  C   UNL     1       1.743   3.321  18.249  0.00  0.00    +0.000 C 
ATOM     18  F   UNL     1       1.361   4.290  17.329  0.00  0.00    +0.000 F 
ATOM     19  F   UNL     1       2.013   2.162  17.542  0.00  0.00    +0.000 F 
ATOM     20  F   UNL     1       0.663   3.082  19.077  0.00  0.00    +0.000 F 
ENDBRANCH  10  17
BRANCH   1  22
ATOM     21  O   UNL     1       3.508   2.171  21.649  0.00  0.00    +0.000 OA
ATOM     22  C   UNL     1       2.500   2.844  21.511  0.00  0.00    +0.000 C 
BRANCH  22  23
ATOM     23  O   UNL     1       1.409   2.522  22.244  0.00  0.00    +0.000 OA
ATOM     24  H   UNL     1       1.414   1.909  22.989  0.00  0.00    +0.000 HD
ENDBRANCH  22  23
ENDBRANCH   1  22
BRANCH   7  25
ATOM     25  C   UNL     1       4.074   7.094  16.669  0.00  0.00    +0.000 C 
BRANCH  25  26
ATOM     26  C   UNL     1       5.324   6.259  16.878  0.00  0.00    +0.000 A 
ATOM     27  C   UNL     1       6.309   6.666  17.800  0.00  0.00    +0.000 A 
ATOM     28  C   UNL     1       7.431   5.864  18.043  0.00  0.00    +0.000 A 
ATOM     29  C   UNL     1       7.584   4.650  17.372  0.00  0.00    +0.000 A 
ATOM     30  C   UNL     1       6.619   4.238  16.449  0.00  0.00    +0.000 A 
ATOM     31  C   UNL     1       5.493   5.035  16.203  0.00  0.00    +0.000 A 
ENDBRANCH  25  26
ENDBRANCH   7  25
TORSDOF 6
ENDMDL
MODEL 5
REMARK VINA RESULT:      -9.7      0.110      1.419
REMARK  Name = 
REMARK  6 active torsions:
REMARK  status: ('A' for Active; 'I' for Inactive)
REMARK    1  A    between atoms: C_2  and  O_3
REMARK    2  A    between atoms: C_2  and  C_4
REMARK    3  A    between atoms: C_8  and  S_9
REMARK    4  A    between atoms: C_16  and  C_17
REMARK    5  A    between atoms: C_17  and  C_18
REMARK    6  A    between atoms: C_26  and  C_27
REMARK                            x       y       z     vdW  Elec       q    Type
REMARK                         _______ _______ _______ _____ _____    ______ ____
ROOT
ATOM      1  C   UNL     1       2.474   3.987  20.586  0.00  0.00    +0.000 C 
ATOM      2  C   UNL     1       1.966   5.194  20.900  0.00  0.00    +0.000 C 
ATOM      3  C   UNL     1       2.078   6.304  19.940  0.00  0.00    +0.000 A 
ATOM      4  C   UNL     1       1.426   7.503  20.187  0.00  0.00    +0.000 A 
ATOM      5  C   UNL     1       1.578   8.593  19.314  0.00  0.00    +0.000 A 
ATOM      6  C   UNL     1       2.440   8.437  18.199  0.00  0.00    +0.000 A 
ATOM      7  C   UNL     1       3.130   7.231  17.950  0.00  0.00    +0.000 A 
ATOM      8  C   UNL     1       2.914   6.151  18.823  0.00  0.00    +0.000 A 
ATOM      9  O   UNL     1       3.500   4.945  18.625  0.00  0.00    +0.000 OA
ATOM     10  C   UNL     1       2.942   3.779  19.146  0.00  0.00    +0.000 C 
ENDROOT
BRANCH   5  11
ATOM     11  S   UNL     1       0.672  10.160  19.623  0.00  0.00    +0.000 S 
ATOM     12  F   UNL     1      -0.215  10.021  18.164  0.00  0.00    +0.000 F 
ATOM     13  F   UNL     1       1.893  11.002  18.774  0.00  0.00    +0.000 F 
ATOM     14  F   UNL     1      -0.162  11.626  19.896  0.00  0.00    +0.000 F 
ATOM     15  F   UNL     1       1.495  10.395  21.103  0.00  0.00    +0.000 F 
ATOM     16  F   UNL     1      -0.551   9.306  20.465  0.00  0.00    +0.000 F 
ENDBRANCH   5  11
BRANCH  10  17
ATOM     17  C   UNL     1       1.712   3.335  18.281  0.00  0.00    +0.000 C 
ATOM     18  F   UNL     1       1.963   2.170  17.565  0.00  0.00    +0.000 F 
ATOM     19  F   UNL     1       0.598   3.105  19.070  0.00  0.00    +0.000 F 
ATOM     20  F   UNL     1       1.401   4.326  17.371  0.00  0.00    +0.000 F 
ENDBRANCH  10  17
BRANCH   1  22
ATOM     21  O   UNL     1       3.469   2.175  21.688  0.00  0.00    +0.000 OA
ATOM     22  C   UNL     1       2.457   2.841  21.542  0.00  0.00    +0.000 C 
BRANCH  22  23
ATOM     23  O   UNL     1       1.361   2.505  22.261  0.00  0.00    +0.000 OA
ATOM     24  H   UNL     1       1.374   2.266  23.196  0.00  0.00    +0.000 HD
ENDBRANCH  22  23
ENDBRANCH   1  22
BRANCH   7  25
ATOM     25  C   UNL     1       4.041   7.123  16.732  0.00  0.00    +0.000 C 
BRANCH  25  26
ATOM     26  C   UNL     1       5.254   6.231  16.919  0.00  0.00    +0.000 A 
ATOM     27  C   UNL     1       5.390   5.045  16.172  0.00  0.00    +0.000 A 
ATOM     28  C   UNL     1       6.541   4.255  16.295  0.00  0.00    +0.000 A 
ATOM     29  C   UNL     1       7.565   4.638  17.162  0.00  0.00    +0.000 A 
ATOM     30  C   UNL     1       7.439   5.808  17.915  0.00  0.00    +0.000 A 
ATOM     31  C   UNL     1       6.292   6.604  17.795  0.00  0.00    +0.000 A 
ENDBRANCH  25  26
ENDBRANCH   7  25
TORSDOF 6
ENDMDL
MODEL 6
REMARK VINA RESULT:      -9.7      0.060      1.131
REMARK  Name = 
REMARK  6 active torsions:
REMARK  status: ('A' for Active; 'I' for Inactive)
REMARK    1  A    between atoms: C_2  and  O_3
REMARK    2  A    between atoms: C_2  and  C_4
REMARK    3  A    between atoms: C_8  and  S_9
REMARK    4  A    between atoms: C_16  and  C_17
REMARK    5  A    between atoms: C_17  and  C_18
REMARK    6  A    between atoms: C_26  and  C_27
REMARK                            x       y       z     vdW  Elec       q    Type
REMARK                         _______ _______ _______ _____ _____    ______ ____
ROOT
ATOM      1  C   UNL     1       2.522   3.982  20.555  0.00  0.00    +0.000 C 
ATOM      2  C   UNL     1       2.015   5.189  20.869  0.00  0.00    +0.000 C 
ATOM      3  C   UNL     1       2.125   6.298  19.908  0.00  0.00    +0.000 A 
ATOM      4  C   UNL     1       1.474   7.498  20.155  0.00  0.00    +0.000 A 
ATOM      5  C   UNL     1       1.624   8.587  19.280  0.00  0.00    +0.000 A 
ATOM      6  C   UNL     1       2.482   8.428  18.162  0.00  0.00    +0.000 A 
ATOM      7  C   UNL     1       3.170   7.222  17.912  0.00  0.00    +0.000 A 
ATOM      8  C   UNL     1       2.957   6.143  18.788  0.00  0.00    +0.000 A 
ATOM      9  O   UNL     1       3.541   4.937  18.589  0.00  0.00    +0.000 OA
ATOM     10  C   UNL     1       2.984   3.772  19.113  0.00  0.00    +0.000 C 
ENDROOT
BRANCH   5  11
ATOM     11  S   UNL     1       0.720  10.154  19.590  0.00  0.00    +0.000 S 
ATOM     12  F   UNL     1       1.516  10.404  21.086  0.00  0.00    +0.000 F 
ATOM     13  F   UNL     1      -0.489   9.264  20.408  0.00  0.00    +0.000 F 
ATOM     14  F   UNL     1      -0.130  11.605  19.893  0.00  0.00    +0.000 F 
ATOM     15  F   UNL     1      -0.128  10.009  18.113  0.00  0.00    +0.000 F 
ATOM     16  F   UNL     1       1.940  11.038  18.777  0.00  0.00    +0.000 F 
ENDBRANCH   5  11
BRANCH  10  17
ATOM     17  C   UNL     1       1.751   3.327  18.254  0.00  0.00    +0.000 C 
ATOM     18  F   UNL     1       1.996   2.158  17.543  0.00  0.00    +0.000 F 
ATOM     19  F   UNL     1       0.638   3.104  19.046  0.00  0.00    +0.000 F 
ATOM     20  F   UNL     1       1.440   4.315  17.339  0.00  0.00    +0.000 F 
ENDBRANCH  10  17
BRANCH   1  22
ATOM     21  O   UNL     1       3.518   2.168  21.652  0.00  0.00    +0.000 OA
ATOM     22  C   UNL     1       2.508   2.837  21.513  0.00  0.00    +0.000 C 
BRANCH  22  23
ATOM     23  O   UNL     1       1.416   2.507  22.241  0.00  0.00    +0.000 OA
ATOM     24  H   UNL     1       1.276   2.761  23.161  0.00  0.00    +0.000 HD
ENDBRANCH  22  23
ENDBRANCH   1  22
BRANCH   7  25
ATOM     25  C   UNL     1       4.076   7.112  16.691  0.00  0.00    +0.000 C 
BRANCH  25  26
ATOM     26  C   UNL     1       5.328   6.279  16.898  0.00  0.00    +0.000 A 
ATOM     27  C   UNL     1       6.302   6.675  17.835  0.00  0.00    +0.000 A 
ATOM     28  C   UNL     1       7.426   5.874  18.075  0.00  0.00    +0.000 A 
ATOM     29  C   UNL     1       7.591   4.672  17.384  0.00  0.00    +0.000 A 
ATOM     30  C   UNL     1       6.635   4.272  16.446  0.00  0.00    +0.000 A 
ATOM     31  C   UNL     1       5.508   5.068  16.203  0.00  0.00    +0.000 A 
ENDBRANCH  25  26
ENDBRANCH   7  25
TORSDOF 6
ENDMDL
MODEL 7
REMARK VINA RESULT:      -9.5      0.841      1.613
REMARK  Name = 
REMARK  6 active torsions:
REMARK  status: ('A' for Active; 'I' for Inactive)
REMARK    1  A    between atoms: C_2  and  O_3
REMARK    2  A    between atoms: C_2  and  C_4
REMARK    3  A    between atoms: C_8  and  S_9
REMARK    4  A    between atoms: C_16  and  C_17
REMARK    5  A    between atoms: C_17  and  C_18
REMARK    6  A    between atoms: C_26  and  C_27
REMARK                            x       y       z     vdW  Elec       q    Type
REMARK                         _______ _______ _______ _____ _____    ______ ____
ROOT
ATOM      1  C   UNL     1       2.247   3.937  20.682  0.00  0.00    +0.000 C 
ATOM      2  C   UNL     1       1.724   5.168  20.836  0.00  0.00    +0.000 C 
ATOM      3  C   UNL     1       2.012   6.212  19.839  0.00  0.00    +0.000 A 
ATOM      4  C   UNL     1       1.357   7.433  19.904  0.00  0.00    +0.000 A 
ATOM      5  C   UNL     1       1.669   8.462  19.001  0.00  0.00    +0.000 A 
ATOM      6  C   UNL     1       2.692   8.222  18.047  0.00  0.00    +0.000 A 
ATOM      7  C   UNL     1       3.383   6.994  17.986  0.00  0.00    +0.000 A 
ATOM      8  C   UNL     1       3.009   5.976  18.880  0.00  0.00    +0.000 A 
ATOM      9  O   UNL     1       3.590   4.752  18.853  0.00  0.00    +0.000 OA
ATOM     10  C   UNL     1       2.930   3.630  19.350  0.00  0.00    +0.000 C 
ENDROOT
BRANCH   5  11
ATOM     11  S   UNL     1       0.763  10.057  19.064  0.00  0.00    +0.000 S 
ATOM     12  F   UNL     1      -0.104   9.707  17.629  0.00  0.00    +0.000 F 
ATOM     13  F   UNL     1       1.998  10.766  18.118  0.00  0.00    +0.000 F 
ATOM     14  F   UNL     1      -0.072  11.548  19.109  0.00  0.00    +0.000 F 
ATOM     15  F   UNL     1       1.565  10.506  20.506  0.00  0.00    +0.000 F 
ATOM     16  F   UNL     1      -0.474   9.337  20.004  0.00  0.00    +0.000 F 
ENDBRANCH   5  11
BRANCH  10  17
ATOM     17  C   UNL     1       1.841   3.147  18.331  0.00  0.00    +0.000 C 
ATOM     18  F   UNL     1       1.685   4.029  17.268  0.00  0.00    +0.000 F 
ATOM     19  F   UNL     1       2.163   1.910  17.798  0.00  0.00    +0.000 F 
ATOM     20  F   UNL     1       0.621   3.040  18.969  0.00  0.00    +0.000 F 
ENDBRANCH  10  17
BRANCH   1  22
ATOM     21  O   UNL     1       3.018   2.201  22.053  0.00  0.00    +0.000 OA
ATOM     22  C   UNL     1       2.054   2.856  21.693  0.00  0.00    +0.000 C 
BRANCH  22  23
ATOM     23  O   UNL     1       0.847   2.569  22.234  0.00  0.00    +0.000 OA
ATOM     24  H   UNL     1       0.132   3.207  22.342  0.00  0.00    +0.000 HD
ENDBRANCH  22  23
ENDBRANCH   1  22
BRANCH   7  25
ATOM     25  C   UNL     1       4.471   6.795  16.937  0.00  0.00    +0.000 C 
BRANCH  25  26
ATOM     26  C   UNL     1       5.890   6.970  17.446  0.00  0.00    +0.000 A 
ATOM     27  C   UNL     1       6.581   8.179  17.233  0.00  0.00    +0.000 A 
ATOM     28  C   UNL     1       7.865   8.367  17.760  0.00  0.00    +0.000 A 
ATOM     29  C   UNL     1       8.474   7.353  18.502  0.00  0.00    +0.000 A 
ATOM     30  C   UNL     1       7.803   6.146  18.713  0.00  0.00    +0.000 A 
ATOM     31  C   UNL     1       6.517   5.953  18.191  0.00  0.00    +0.000 A 
ENDBRANCH  25  26
ENDBRANCH   7  25
TORSDOF 6
ENDMDL
MODEL 8
REMARK VINA RESULT:      -9.5      0.851      1.693
REMARK  Name = 
REMARK  6 active torsions:
REMARK  status: ('A' for Active; 'I' for Inactive)
REMARK    1  A    between atoms: C_2  and  O_3
REMARK    2  A    between atoms: C_2  and  C_4
REMARK    3  A    between atoms: C_8  and  S_9
REMARK    4  A    between atoms: C_16  and  C_17
REMARK    5  A    between atoms: C_17  and  C_18
REMARK    6  A    between atoms: C_26  and  C_27
REMARK                            x       y       z     vdW  Elec       q    Type
REMARK                         _______ _______ _______ _____ _____    ______ ____
ROOT
ATOM      1  C   UNL     1       2.298   3.940  20.655  0.00  0.00    +0.000 C 
ATOM      2  C   UNL     1       1.764   5.167  20.802  0.00  0.00    +0.000 C 
ATOM      3  C   UNL     1       2.055   6.212  19.808  0.00  0.00    +0.000 A 
ATOM      4  C   UNL     1       1.390   7.429  19.865  0.00  0.00    +0.000 A 
ATOM      5  C   UNL     1       1.705   8.459  18.963  0.00  0.00    +0.000 A 
ATOM      6  C   UNL     1       2.739   8.225  18.021  0.00  0.00    +0.000 A 
ATOM      7  C   UNL     1       3.440   7.002  17.968  0.00  0.00    +0.000 A 
ATOM      8  C   UNL     1       3.064   5.982  18.859  0.00  0.00    +0.000 A 
ATOM      9  O   UNL     1       3.654   4.763  18.839  0.00  0.00    +0.000 OA
ATOM     10  C   UNL     1       2.997   3.636  19.330  0.00  0.00    +0.000 C 
ENDROOT
BRANCH   5  11
ATOM     11  S   UNL     1       0.786  10.047  19.016  0.00  0.00    +0.000 S 
ATOM     12  F   UNL     1       1.578  10.543  20.452  0.00  0.00    +0.000 F 
ATOM     13  F   UNL     1      -0.415   9.290  19.967  0.00  0.00    +0.000 F 
ATOM     14  F   UNL     1      -0.078  11.520  19.080  0.00  0.00    +0.000 F 
ATOM     15  F   UNL     1      -0.058   9.657  17.581  0.00  0.00    +0.000 F 
ATOM     16  F   UNL     1       1.999  10.800  18.070  0.00  0.00    +0.000 F 
ENDBRANCH   5  11
BRANCH  10  17
ATOM     17  C   UNL     1       1.923   3.144  18.300  0.00  0.00    +0.000 C 
ATOM     18  F   UNL     1       1.780   4.018  17.228  0.00  0.00    +0.000 F 
ATOM     19  F   UNL     1       2.252   1.903  17.782  0.00  0.00    +0.000 F 
ATOM     20  F   UNL     1       0.693   3.042  18.922  0.00  0.00    +0.000 F 
ENDBRANCH  10  17
BRANCH   1  22
ATOM     21  O   UNL     1       3.067   2.210  22.035  0.00  0.00    +0.000 OA
ATOM     22  C   UNL     1       2.102   2.858  21.666  0.00  0.00    +0.000 C 
BRANCH  22  23
ATOM     23  O   UNL     1       0.891   2.563  22.194  0.00  0.00    +0.000 OA
ATOM     24  H   UNL     1       0.637   2.740  23.107  0.00  0.00    +0.000 HD
ENDBRANCH  22  23
ENDBRANCH   1  22
BRANCH   7  25
ATOM     25  C   UNL     1       4.540   6.810  16.931  0.00  0.00    +0.000 C 
BRANCH  25  26
ATOM     26  C   UNL     1       5.952   7.018  17.449  0.00  0.00    +0.000 A 
ATOM     27  C   UNL     1       6.618   8.240  17.236  0.00  0.00    +0.000 A 
ATOM     28  C   UNL     1       7.894   8.457  17.771  0.00  0.00    +0.000 A 
ATOM     29  C   UNL     1       8.519   7.460  18.522  0.00  0.00    +0.000 A 
ATOM     30  C   UNL     1       7.872   6.240  18.735  0.00  0.00    +0.000 A 
ATOM     31  C   UNL     1       6.594   6.018  18.204  0.00  0.00    +0.000 A 
ENDBRANCH  25  26
ENDBRANCH   7  25
TORSDOF 6
ENDMDL
MODEL 9
REMARK VINA RESULT:      -9.4      0.914      1.279
REMARK  Name = 
REMARK  6 active torsions:
REMARK  status: ('A' for Active; 'I' for Inactive)
REMARK    1  A    between atoms: C_2  and  O_3
REMARK    2  A    between atoms: C_2  and  C_4
REMARK    3  A    between atoms: C_8  and  S_9
REMARK    4  A    between atoms: C_16  and  C_17
REMARK    5  A    between atoms: C_17  and  C_18
REMARK    6  A    between atoms: C_26  and  C_27
REMARK                            x       y       z     vdW  Elec       q    Type
REMARK                         _______ _______ _______ _____ _____    ______ ____
ROOT
ATOM      1  C   UNL     1       2.330   3.944  20.639  0.00  0.00    +0.000 C 
ATOM      2  C   UNL     1       1.796   5.171  20.784  0.00  0.00    +0.000 C 
ATOM      3  C   UNL     1       2.088   6.216  19.789  0.00  0.00    +0.000 A 
ATOM      4  C   UNL     1       1.423   7.432  19.844  0.00  0.00    +0.000 A 
ATOM      5  C   UNL     1       1.739   8.461  18.943  0.00  0.00    +0.000 A 
ATOM      6  C   UNL     1       2.775   8.227  18.003  0.00  0.00    +0.000 A 
ATOM      7  C   UNL     1       3.477   7.005  17.952  0.00  0.00    +0.000 A 
ATOM      8  C   UNL     1       3.099   5.985  18.843  0.00  0.00    +0.000 A 
ATOM      9  O   UNL     1       3.690   4.766  18.825  0.00  0.00    +0.000 OA
ATOM     10  C   UNL     1       3.032   3.639  19.316  0.00  0.00    +0.000 C 
ENDROOT
BRANCH   5  11
ATOM     11  S   UNL     1       0.820  10.050  18.992  0.00  0.00    +0.000 S 
ATOM     12  F   UNL     1      -0.446   9.373  19.928  0.00  0.00    +0.000 F 
ATOM     13  F   UNL     1      -0.011   9.582  17.573  0.00  0.00    +0.000 F 
ATOM     14  F   UNL     1      -0.050  11.521  19.028  0.00  0.00    +0.000 F 
ATOM     15  F   UNL     1       2.028  10.829  18.067  0.00  0.00    +0.000 F 
ATOM     16  F   UNL     1       1.650  10.506  20.418  0.00  0.00    +0.000 F 
ENDBRANCH   5  11
BRANCH  10  17
ATOM     17  C   UNL     1       1.960   3.147  18.284  0.00  0.00    +0.000 C 
ATOM     18  F   UNL     1       1.461   1.888  18.601  0.00  0.00    +0.000 F 
ATOM     19  F   UNL     1       0.883   4.014  18.224  0.00  0.00    +0.000 F 
ATOM     20  F   UNL     1       2.525   3.068  17.026  0.00  0.00    +0.000 F 
ENDBRANCH  10  17
BRANCH   1  22
ATOM     21  O   UNL     1       3.092   2.199  22.004  0.00  0.00    +0.000 OA
ATOM     22  C   UNL     1       2.132   2.863  21.650  0.00  0.00    +0.000 C 
BRANCH  22  23
ATOM     23  O   UNL     1       0.926   2.585  22.196  0.00  0.00    +0.000 OA
ATOM     24  H   UNL     1       0.397   3.216  22.699  0.00  0.00    +0.000 HD
ENDBRANCH  22  23
ENDBRANCH   1  22
BRANCH   7  25
ATOM     25  C   UNL     1       4.579   6.812  16.917  0.00  0.00    +0.000 C 
BRANCH  25  26
ATOM     26  C   UNL     1       5.987   7.053  17.430  0.00  0.00    +0.000 A 
ATOM     27  C   UNL     1       6.619   8.295  17.225  0.00  0.00    +0.000 A 
ATOM     28  C   UNL     1       7.892   8.541  17.756  0.00  0.00    +0.000 A 
ATOM     29  C   UNL     1       8.548   7.555  18.494  0.00  0.00    +0.000 A 
ATOM     30  C   UNL     1       7.935   6.315  18.698  0.00  0.00    +0.000 A 
ATOM     31  C   UNL     1       6.660   6.063  18.172  0.00  0.00    +0.000 A 
ENDBRANCH  25  26
ENDBRANCH   7  25
TORSDOF 6
ENDMDL
