MODEL 1
REMARK VINA RESULT:      -7.8      0.000      0.000
REMARK  Name = 
REMARK  4 active torsions:
REMARK  status: ('A' for Active; 'I' for Inactive)
REMARK    1  A    between atoms: C_2  and  C_3
REMARK    2  A    between atoms: C_3  and  C_4
REMARK    3  A    between atoms: C_17  and  C_18
REMARK    4  A    between atoms: C_18  and  N_19
REMARK                            x       y       z     vdW  Elec       q    Type
REMARK                         _______ _______ _______ _____ _____    ______ ____
ROOT
ATOM      1  O   UNL     1       0.640   4.381  20.281  0.00  0.00    +0.000 OA
ATOM      2  C   UNL     1       1.792   4.679  19.951  0.00  0.00    +0.000 C 
ATOM      3  N   UNL     1       2.498   3.897  19.055  0.00  0.00    +0.000 N 
ATOM      4  C   UNL     1       1.814   2.772  18.438  0.00  0.00    +0.000 C 
ATOM      5  C   UNL     1       2.937   1.909  17.913  0.00  0.00    +0.000 C 
ATOM      6  C   UNL     1       3.940   2.941  17.413  0.00  0.00    +0.000 C 
ATOM      7  C   UNL     1       3.812   4.125  18.402  0.00  0.00    +0.000 C 
ENDROOT
BRANCH   2   8
ATOM      8  C   UNL     1       2.450   5.900  20.574  0.00  0.00    +0.000 C 
BRANCH   8   9
ATOM      9  C   UNL     1       2.048   7.230  19.961  0.00  0.00    +0.000 A 
ATOM     10  C   UNL     1       2.379   7.580  18.631  0.00  0.00    +0.000 A 
ATOM     11  C   UNL     1       1.979   8.806  18.080  0.00  0.00    +0.000 A 
ATOM     12  C   UNL     1       1.266   9.668  18.880  0.00  0.00    +0.000 A 
ATOM     13  C   UNL     1       0.967   9.358  20.184  0.00  0.00    +0.000 A 
ATOM     14  C   UNL     1       1.354   8.163  20.756  0.00  0.00    +0.000 A 
ATOM     15  O   UNL     1       0.260  10.341  20.803  0.00  0.00    +0.000 OA
ATOM     16  C   UNL     1       0.148  11.306  19.737  0.00  0.00    +0.000 C 
ATOM     17  O   UNL     1       0.788  10.887  18.514  0.00  0.00    +0.000 OA
ENDBRANCH   8   9
ENDBRANCH   2   8
BRANCH   7  18
ATOM     18  C   UNL     1       5.011   4.198  19.354  0.00  0.00    +0.000 C 
BRANCH  18  19
ATOM     19  N   UNL     1       6.066   5.071  18.881  0.00  0.00    +0.000 N 
ATOM     20  N   UNL     1       7.161   5.316  19.629  0.00  0.00    +0.000 NA
ATOM     21  C   UNL     1       7.787   6.235  18.890  0.00  0.00    +0.000 A 
ATOM     22  C   UNL     1       7.049   6.497  17.729  0.00  0.00    +0.000 A 
ATOM     23  N   UNL     1       5.942   5.749  17.718  0.00  0.00    +0.000 NA
ENDBRANCH  18  19
ENDBRANCH   7  18
TORSDOF 4
ENDMDL
MODEL 2
REMARK VINA RESULT:      -7.5      3.725      6.356
REMARK  Name = 
REMARK  4 active torsions:
REMARK  status: ('A' for Active; 'I' for Inactive)
REMARK    1  A    between atoms: C_2  and  C_3
REMARK    2  A    between atoms: C_3  and  C_4
REMARK    3  A    between atoms: C_17  and  C_18
REMARK    4  A    between atoms: C_18  and  N_19
REMARK                            x       y       z     vdW  Elec       q    Type
REMARK                         _______ _______ _______ _____ _____    ______ ____
ROOT
ATOM      1  O   UNL     1       5.200   2.797  19.796  0.00  0.00    +0.000 OA
ATOM      2  C   UNL     1       4.728   3.915  19.563  0.00  0.00    +0.000 C 
ATOM      3  N   UNL     1       3.432   4.229  19.925  0.00  0.00    +0.000 N 
ATOM      4  C   UNL     1       2.671   3.242  20.675  0.00  0.00    +0.000 C 
ATOM      5  C   UNL     1       1.237   3.685  20.506  0.00  0.00    +0.000 C 
ATOM      6  C   UNL     1       1.351   5.202  20.568  0.00  0.00    +0.000 C 
ATOM      7  C   UNL     1       2.705   5.523  19.889  0.00  0.00    +0.000 C 
ENDROOT
BRANCH   2   8
ATOM      8  C   UNL     1       5.579   4.941  18.830  0.00  0.00    +0.000 C 
BRANCH   8   9
ATOM      9  C   UNL     1       5.769   4.678  17.347  0.00  0.00    +0.000 A 
ATOM     10  C   UNL     1       4.920   3.810  16.619  0.00  0.00    +0.000 A 
ATOM     11  C   UNL     1       5.103   3.598  15.245  0.00  0.00    +0.000 A 
ATOM     12  C   UNL     1       6.145   4.250  14.627  0.00  0.00    +0.000 A 
ATOM     13  C   UNL     1       6.998   5.067  15.326  0.00  0.00    +0.000 A 
ATOM     14  C   UNL     1       6.849   5.289  16.680  0.00  0.00    +0.000 A 
ATOM     15  O   UNL     1       7.960   5.613  14.535  0.00  0.00    +0.000 OA
ATOM     16  C   UNL     1       7.613   5.044  13.255  0.00  0.00    +0.000 C 
ATOM     17  O   UNL     1       6.464   4.174  13.307  0.00  0.00    +0.000 OA
ENDBRANCH   8   9
ENDBRANCH   2   8
BRANCH   7  18
ATOM     18  C   UNL     1       2.509   6.123  18.492  0.00  0.00    +0.000 C 
BRANCH  18  19
ATOM     19  N   UNL     1       2.259   7.549  18.512  0.00  0.00    +0.000 N 
ATOM     20  N   UNL     1       1.718   8.151  19.590  0.00  0.00    +0.000 NA
ATOM     21  C   UNL     1       1.554   9.399  19.144  0.00  0.00    +0.000 A 
ATOM     22  C   UNL     1       2.009   9.497  17.823  0.00  0.00    +0.000 A 
ATOM     23  N   UNL     1       2.465   8.310  17.413  0.00  0.00    +0.000 NA
ENDBRANCH  18  19
ENDBRANCH   7  18
TORSDOF 4
ENDMDL
MODEL 3
REMARK VINA RESULT:      -7.4      3.542      5.941
REMARK  Name = 
REMARK  4 active torsions:
REMARK  status: ('A' for Active; 'I' for Inactive)
REMARK    1  A    between atoms: C_2  and  C_3
REMARK    2  A    between atoms: C_3  and  C_4
REMARK    3  A    between atoms: C_17  and  C_18
REMARK    4  A    between atoms: C_18  and  N_19
REMARK                            x       y       z     vdW  Elec       q    Type
REMARK                         _______ _______ _______ _____ _____    ______ ____
ROOT
ATOM      1  O   UNL     1       5.020   2.216  19.766  0.00  0.00    +0.000 OA
ATOM      2  C   UNL     1       4.427   3.293  19.649  0.00  0.00    +0.000 C 
ATOM      3  N   UNL     1       3.053   3.337  19.511  0.00  0.00    +0.000 N 
ATOM      4  C   UNL     1       2.314   2.088  19.604  0.00  0.00    +0.000 C 
ATOM      5  C   UNL     1       0.978   2.409  18.977  0.00  0.00    +0.000 C 
ATOM      6  C   UNL     1       0.719   3.830  19.461  0.00  0.00    +0.000 C 
ATOM      7  C   UNL     1       2.119   4.491  19.505  0.00  0.00    +0.000 C 
ENDROOT
BRANCH   2   8
ATOM      8  C   UNL     1       5.233   4.583  19.618  0.00  0.00    +0.000 C 
BRANCH   8   9
ATOM      9  C   UNL     1       5.874   4.908  18.280  0.00  0.00    +0.000 A 
ATOM     10  C   UNL     1       6.780   5.984  18.118  0.00  0.00    +0.000 A 
ATOM     11  C   UNL     1       7.375   6.254  16.878  0.00  0.00    +0.000 A 
ATOM     12  C   UNL     1       7.039   5.447  15.815  0.00  0.00    +0.000 A 
ATOM     13  C   UNL     1       6.137   4.421  15.948  0.00  0.00    +0.000 A 
ATOM     14  C   UNL     1       5.528   4.137  17.154  0.00  0.00    +0.000 A 
ATOM     15  O   UNL     1       5.941   3.747  14.783  0.00  0.00    +0.000 OA
ATOM     16  C   UNL     1       6.826   4.468  13.901  0.00  0.00    +0.000 C 
ATOM     17  O   UNL     1       7.524   5.552  14.549  0.00  0.00    +0.000 OA
ENDBRANCH   8   9
ENDBRANCH   2   8
BRANCH   7  18
ATOM     18  C   UNL     1       2.312   5.483  18.353  0.00  0.00    +0.000 C 
BRANCH  18  19
ATOM     19  N   UNL     1       2.152   6.865  18.754  0.00  0.00    +0.000 N 
ATOM     20  N   UNL     1       1.960   7.202  20.046  0.00  0.00    +0.000 NA
ATOM     21  C   UNL     1       1.745   8.517  19.949  0.00  0.00    +0.000 A 
ATOM     22  C   UNL     1       1.825   8.915  18.608  0.00  0.00    +0.000 A 
ATOM     23  N   UNL     1       2.088   7.857  17.836  0.00  0.00    +0.000 NA
ENDBRANCH  18  19
ENDBRANCH   7  18
TORSDOF 4
ENDMDL
MODEL 4
REMARK VINA RESULT:      -7.3      1.256      1.487
REMARK  Name = 
REMARK  4 active torsions:
REMARK  status: ('A' for Active; 'I' for Inactive)
REMARK    1  A    between atoms: C_2  and  C_3
REMARK    2  A    between atoms: C_3  and  C_4
REMARK    3  A    between atoms: C_17  and  C_18
REMARK    4  A    between atoms: C_18  and  N_19
REMARK                            x       y       z     vdW  Elec       q    Type
REMARK                         _______ _______ _______ _____ _____    ______ ____
ROOT
ATOM      1  O   UNL     1       1.108   5.044  20.727  0.00  0.00    +0.000 OA
ATOM      2  C   UNL     1       2.016   5.010  19.890  0.00  0.00    +0.000 C 
ATOM      3  N   UNL     1       2.237   3.878  19.128  0.00  0.00    +0.000 N 
ATOM      4  C   UNL     1       1.313   2.765  19.269  0.00  0.00    +0.000 C 
ATOM      5  C   UNL     1       2.067   1.592  18.687  0.00  0.00    +0.000 C 
ATOM      6  C   UNL     1       2.794   2.220  17.506  0.00  0.00    +0.000 C 
ATOM      7  C   UNL     1       3.149   3.652  17.978  0.00  0.00    +0.000 C 
ENDROOT
BRANCH   2   8
ATOM      8  C   UNL     1       2.922   6.221  19.730  0.00  0.00    +0.000 C 
BRANCH   8   9
ATOM      9  C   UNL     1       2.210   7.519  19.394  0.00  0.00    +0.000 A 
ATOM     10  C   UNL     1       2.211   8.064  18.088  0.00  0.00    +0.000 A 
ATOM     11  C   UNL     1       1.529   9.254  17.796  0.00  0.00    +0.000 A 
ATOM     12  C   UNL     1       0.869   9.885  18.825  0.00  0.00    +0.000 A 
ATOM     13  C   UNL     1       0.887   9.387  20.104  0.00  0.00    +0.000 A 
ATOM     14  C   UNL     1       1.556   8.223  20.423  0.00  0.00    +0.000 A 
ATOM     15  O   UNL     1       0.178  10.157  20.972  0.00  0.00    +0.000 OA
ATOM     16  C   UNL     1      -0.290  11.199  20.090  0.00  0.00    +0.000 C 
ATOM     17  O   UNL     1       0.149  11.035  18.726  0.00  0.00    +0.000 OA
ENDBRANCH   8   9
ENDBRANCH   2   8
BRANCH   7  18
ATOM     18  C   UNL     1       4.643   3.789  18.291  0.00  0.00    +0.000 C 
BRANCH  18  19
ATOM     19  N   UNL     1       5.357   4.606  17.332  0.00  0.00    +0.000 N 
ATOM     20  N   UNL     1       4.719   5.536  16.592  0.00  0.00    +0.000 NA
ATOM     21  C   UNL     1       5.698   5.949  15.784  0.00  0.00    +0.000 A 
ATOM     22  C   UNL     1       6.881   5.259  16.076  0.00  0.00    +0.000 A 
ATOM     23  N   UNL     1       6.667   4.396  17.073  0.00  0.00    +0.000 NA
ENDBRANCH  18  19
ENDBRANCH   7  18
TORSDOF 4
ENDMDL
MODEL 5
REMARK VINA RESULT:      -7.3      1.199      1.731
REMARK  Name = 
REMARK  4 active torsions:
REMARK  status: ('A' for Active; 'I' for Inactive)
REMARK    1  A    between atoms: C_2  and  C_3
REMARK    2  A    between atoms: C_3  and  C_4
REMARK    3  A    between atoms: C_17  and  C_18
REMARK    4  A    between atoms: C_18  and  N_19
REMARK                            x       y       z     vdW  Elec       q    Type
REMARK                         _______ _______ _______ _____ _____    ______ ____
ROOT
ATOM      1  O   UNL     1       0.964   4.890  17.535  0.00  0.00    +0.000 OA
ATOM      2  C   UNL     1       2.174   4.817  17.773  0.00  0.00    +0.000 C 
ATOM      3  N   UNL     1       2.758   3.611  18.115  0.00  0.00    +0.000 N 
ATOM      4  C   UNL     1       1.930   2.416  18.091  0.00  0.00    +0.000 C 
ATOM      5  C   UNL     1       2.707   1.420  18.920  0.00  0.00    +0.000 C 
ATOM      6  C   UNL     1       4.148   1.716  18.526  0.00  0.00    +0.000 C 
ATOM      7  C   UNL     1       4.186   3.248  18.296  0.00  0.00    +0.000 C 
ENDROOT
BRANCH   2   8
ATOM      8  C   UNL     1       3.017   6.081  17.727  0.00  0.00    +0.000 C 
BRANCH   8   9
ATOM      9  C   UNL     1       2.401   7.291  18.407  0.00  0.00    +0.000 A 
ATOM     10  C   UNL     1       2.091   8.478  17.701  0.00  0.00    +0.000 A 
ATOM     11  C   UNL     1       1.503   9.575  18.346  0.00  0.00    +0.000 A 
ATOM     12  C   UNL     1       1.249   9.468  19.694  0.00  0.00    +0.000 A 
ATOM     13  C   UNL     1       1.575   8.337  20.400  0.00  0.00    +0.000 A 
ATOM     14  C   UNL     1       2.162   7.244  19.794  0.00  0.00    +0.000 A 
ATOM     15  O   UNL     1       1.247   8.432  21.716  0.00  0.00    +0.000 OA
ATOM     16  C   UNL     1       0.674   9.756  21.757  0.00  0.00    +0.000 C 
ATOM     17  O   UNL     1       0.677  10.421  20.477  0.00  0.00    +0.000 OA
ENDBRANCH   8   9
ENDBRANCH   2   8
BRANCH   7  18
ATOM     18  C   UNL     1       4.906   3.972  19.439  0.00  0.00    +0.000 C 
BRANCH  18  19
ATOM     19  N   UNL     1       6.051   4.741  18.998  0.00  0.00    +0.000 N 
ATOM     20  N   UNL     1       6.404   4.789  17.697  0.00  0.00    +0.000 NA
ATOM     21  C   UNL     1       7.544   5.482  17.757  0.00  0.00    +0.000 A 
ATOM     22  C   UNL     1       7.823   5.827  19.085  0.00  0.00    +0.000 A 
ATOM     23  N   UNL     1       6.865   5.355  19.887  0.00  0.00    +0.000 NA
ENDBRANCH  18  19
ENDBRANCH   7  18
TORSDOF 4
ENDMDL
MODEL 6
REMARK VINA RESULT:      -7.2      0.658      1.369
REMARK  Name = 
REMARK  4 active torsions:
REMARK  status: ('A' for Active; 'I' for Inactive)
REMARK    1  A    between atoms: C_2  and  C_3
REMARK    2  A    between atoms: C_3  and  C_4
REMARK    3  A    between atoms: C_17  and  C_18
REMARK    4  A    between atoms: C_18  and  N_19
REMARK                            x       y       z     vdW  Elec       q    Type
REMARK                         _______ _______ _______ _____ _____    ______ ____
ROOT
ATOM      1  O   UNL     1       0.623   4.349  20.337  0.00  0.00    +0.000 OA
ATOM      2  C   UNL     1       1.766   4.663  19.989  0.00  0.00    +0.000 C 
ATOM      3  N   UNL     1       2.428   3.952  19.006  0.00  0.00    +0.000 N 
ATOM      4  C   UNL     1       1.708   2.888  18.325  0.00  0.00    +0.000 C 
ATOM      5  C   UNL     1       2.800   2.061  17.688  0.00  0.00    +0.000 C 
ATOM      6  C   UNL     1       3.796   3.121  17.236  0.00  0.00    +0.000 C 
ATOM      7  C   UNL     1       3.720   4.221  18.324  0.00  0.00    +0.000 C 
ENDROOT
BRANCH   2   8
ATOM      8  C   UNL     1       2.461   5.823  20.684  0.00  0.00    +0.000 C 
BRANCH   8   9
ATOM      9  C   UNL     1       1.830   7.184  20.452  0.00  0.00    +0.000 A 
ATOM     10  C   UNL     1       0.943   7.774  21.384  0.00  0.00    +0.000 A 
ATOM     11  C   UNL     1       0.388   9.042  21.157  0.00  0.00    +0.000 A 
ATOM     12  C   UNL     1       0.722   9.691  19.991  0.00  0.00    +0.000 A 
ATOM     13  C   UNL     1       1.554   9.117  19.062  0.00  0.00    +0.000 A 
ATOM     14  C   UNL     1       2.108   7.868  19.252  0.00  0.00    +0.000 A 
ATOM     15  O   UNL     1       1.755   9.917  17.981  0.00  0.00    +0.000 OA
ATOM     16  C   UNL     1       0.954  11.063  18.338  0.00  0.00    +0.000 C 
ATOM     17  O   UNL     1       0.291  10.923  19.612  0.00  0.00    +0.000 OA
ENDBRANCH   8   9
ENDBRANCH   2   8
BRANCH   7  18
ATOM     18  C   UNL     1       4.954   4.205  19.232  0.00  0.00    +0.000 C 
BRANCH  18  19
ATOM     19  N   UNL     1       6.006   5.095  18.785  0.00  0.00    +0.000 N 
ATOM     20  N   UNL     1       7.172   5.192  19.455  0.00  0.00    +0.000 NA
ATOM     21  C   UNL     1       7.777   6.182  18.792  0.00  0.00    +0.000 A 
ATOM     22  C   UNL     1       6.955   6.629  17.750  0.00  0.00    +0.000 A 
ATOM     23  N   UNL     1       5.816   5.932  17.741  0.00  0.00    +0.000 NA
ENDBRANCH  18  19
ENDBRANCH   7  18
TORSDOF 4
ENDMDL
MODEL 7
REMARK VINA RESULT:      -6.8      3.577      5.688
REMARK  Name = 
REMARK  4 active torsions:
REMARK  status: ('A' for Active; 'I' for Inactive)
REMARK    1  A    between atoms: C_2  and  C_3
REMARK    2  A    between atoms: C_3  and  C_4
REMARK    3  A    between atoms: C_17  and  C_18
REMARK    4  A    between atoms: C_18  and  N_19
REMARK                            x       y       z     vdW  Elec       q    Type
REMARK                         _______ _______ _______ _____ _____    ______ ____
ROOT
ATOM      1  O   UNL     1       3.749   6.789  16.718  0.00  0.00    +0.000 OA
ATOM      2  C   UNL     1       4.559   5.925  17.070  0.00  0.00    +0.000 C 
ATOM      3  N   UNL     1       5.829   6.273  17.491  0.00  0.00    +0.000 N 
ATOM      4  C   UNL     1       6.154   7.686  17.599  0.00  0.00    +0.000 C 
ATOM      5  C   UNL     1       7.664   7.710  17.625  0.00  0.00    +0.000 C 
ATOM      6  C   UNL     1       7.999   6.480  18.459  0.00  0.00    +0.000 C 
ATOM      7  C   UNL     1       6.906   5.446  18.093  0.00  0.00    +0.000 C 
ENDROOT
BRANCH   2   8
ATOM      8  C   UNL     1       4.158   4.460  17.000  0.00  0.00    +0.000 C 
BRANCH   8   9
ATOM      9  C   UNL     1       3.767   3.835  18.328  0.00  0.00    +0.000 A 
ATOM     10  C   UNL     1       4.657   3.022  19.070  0.00  0.00    +0.000 A 
ATOM     11  C   UNL     1       4.281   2.472  20.303  0.00  0.00    +0.000 A 
ATOM     12  C   UNL     1       3.013   2.736  20.766  0.00  0.00    +0.000 A 
ATOM     13  C   UNL     1       2.127   3.494  20.042  0.00  0.00    +0.000 A 
ATOM     14  C   UNL     1       2.465   4.042  18.821  0.00  0.00    +0.000 A 
ATOM     15  O   UNL     1       0.929   3.634  20.669  0.00  0.00    +0.000 OA
ATOM     16  C   UNL     1       1.163   2.876  21.874  0.00  0.00    +0.000 C 
ATOM     17  O   UNL     1       2.484   2.298  21.939  0.00  0.00    +0.000 OA
ENDBRANCH   8   9
ENDBRANCH   2   8
BRANCH   7  18
ATOM     18  C   UNL     1       7.457   4.334  17.193  0.00  0.00    +0.000 C 
BRANCH  18  19
ATOM     19  N   UNL     1       7.108   4.500  15.798  0.00  0.00    +0.000 N 
ATOM     20  N   UNL     1       6.283   3.635  15.175  0.00  0.00    +0.000 NA
ATOM     21  C   UNL     1       6.333   4.079  13.916  0.00  0.00    +0.000 A 
ATOM     22  C   UNL     1       7.176   5.194  13.838  0.00  0.00    +0.000 A 
ATOM     23  N   UNL     1       7.676   5.470  15.046  0.00  0.00    +0.000 NA
ENDBRANCH  18  19
ENDBRANCH   7  18
TORSDOF 4
ENDMDL
MODEL 8
REMARK VINA RESULT:      -6.7      1.722      3.896
REMARK  Name = 
REMARK  4 active torsions:
REMARK  status: ('A' for Active; 'I' for Inactive)
REMARK    1  A    between atoms: C_2  and  C_3
REMARK    2  A    between atoms: C_3  and  C_4
REMARK    3  A    between atoms: C_17  and  C_18
REMARK    4  A    between atoms: C_18  and  N_19
REMARK                            x       y       z     vdW  Elec       q    Type
REMARK                         _______ _______ _______ _____ _____    ______ ____
ROOT
ATOM      1  O   UNL     1       4.704   7.465  16.288  0.00  0.00    +0.000 OA
ATOM      2  C   UNL     1       4.416   6.680  17.197  0.00  0.00    +0.000 C 
ATOM      3  N   UNL     1       5.402   6.009  17.896  0.00  0.00    +0.000 N 
ATOM      4  C   UNL     1       6.790   6.326  17.598  0.00  0.00    +0.000 C 
ATOM      5  C   UNL     1       7.558   5.153  18.161  0.00  0.00    +0.000 C 
ATOM      6  C   UNL     1       6.795   4.844  19.443  0.00  0.00    +0.000 C 
ATOM      7  C   UNL     1       5.315   5.149  19.103  0.00  0.00    +0.000 C 
ENDROOT
BRANCH   2   8
ATOM      8  C   UNL     1       2.952   6.423  17.519  0.00  0.00    +0.000 C 
BRANCH   8   9
ATOM      9  C   UNL     1       2.264   7.522  18.309  0.00  0.00    +0.000 A 
ATOM     10  C   UNL     1       1.751   8.688  17.692  0.00  0.00    +0.000 A 
ATOM     11  C   UNL     1       1.102   9.681  18.440  0.00  0.00    +0.000 A 
ATOM     12  C   UNL     1       0.991   9.493  19.798  0.00  0.00    +0.000 A 
ATOM     13  C   UNL     1       1.513   8.384  20.416  0.00  0.00    +0.000 A 
ATOM     14  C   UNL     1       2.165   7.395  19.708  0.00  0.00    +0.000 A 
ATOM     15  O   UNL     1       1.301   8.389  21.759  0.00  0.00    +0.000 OA
ATOM     16  C   UNL     1       0.583   9.631  21.915  0.00  0.00    +0.000 C 
ATOM     17  O   UNL     1       0.387  10.339  20.674  0.00  0.00    +0.000 OA
ENDBRANCH   8   9
ENDBRANCH   2   8
BRANCH   7  18
ATOM     18  C   UNL     1       4.498   3.863  18.932  0.00  0.00    +0.000 C 
BRANCH  18  19
ATOM     19  N   UNL     1       3.239   3.886  19.646  0.00  0.00    +0.000 N 
ATOM     20  N   UNL     1       3.173   4.264  20.939  0.00  0.00    +0.000 NA
ATOM     21  C   UNL     1       1.891   4.023  21.222  0.00  0.00    +0.000 A 
ATOM     22  C   UNL     1       1.239   3.521  20.088  0.00  0.00    +0.000 A 
ATOM     23  N   UNL     1       2.102   3.432  19.072  0.00  0.00    +0.000 NA
ENDBRANCH  18  19
ENDBRANCH   7  18
TORSDOF 4
ENDMDL
MODEL 9
REMARK VINA RESULT:      -6.7      2.088      3.829
REMARK  Name = 
REMARK  4 active torsions:
REMARK  status: ('A' for Active; 'I' for Inactive)
REMARK    1  A    between atoms: C_2  and  C_3
REMARK    2  A    between atoms: C_3  and  C_4
REMARK    3  A    between atoms: C_17  and  C_18
REMARK    4  A    between atoms: C_18  and  N_19
REMARK                            x       y       z     vdW  Elec       q    Type
REMARK                         _______ _______ _______ _____ _____    ______ ____
ROOT
ATOM      1  O   UNL     1       4.610   7.779  17.392  0.00  0.00    +0.000 OA
ATOM      2  C   UNL     1       4.209   6.623  17.561  0.00  0.00    +0.000 C 
ATOM      3  N   UNL     1       4.761   5.571  16.854  0.00  0.00    +0.000 N 
ATOM      4  C   UNL     1       5.890   5.848  15.981  0.00  0.00    +0.000 C 
ATOM      5  C   UNL     1       5.940   4.649  15.062  0.00  0.00    +0.000 C 
ATOM      6  C   UNL     1       5.583   3.502  15.997  0.00  0.00    +0.000 C 
ATOM      7  C   UNL     1       4.557   4.106  16.988  0.00  0.00    +0.000 C 
ENDROOT
BRANCH   2   8
ATOM      8  C   UNL     1       3.066   6.368  18.531  0.00  0.00    +0.000 C 
BRANCH   8   9
ATOM      9  C   UNL     1       2.219   7.584  18.861  0.00  0.00    +0.000 A 
ATOM     10  C   UNL     1       1.834   8.526  17.878  0.00  0.00    +0.000 A 
ATOM     11  C   UNL     1       1.034   9.631  18.202  0.00  0.00    +0.000 A 
ATOM     12  C   UNL     1       0.646   9.780  19.514  0.00  0.00    +0.000 A 
ATOM     13  C   UNL     1       1.040   8.895  20.486  0.00  0.00    +0.000 A 
ATOM     14  C   UNL     1       1.834   7.803  20.198  0.00  0.00    +0.000 A 
ATOM     15  O   UNL     1       0.555   9.220  21.714  0.00  0.00    +0.000 OA
ATOM     16  C   UNL     1      -0.192  10.415  21.401  0.00  0.00    +0.000 C 
ATOM     17  O   UNL     1      -0.134  10.778  20.007  0.00  0.00    +0.000 OA
ENDBRANCH   8   9
ENDBRANCH   2   8
BRANCH   7  18
ATOM     18  C   UNL     1       3.134   3.614  16.699  0.00  0.00    +0.000 C 
BRANCH  18  19
ATOM     19  N   UNL     1       2.442   3.139  17.879  0.00  0.00    +0.000 N 
ATOM     20  N   UNL     1       3.097   2.483  18.859  0.00  0.00    +0.000 NA
ATOM     21  C   UNL     1       2.090   2.131  19.662  0.00  0.00    +0.000 A 
ATOM     22  C   UNL     1       0.877   2.596  19.137  0.00  0.00    +0.000 A 
ATOM     23  N   UNL     1       1.099   3.246  17.991  0.00  0.00    +0.000 NA
ENDBRANCH  18  19
ENDBRANCH   7  18
TORSDOF 4
ENDMDL
