MODEL 1
REMARK VINA RESULT:      -8.7      0.000      0.000
REMARK  Name = 
REMARK  4 active torsions:
REMARK  status: ('A' for Active; 'I' for Inactive)
REMARK    1  A    between atoms: C_2  and  C_3
REMARK    2  A    between atoms: C_3  and  O_4
REMARK    3  A    between atoms: O_4  and  N_5
REMARK    4  A    between atoms: C_7  and  C_8
REMARK                            x       y       z     vdW  Elec       q    Type
REMARK                         _______ _______ _______ _____ _____    ______ ____
ROOT
ATOM      1  N   UNL     1       3.928   6.615  17.676  0.00  0.00    +0.000 NA
ATOM      2  C   UNL     1       3.729   5.339  17.574  0.00  0.00    +0.000 C 
ATOM      3  C   UNL     1       4.628   4.409  16.776  0.00  0.00    +0.000 C 
ATOM      4  N   UNL     1       4.288   3.159  16.964  0.00  0.00    +0.000 NA
ATOM      5  C   UNL     1       3.187   3.177  17.839  0.00  0.00    +0.000 A 
ATOM      6  C   UNL     1       2.558   2.062  18.363  0.00  0.00    +0.000 A 
ATOM      7  C   UNL     1       1.491   2.252  19.250  0.00  0.00    +0.000 A 
ATOM      8  C   UNL     1       1.052   3.545  19.578  0.00  0.00    +0.000 A 
ATOM      9  C   UNL     1       1.685   4.667  19.044  0.00  0.00    +0.000 A 
ATOM     10  C   UNL     1       2.759   4.452  18.200  0.00  0.00    +0.000 A 
ENDROOT
BRANCH   3  11
ATOM     11  C   UNL     1       5.729   4.766  15.902  0.00  0.00    +0.000 A 
ATOM     12  C   UNL     1       6.797   5.579  16.247  0.00  0.00    +0.000 A 
ATOM     13  N   UNL     1       7.636   5.686  15.174  0.00  0.00    +0.000 N 
ATOM     14  C   UNL     1       7.139   4.971  14.110  0.00  0.00    +0.000 A 
ATOM     15  C   UNL     1       7.654   4.817  12.816  0.00  0.00    +0.000 A 
ATOM     16  C   UNL     1       6.925   4.031  11.920  0.00  0.00    +0.000 A 
ATOM     17  C   UNL     1       5.738   3.420  12.307  0.00  0.00    +0.000 A 
ATOM     18  C   UNL     1       5.242   3.579  13.606  0.00  0.00    +0.000 A 
ATOM     19  C   UNL     1       5.951   4.376  14.534  0.00  0.00    +0.000 A 
ATOM     20  H   UNL     1       8.492   6.221  15.155  0.00  0.00    +0.000 HD
ENDBRANCH   3  11
BRANCH   1  21
ATOM     21  O   UNL     1       2.960   7.228  18.478  0.00  0.00    +0.000 OA
BRANCH  21  22
ATOM     22  C   UNL     1       2.379   8.332  17.784  0.00  0.00    +0.000 C 
BRANCH  22  24
ATOM     23  C   UNL     1       0.603  10.004  18.409  0.00  0.00    +0.000 C 
ATOM     24  C   UNL     1       1.456   9.025  18.737  0.00  0.00    +0.000 C 
ENDBRANCH  22  24
ENDBRANCH  21  22
ENDBRANCH   1  21
TORSDOF 4
ENDMDL
MODEL 2
REMARK VINA RESULT:      -8.1      1.201      1.305
REMARK  Name = 
REMARK  4 active torsions:
REMARK  status: ('A' for Active; 'I' for Inactive)
REMARK    1  A    between atoms: C_2  and  C_3
REMARK    2  A    between atoms: C_3  and  O_4
REMARK    3  A    between atoms: O_4  and  N_5
REMARK    4  A    between atoms: C_7  and  C_8
REMARK                            x       y       z     vdW  Elec       q    Type
REMARK                         _______ _______ _______ _____ _____    ______ ____
ROOT
ATOM      1  N   UNL     1       3.362   6.836  17.927  0.00  0.00    +0.000 NA
ATOM      2  C   UNL     1       3.565   5.622  18.329  0.00  0.00    +0.000 C 
ATOM      3  C   UNL     1       4.779   4.797  17.932  0.00  0.00    +0.000 C 
ATOM      4  N   UNL     1       4.812   3.668  18.594  0.00  0.00    +0.000 NA
ATOM      5  C   UNL     1       3.673   3.661  19.418  0.00  0.00    +0.000 A 
ATOM      6  C   UNL     1       3.356   2.684  20.344  0.00  0.00    +0.000 A 
ATOM      7  C   UNL     1       2.195   2.843  21.113  0.00  0.00    +0.000 A 
ATOM      8  C   UNL     1       1.357   3.955  20.926  0.00  0.00    +0.000 A 
ATOM      9  C   UNL     1       1.677   4.936  19.988  0.00  0.00    +0.000 A 
ATOM     10  C   UNL     1       2.847   4.773  19.269  0.00  0.00    +0.000 A 
ENDROOT
BRANCH   3  11
ATOM     11  C   UNL     1       5.807   5.131  16.965  0.00  0.00    +0.000 A 
ATOM     12  C   UNL     1       6.883   5.972  17.195  0.00  0.00    +0.000 A 
ATOM     13  N   UNL     1       7.640   6.046  16.060  0.00  0.00    +0.000 N 
ATOM     14  C   UNL     1       7.077   5.280  15.066  0.00  0.00    +0.000 A 
ATOM     15  C   UNL     1       7.497   5.079  13.745  0.00  0.00    +0.000 A 
ATOM     16  C   UNL     1       6.717   4.247  12.938  0.00  0.00    +0.000 A 
ATOM     17  C   UNL     1       5.572   3.637  13.436  0.00  0.00    +0.000 A 
ATOM     18  C   UNL     1       5.171   3.844  14.761  0.00  0.00    +0.000 A 
ATOM     19  C   UNL     1       5.933   4.688  15.601  0.00  0.00    +0.000 A 
ATOM     20  H   UNL     1       8.483   6.590  15.955  0.00  0.00    +0.000 HD
ENDBRANCH   3  11
BRANCH   1  21
ATOM     21  O   UNL     1       2.177   7.363  18.452  0.00  0.00    +0.000 OA
BRANCH  21  22
ATOM     22  C   UNL     1       2.047   8.735  18.080  0.00  0.00    +0.000 C 
BRANCH  22  24
ATOM     23  C   UNL     1       1.026   8.947  20.371  0.00  0.00    +0.000 C 
ATOM     24  C   UNL     1       1.217   9.407  19.129  0.00  0.00    +0.000 C 
ENDBRANCH  22  24
ENDBRANCH  21  22
ENDBRANCH   1  21
TORSDOF 4
ENDMDL
MODEL 3
REMARK VINA RESULT:      -7.9      2.200      6.304
REMARK  Name = 
REMARK  4 active torsions:
REMARK  status: ('A' for Active; 'I' for Inactive)
REMARK    1  A    between atoms: C_2  and  C_3
REMARK    2  A    between atoms: C_3  and  O_4
REMARK    3  A    between atoms: O_4  and  N_5
REMARK    4  A    between atoms: C_7  and  C_8
REMARK                            x       y       z     vdW  Elec       q    Type
REMARK                         _______ _______ _______ _____ _____    ______ ____
ROOT
ATOM      1  N   UNL     1       6.183   6.829  17.450  0.00  0.00    +0.000 NA
ATOM      2  C   UNL     1       5.804   5.816  16.737  0.00  0.00    +0.000 C 
ATOM      3  C   UNL     1       4.564   4.991  17.040  0.00  0.00    +0.000 C 
ATOM      4  N   UNL     1       4.333   4.129  16.082  0.00  0.00    +0.000 NA
ATOM      5  C   UNL     1       5.360   4.303  15.139  0.00  0.00    +0.000 A 
ATOM      6  C   UNL     1       5.460   3.644  13.927  0.00  0.00    +0.000 A 
ATOM      7  C   UNL     1       6.533   3.956  13.082  0.00  0.00    +0.000 A 
ATOM      8  C   UNL     1       7.501   4.897  13.470  0.00  0.00    +0.000 A 
ATOM      9  C   UNL     1       7.401   5.556  14.694  0.00  0.00    +0.000 A 
ATOM     10  C   UNL     1       6.312   5.257  15.493  0.00  0.00    +0.000 A 
ENDROOT
BRANCH   3  11
ATOM     11  C   UNL     1       3.698   5.076  18.200  0.00  0.00    +0.000 A 
ATOM     12  C   UNL     1       3.737   6.074  19.160  0.00  0.00    +0.000 A 
ATOM     13  N   UNL     1       2.775   5.826  20.097  0.00  0.00    +0.000 N 
ATOM     14  C   UNL     1       2.103   4.667  19.790  0.00  0.00    +0.000 A 
ATOM     15  C   UNL     1       1.063   4.026  20.477  0.00  0.00    +0.000 A 
ATOM     16  C   UNL     1       0.567   2.837  19.936  0.00  0.00    +0.000 A 
ATOM     17  C   UNL     1       1.085   2.319  18.755  0.00  0.00    +0.000 A 
ATOM     18  C   UNL     1       2.119   2.976  18.079  0.00  0.00    +0.000 A 
ATOM     19  C   UNL     1       2.650   4.176  18.605  0.00  0.00    +0.000 A 
ATOM     20  H   UNL     1       2.587   6.400  20.907  0.00  0.00    +0.000 HD
ENDBRANCH   3  11
BRANCH   1  21
ATOM     21  O   UNL     1       7.347   7.413  16.941  0.00  0.00    +0.000 OA
BRANCH  21  22
ATOM     22  C   UNL     1       8.186   7.843  18.013  0.00  0.00    +0.000 C 
BRANCH  22  24
ATOM     23  C   UNL     1       9.046  10.105  18.706  0.00  0.00    +0.000 C 
ATOM     24  C   UNL     1       8.218   9.339  17.986  0.00  0.00    +0.000 C 
ENDBRANCH  22  24
ENDBRANCH  21  22
ENDBRANCH   1  21
TORSDOF 4
ENDMDL
MODEL 4
REMARK VINA RESULT:      -7.8      2.376      7.021
REMARK  Name = 
REMARK  4 active torsions:
REMARK  status: ('A' for Active; 'I' for Inactive)
REMARK    1  A    between atoms: C_2  and  C_3
REMARK    2  A    between atoms: C_3  and  O_4
REMARK    3  A    between atoms: O_4  and  N_5
REMARK    4  A    between atoms: C_7  and  C_8
REMARK                            x       y       z     vdW  Elec       q    Type
REMARK                         _______ _______ _______ _____ _____    ______ ____
ROOT
ATOM      1  N   UNL     1       1.818   5.188  18.476  0.00  0.00    +0.000 NA
ATOM      2  C   UNL     1       2.839   5.724  17.885  0.00  0.00    +0.000 C 
ATOM      3  C   UNL     1       3.091   7.222  17.835  0.00  0.00    +0.000 C 
ATOM      4  N   UNL     1       4.262   7.480  17.310  0.00  0.00    +0.000 NA
ATOM      5  C   UNL     1       4.828   6.236  16.978  0.00  0.00    +0.000 A 
ATOM      6  C   UNL     1       6.098   6.041  16.466  0.00  0.00    +0.000 A 
ATOM      7  C   UNL     1       6.525   4.731  16.218  0.00  0.00    +0.000 A 
ATOM      8  C   UNL     1       5.671   3.640  16.457  0.00  0.00    +0.000 A 
ATOM      9  C   UNL     1       4.389   3.841  16.969  0.00  0.00    +0.000 A 
ATOM     10  C   UNL     1       4.007   5.142  17.239  0.00  0.00    +0.000 A 
ENDROOT
BRANCH   3  11
ATOM     11  C   UNL     1       2.215   8.289  18.280  0.00  0.00    +0.000 A 
ATOM     12  C   UNL     1       1.805   9.365  17.509  0.00  0.00    +0.000 A 
ATOM     13  N   UNL     1       0.985  10.160  18.259  0.00  0.00    +0.000 N 
ATOM     14  C   UNL     1       0.853   9.642  19.526  0.00  0.00    +0.000 A 
ATOM     15  C   UNL     1       0.131  10.132  20.622  0.00  0.00    +0.000 A 
ATOM     16  C   UNL     1       0.181   9.398  21.810  0.00  0.00    +0.000 A 
ATOM     17  C   UNL     1       0.916   8.221  21.892  0.00  0.00    +0.000 A 
ATOM     18  C   UNL     1       1.626   7.743  20.785  0.00  0.00    +0.000 A 
ATOM     19  C   UNL     1       1.603   8.467  19.570  0.00  0.00    +0.000 A 
ATOM     20  H   UNL     1       0.546  11.011  17.939  0.00  0.00    +0.000 HD
ENDBRANCH   3  11
BRANCH   1  21
ATOM     21  O   UNL     1       1.839   3.793  18.380  0.00  0.00    +0.000 OA
BRANCH  21  22
ATOM     22  C   UNL     1       0.921   3.227  19.316  0.00  0.00    +0.000 C 
BRANCH  22  24
ATOM     23  C   UNL     1       2.082   3.448  21.539  0.00  0.00    +0.000 C 
ATOM     24  C   UNL     1       1.181   3.869  20.643  0.00  0.00    +0.000 C 
ENDBRANCH  22  24
ENDBRANCH  21  22
ENDBRANCH   1  21
TORSDOF 4
ENDMDL
MODEL 5
REMARK VINA RESULT:      -7.8      2.270      6.423
REMARK  Name = 
REMARK  4 active torsions:
REMARK  status: ('A' for Active; 'I' for Inactive)
REMARK    1  A    between atoms: C_2  and  C_3
REMARK    2  A    between atoms: C_3  and  O_4
REMARK    3  A    between atoms: O_4  and  N_5
REMARK    4  A    between atoms: C_7  and  C_8
REMARK                            x       y       z     vdW  Elec       q    Type
REMARK                         _______ _______ _______ _____ _____    ______ ____
ROOT
ATOM      1  N   UNL     1       6.485   6.121  17.417  0.00  0.00    +0.000 NA
ATOM      2  C   UNL     1       6.139   5.233  16.540  0.00  0.00    +0.000 C 
ATOM      3  C   UNL     1       4.983   4.264  16.736  0.00  0.00    +0.000 C 
ATOM      4  N   UNL     1       4.758   3.582  15.641  0.00  0.00    +0.000 NA
ATOM      5  C   UNL     1       5.709   4.017  14.702  0.00  0.00    +0.000 A 
ATOM      6  C   UNL     1       5.782   3.609  13.382  0.00  0.00    +0.000 A 
ATOM      7  C   UNL     1       6.774   4.165  12.565  0.00  0.00    +0.000 A 
ATOM      8  C   UNL     1       7.693   5.094  13.081  0.00  0.00    +0.000 A 
ATOM      9  C   UNL     1       7.620   5.499  14.413  0.00  0.00    +0.000 A 
ATOM     10  C   UNL     1       6.608   4.963  15.189  0.00  0.00    +0.000 A 
ENDROOT
BRANCH   3  11
ATOM     11  C   UNL     1       4.188   4.054  17.930  0.00  0.00    +0.000 A 
ATOM     12  C   UNL     1       4.016   2.842  18.577  0.00  0.00    +0.000 A 
ATOM     13  N   UNL     1       3.209   3.029  19.663  0.00  0.00    +0.000 N 
ATOM     14  C   UNL     1       2.822   4.346  19.744  0.00  0.00    +0.000 A 
ATOM     15  C   UNL     1       1.988   4.979  20.674  0.00  0.00    +0.000 A 
ATOM     16  C   UNL     1       1.753   6.346  20.508  0.00  0.00    +0.000 A 
ATOM     17  C   UNL     1       2.337   7.049  19.461  0.00  0.00    +0.000 A 
ATOM     18  C   UNL     1       3.174   6.402  18.544  0.00  0.00    +0.000 A 
ATOM     19  C   UNL     1       3.424   5.017  18.679  0.00  0.00    +0.000 A 
ATOM     20  H   UNL     1       2.923   2.308  20.310  0.00  0.00    +0.000 HD
ENDBRANCH   3  11
BRANCH   1  21
ATOM     21  O   UNL     1       7.570   6.887  16.977  0.00  0.00    +0.000 OA
BRANCH  21  22
ATOM     22  C   UNL     1       8.156   7.580  18.079  0.00  0.00    +0.000 C 
BRANCH  22  24
ATOM     23  C   UNL     1       8.803   9.990  18.412  0.00  0.00    +0.000 C 
ATOM     24  C   UNL     1       8.119   9.042  17.760  0.00  0.00    +0.000 C 
ENDBRANCH  22  24
ENDBRANCH  21  22
ENDBRANCH   1  21
TORSDOF 4
ENDMDL
MODEL 6
REMARK VINA RESULT:      -7.8      2.848      7.711
REMARK  Name = 
REMARK  4 active torsions:
REMARK  status: ('A' for Active; 'I' for Inactive)
REMARK    1  A    between atoms: C_2  and  C_3
REMARK    2  A    between atoms: C_3  and  O_4
REMARK    3  A    between atoms: O_4  and  N_5
REMARK    4  A    between atoms: C_7  and  C_8
REMARK                            x       y       z     vdW  Elec       q    Type
REMARK                         _______ _______ _______ _____ _____    ______ ____
ROOT
ATOM      1  N   UNL     1       1.931   6.021  20.287  0.00  0.00    +0.000 NA
ATOM      2  C   UNL     1       2.546   6.436  19.225  0.00  0.00    +0.000 C 
ATOM      3  C   UNL     1       2.351   7.821  18.628  0.00  0.00    +0.000 C 
ATOM      4  N   UNL     1       3.200   8.031  17.654  0.00  0.00    +0.000 NA
ATOM      5  C   UNL     1       3.962   6.856  17.534  0.00  0.00    +0.000 A 
ATOM      6  C   UNL     1       5.029   6.673  16.673  0.00  0.00    +0.000 A 
ATOM      7  C   UNL     1       5.707   5.448  16.699  0.00  0.00    +0.000 A 
ATOM      8  C   UNL     1       5.294   4.417  17.560  0.00  0.00    +0.000 A 
ATOM      9  C   UNL     1       4.215   4.603  18.424  0.00  0.00    +0.000 A 
ATOM     10  C   UNL     1       3.587   5.834  18.404  0.00  0.00    +0.000 A 
ENDROOT
BRANCH   3  11
ATOM     11  C   UNL     1       1.386   8.831  19.016  0.00  0.00    +0.000 A 
ATOM     12  C   UNL     1       0.708   9.670  18.147  0.00  0.00    +0.000 A 
ATOM     13  N   UNL     1      -0.117  10.484  18.869  0.00  0.00    +0.000 N 
ATOM     14  C   UNL     1       0.011  10.216  20.212  0.00  0.00    +0.000 A 
ATOM     15  C   UNL     1      -0.622  10.817  21.308  0.00  0.00    +0.000 A 
ATOM     16  C   UNL     1      -0.292  10.347  22.582  0.00  0.00    +0.000 A 
ATOM     17  C   UNL     1       0.626   9.316  22.748  0.00  0.00    +0.000 A 
ATOM     18  C   UNL     1       1.243   8.723  21.641  0.00  0.00    +0.000 A 
ATOM     19  C   UNL     1       0.937   9.182  20.338  0.00  0.00    +0.000 A 
ATOM     20  H   UNL     1      -0.726  11.190  18.482  0.00  0.00    +0.000 HD
ENDBRANCH   3  11
BRANCH   1  21
ATOM     21  O   UNL     1       2.306   4.716  20.624  0.00  0.00    +0.000 OA
BRANCH  21  22
ATOM     22  C   UNL     1       1.145   3.896  20.761  0.00  0.00    +0.000 C 
BRANCH  22  24
ATOM     23  C   UNL     1       1.039   2.587  18.613  0.00  0.00    +0.000 C 
ATOM     24  C   UNL     1       1.351   2.681  19.911  0.00  0.00    +0.000 C 
ENDBRANCH  22  24
ENDBRANCH  21  22
ENDBRANCH   1  21
TORSDOF 4
ENDMDL
MODEL 7
REMARK VINA RESULT:      -7.7      3.081      7.044
REMARK  Name = 
REMARK  4 active torsions:
REMARK  status: ('A' for Active; 'I' for Inactive)
REMARK    1  A    between atoms: C_2  and  C_3
REMARK    2  A    between atoms: C_3  and  O_4
REMARK    3  A    between atoms: O_4  and  N_5
REMARK    4  A    between atoms: C_7  and  C_8
REMARK                            x       y       z     vdW  Elec       q    Type
REMARK                         _______ _______ _______ _____ _____    ______ ____
ROOT
ATOM      1  N   UNL     1       4.287   6.641  17.571  0.00  0.00    +0.000 NA
ATOM      2  C   UNL     1       3.647   6.138  18.579  0.00  0.00    +0.000 C 
ATOM      3  C   UNL     1       2.464   6.818  19.248  0.00  0.00    +0.000 C 
ATOM      4  N   UNL     1       1.915   6.029  20.137  0.00  0.00    +0.000 NA
ATOM      5  C   UNL     1       2.668   4.842  20.129  0.00  0.00    +0.000 A 
ATOM      6  C   UNL     1       2.387   3.706  20.866  0.00  0.00    +0.000 A 
ATOM      7  C   UNL     1       3.221   2.591  20.721  0.00  0.00    +0.000 A 
ATOM      8  C   UNL     1       4.336   2.635  19.866  0.00  0.00    +0.000 A 
ATOM      9  C   UNL     1       4.620   3.784  19.128  0.00  0.00    +0.000 A 
ATOM     10  C   UNL     1       3.759   4.857  19.262  0.00  0.00    +0.000 A 
ENDROOT
BRANCH   3  11
ATOM     11  C   UNL     1       1.946   8.151  19.004  0.00  0.00    +0.000 A 
ATOM     12  C   UNL     1       2.016   8.830  17.798  0.00  0.00    +0.000 A 
ATOM     13  N   UNL     1       1.422  10.052  17.944  0.00  0.00    +0.000 N 
ATOM     14  C   UNL     1       0.971  10.209  19.233  0.00  0.00    +0.000 A 
ATOM     15  C   UNL     1       0.326  11.301  19.829  0.00  0.00    +0.000 A 
ATOM     16  C   UNL     1      -0.016  11.191  21.179  0.00  0.00    +0.000 A 
ATOM     17  C   UNL     1       0.269  10.036  21.897  0.00  0.00    +0.000 A 
ATOM     18  C   UNL     1       0.908   8.952  21.284  0.00  0.00    +0.000 A 
ATOM     19  C   UNL     1       1.276   9.035  19.921  0.00  0.00    +0.000 A 
ATOM     20  H   UNL     1       1.335  10.749  17.218  0.00  0.00    +0.000 HD
ENDBRANCH   3  11
BRANCH   1  21
ATOM     21  O   UNL     1       5.322   5.802  17.145  0.00  0.00    +0.000 OA
BRANCH  21  22
ATOM     22  C   UNL     1       6.566   6.502  17.190  0.00  0.00    +0.000 C 
BRANCH  22  24
ATOM     23  C   UNL     1       7.808   5.801  19.264  0.00  0.00    +0.000 C 
ATOM     24  C   UNL     1       7.529   5.656  17.963  0.00  0.00    +0.000 C 
ENDBRANCH  22  24
ENDBRANCH  21  22
ENDBRANCH   1  21
TORSDOF 4
ENDMDL
MODEL 8
REMARK VINA RESULT:      -7.7      2.060      6.848
REMARK  Name = 
REMARK  4 active torsions:
REMARK  status: ('A' for Active; 'I' for Inactive)
REMARK    1  A    between atoms: C_2  and  C_3
REMARK    2  A    between atoms: C_3  and  O_4
REMARK    3  A    between atoms: O_4  and  N_5
REMARK    4  A    between atoms: C_7  and  C_8
REMARK                            x       y       z     vdW  Elec       q    Type
REMARK                         _______ _______ _______ _____ _____    ______ ____
ROOT
ATOM      1  N   UNL     1       2.218   4.319  17.826  0.00  0.00    +0.000 NA
ATOM      2  C   UNL     1       3.252   5.061  17.584  0.00  0.00    +0.000 C 
ATOM      3  C   UNL     1       3.512   6.391  18.273  0.00  0.00    +0.000 C 
ATOM      4  N   UNL     1       4.694   6.856  17.955  0.00  0.00    +0.000 NA
ATOM      5  C   UNL     1       5.260   5.923  17.068  0.00  0.00    +0.000 A 
ATOM      6  C   UNL     1       6.537   5.985  16.543  0.00  0.00    +0.000 A 
ATOM      7  C   UNL     1       6.962   4.955  15.694  0.00  0.00    +0.000 A 
ATOM      8  C   UNL     1       6.099   3.898  15.361  0.00  0.00    +0.000 A 
ATOM      9  C   UNL     1       4.809   3.841  15.889  0.00  0.00    +0.000 A 
ATOM     10  C   UNL     1       4.428   4.851  16.753  0.00  0.00    +0.000 A 
ENDROOT
BRANCH   3  11
ATOM     11  C   UNL     1       2.633   7.118  19.168  0.00  0.00    +0.000 A 
ATOM     12  C   UNL     1       2.225   6.685  20.419  0.00  0.00    +0.000 A 
ATOM     13  N   UNL     1       1.408   7.631  20.971  0.00  0.00    +0.000 N 
ATOM     14  C   UNL     1       1.248   8.684  20.101  0.00  0.00    +0.000 A 
ATOM     15  C   UNL     1       0.488   9.852  20.241  0.00  0.00    +0.000 A 
ATOM     16  C   UNL     1       0.500  10.762  19.180  0.00  0.00    +0.000 A 
ATOM     17  C   UNL     1       1.247  10.514  18.035  0.00  0.00    +0.000 A 
ATOM     18  C   UNL     1       2.006   9.344  17.915  0.00  0.00    +0.000 A 
ATOM     19  C   UNL     1       2.008   8.399  18.967  0.00  0.00    +0.000 A 
ATOM     20  H   UNL     1       0.971   7.567  21.879  0.00  0.00    +0.000 HD
ENDBRANCH   3  11
BRANCH   1  21
ATOM     21  O   UNL     1       2.234   3.146  17.064  0.00  0.00    +0.000 OA
BRANCH  21  22
ATOM     22  C   UNL     1       2.280   2.007  17.924  0.00  0.00    +0.000 C 
BRANCH  22  24
ATOM     23  C   UNL     1       1.640   2.362  20.333  0.00  0.00    +0.000 C 
ATOM     24  C   UNL     1       1.312   2.249  19.040  0.00  0.00    +0.000 C 
ENDBRANCH  22  24
ENDBRANCH  21  22
ENDBRANCH   1  21
TORSDOF 4
ENDMDL
MODEL 9
REMARK VINA RESULT:      -7.7      2.663      6.655
REMARK  Name = 
REMARK  4 active torsions:
REMARK  status: ('A' for Active; 'I' for Inactive)
REMARK    1  A    between atoms: C_2  and  C_3
REMARK    2  A    between atoms: C_3  and  O_4
REMARK    3  A    between atoms: O_4  and  N_5
REMARK    4  A    between atoms: C_7  and  C_8
REMARK                            x       y       z     vdW  Elec       q    Type
REMARK                         _______ _______ _______ _____ _____    ______ ____
ROOT
ATOM      1  N   UNL     1       5.060   6.090  19.322  0.00  0.00    +0.000 NA
ATOM      2  C   UNL     1       3.992   5.394  19.086  0.00  0.00    +0.000 C 
ATOM      3  C   UNL     1       2.656   6.010  18.704  0.00  0.00    +0.000 C 
ATOM      4  N   UNL     1       1.792   5.082  18.378  0.00  0.00    +0.000 NA
ATOM      5  C   UNL     1       2.458   3.853  18.530  0.00  0.00    +0.000 A 
ATOM      6  C   UNL     1       1.936   2.611  18.217  0.00  0.00    +0.000 A 
ATOM      7  C   UNL     1       2.744   1.481  18.397  0.00  0.00    +0.000 A 
ATOM      8  C   UNL     1       4.046   1.604  18.911  0.00  0.00    +0.000 A 
ATOM      9  C   UNL     1       4.568   2.857  19.230  0.00  0.00    +0.000 A 
ATOM     10  C   UNL     1       3.762   3.959  19.008  0.00  0.00    +0.000 A 
ENDROOT
BRANCH   3  11
ATOM     11  C   UNL     1       2.295   7.414  18.680  0.00  0.00    +0.000 A 
ATOM     12  C   UNL     1       2.498   8.277  17.614  0.00  0.00    +0.000 A 
ATOM     13  N   UNL     1       2.031   9.515  17.951  0.00  0.00    +0.000 N 
ATOM     14  C   UNL     1       1.533   9.501  19.233  0.00  0.00    +0.000 A 
ATOM     15  C   UNL     1       0.977  10.541  19.989  0.00  0.00    +0.000 A 
ATOM     16  C   UNL     1       0.556  10.243  21.287  0.00  0.00    +0.000 A 
ATOM     17  C   UNL     1       0.680   8.958  21.801  0.00  0.00    +0.000 A 
ATOM     18  C   UNL     1       1.231   7.929  21.029  0.00  0.00    +0.000 A 
ATOM     19  C   UNL     1       1.675   8.200  19.715  0.00  0.00    +0.000 A 
ATOM     20  H   UNL     1       2.055  10.330  17.355  0.00  0.00    +0.000 HD
ENDBRANCH   3  11
BRANCH   1  21
ATOM     21  O   UNL     1       6.150   5.272  19.637  0.00  0.00    +0.000 OA
BRANCH  21  22
ATOM     22  C   UNL     1       7.297   5.680  18.891  0.00  0.00    +0.000 C 
BRANCH  22  24
ATOM     23  C   UNL     1       7.139   4.635  16.606  0.00  0.00    +0.000 C 
ATOM     24  C   UNL     1       7.571   4.617  17.873  0.00  0.00    +0.000 C 
ENDBRANCH  22  24
ENDBRANCH  21  22
ENDBRANCH   1  21
TORSDOF 4
ENDMDL
