MODEL 1
REMARK VINA RESULT:      -7.2      0.000      0.000
REMARK  Name = 
REMARK  3 active torsions:
REMARK  status: ('A' for Active; 'I' for Inactive)
REMARK    1  A    between atoms: C_1  and  C_2
REMARK    2  A    between atoms: C_3  and  C_4
REMARK    3  A    between atoms: C_13  and  C_14
REMARK                            x       y       z     vdW  Elec       q    Type
REMARK                         _______ _______ _______ _____ _____    ______ ____
ROOT
ATOM      1  C   UNL     1      -1.052  14.573  20.637  0.00  0.00    +0.000 C 
ATOM      2  C   UNL     1      -0.850  13.289  19.853  0.00  0.00    +0.000 C 
ATOM      3  C   UNL     1       0.335  12.651  19.575  0.00  0.00    +0.000 C 
ATOM      4  C   UNL     1       0.285  11.362  18.744  0.00  0.00    +0.000 C 
ATOM      5  N   UNL     1      -1.063  11.003  18.275  0.00  0.00    +0.000 N 
ATOM      6  N   UNL     1      -1.277  10.063  17.333  0.00  0.00    +0.000 NA
ATOM      7  C   UNL     1      -2.608  10.070  17.184  0.00  0.00    +0.000 A 
ATOM      8  C   UNL     1      -3.222  11.081  17.944  0.00  0.00    +0.000 A 
ATOM      9  C   UNL     1      -2.189  11.702  18.592  0.00  0.00    +0.000 A 
ATOM     10  N   UNL     1      -2.071  12.776  19.395  0.00  0.00    +0.000 N 
ATOM     11  H   UNL     1      -2.901  13.308  19.634  0.00  0.00    +0.000 HD
ENDROOT
BRANCH   3  12
ATOM     12  C   UNL     1       1.663  13.168  20.150  0.00  0.00    +0.000 C 
ATOM     13  O   UNL     1       1.962  12.807  21.305  0.00  0.00    +0.000 OA
ATOM     14  N   UNL     1       2.591  13.941  19.420  0.00  0.00    +0.000 N 
ATOM     15  C   UNL     1       3.913  14.151  20.030  0.00  0.00    +0.000 C 
ATOM     16  C   UNL     1       4.130  15.606  20.449  0.00  0.00    +0.000 C 
ATOM     17  C   UNL     1       4.540  16.560  19.325  0.00  0.00    +0.000 C 
ATOM     18  C   UNL     1       3.559  16.676  18.175  0.00  0.00    +0.000 C 
ATOM     19  C   UNL     1       3.452  15.367  17.426  0.00  0.00    +0.000 C 
ATOM     20  C   UNL     1       2.433  14.439  18.061  0.00  0.00    +0.000 C 
ENDBRANCH   3  12
BRANCH   4  21
ATOM     21  C   UNL     1       0.972  10.106  19.319  0.00  0.00    +0.000 A 
ATOM     22  C   UNL     1       0.494   9.609  20.557  0.00  0.00    +0.000 A 
ATOM     23  C   UNL     1       0.843   8.342  21.018  0.00  0.00    +0.000 A 
ATOM     24  C   UNL     1       1.653   7.521  20.238  0.00  0.00    +0.000 A 
ATOM     25 CL   UNL     1       1.967   5.928  20.823  0.00  0.00    +0.000 Cl
ATOM     26  C   UNL     1       2.143   7.989  19.012  0.00  0.00    +0.000 A 
ATOM     27 CL   UNL     1       2.998   6.959  17.918  0.00  0.00    +0.000 Cl
ATOM     28  C   UNL     1       1.851   9.292  18.579  0.00  0.00    +0.000 A 
ENDBRANCH   4  21
TORSDOF 2
ENDMDL
MODEL 2
REMARK VINA RESULT:      -6.6      1.541      1.657
REMARK  Name = 
REMARK  3 active torsions:
REMARK  status: ('A' for Active; 'I' for Inactive)
REMARK    1  A    between atoms: C_1  and  C_2
REMARK    2  A    between atoms: C_3  and  C_4
REMARK    3  A    between atoms: C_13  and  C_14
REMARK                            x       y       z     vdW  Elec       q    Type
REMARK                         _______ _______ _______ _____ _____    ______ ____
ROOT
ATOM      1  C   UNL     1      -3.041  13.967  21.127  0.00  0.00    +0.000 C 
ATOM      2  C   UNL     1      -2.417  12.928  20.212  0.00  0.00    +0.000 C 
ATOM      3  C   UNL     1      -1.082  12.638  20.056  0.00  0.00    +0.000 C 
ATOM      4  C   UNL     1      -0.691  11.547  19.051  0.00  0.00    +0.000 C 
ATOM      5  N   UNL     1      -1.829  10.981  18.308  0.00  0.00    +0.000 N 
ATOM      6  N   UNL     1      -1.669  10.206  17.218  0.00  0.00    +0.000 NA
ATOM      7  C   UNL     1      -2.926   9.936  16.842  0.00  0.00    +0.000 A 
ATOM      8  C   UNL     1      -3.873  10.624  17.621  0.00  0.00    +0.000 A 
ATOM      9  C   UNL     1      -3.127  11.335  18.522  0.00  0.00    +0.000 A 
ATOM     10  N   UNL     1      -3.394  12.243  19.480  0.00  0.00    +0.000 N 
ATOM     11  H   UNL     1      -4.356  12.518  19.644  0.00  0.00    +0.000 HD
ENDROOT
BRANCH   3  12
ATOM     12  C   UNL     1      -0.018  13.331  20.922  0.00  0.00    +0.000 C 
ATOM     13  O   UNL     1       0.177  12.867  22.063  0.00  0.00    +0.000 OA
ATOM     14  N   UNL     1       0.801  14.388  20.471  0.00  0.00    +0.000 N 
ATOM     15  C   UNL     1       1.927  14.777  21.334  0.00  0.00    +0.000 C 
ATOM     16  C   UNL     1       1.726  16.162  21.952  0.00  0.00    +0.000 C 
ATOM     17  C   UNL     1       2.066  17.344  21.043  0.00  0.00    +0.000 C 
ATOM     18  C   UNL     1       1.273  17.426  19.753  0.00  0.00    +0.000 C 
ATOM     19  C   UNL     1       1.595  16.257  18.850  0.00  0.00    +0.000 C 
ATOM     20  C   UNL     1       0.740  15.046  19.173  0.00  0.00    +0.000 C 
ENDBRANCH   3  12
BRANCH   4  21
ATOM     21  C   UNL     1       0.208  10.397  19.550  0.00  0.00    +0.000 A 
ATOM     22  C   UNL     1      -0.200   9.706  20.718  0.00  0.00    +0.000 A 
ATOM     23  C   UNL     1       0.374   8.492  21.086  0.00  0.00    +0.000 A 
ATOM     24  C   UNL     1       1.350   7.916  20.279  0.00  0.00    +0.000 A 
ATOM     25 CL   UNL     1       1.951   6.365  20.740  0.00  0.00    +0.000 Cl
ATOM     26  C   UNL     1       1.776   8.579  19.120  0.00  0.00    +0.000 A 
ATOM     27 CL   UNL     1       2.848   7.836  17.985  0.00  0.00    +0.000 Cl
ATOM     28  C   UNL     1       1.251   9.837  18.787  0.00  0.00    +0.000 A 
ENDBRANCH   4  21
TORSDOF 2
ENDMDL
MODEL 3
REMARK VINA RESULT:      -6.4      3.480      6.301
REMARK  Name = 
REMARK  3 active torsions:
REMARK  status: ('A' for Active; 'I' for Inactive)
REMARK    1  A    between atoms: C_1  and  C_2
REMARK    2  A    between atoms: C_3  and  C_4
REMARK    3  A    between atoms: C_13  and  C_14
REMARK                            x       y       z     vdW  Elec       q    Type
REMARK                         _______ _______ _______ _____ _____    ______ ____
ROOT
ATOM      1  C   UNL     1      -0.232   9.600  23.309  0.00  0.00    +0.000 C 
ATOM      2  C   UNL     1       0.140  10.060  21.911  0.00  0.00    +0.000 C 
ATOM      3  C   UNL     1      -0.172  11.255  21.307  0.00  0.00    +0.000 C 
ATOM      4  C   UNL     1       0.307  11.486  19.868  0.00  0.00    +0.000 C 
ATOM      5  N   UNL     1       1.002  10.332  19.275  0.00  0.00    +0.000 N 
ATOM      6  N   UNL     1       1.270  10.246  17.957  0.00  0.00    +0.000 NA
ATOM      7  C   UNL     1       1.870   9.054  17.840  0.00  0.00    +0.000 A 
ATOM      8  C   UNL     1       1.884   8.344  19.053  0.00  0.00    +0.000 A 
ATOM      9  C   UNL     1       1.264   9.176  19.947  0.00  0.00    +0.000 A 
ATOM     10  N   UNL     1       0.881   9.082  21.234  0.00  0.00    +0.000 N 
ATOM     11  H   UNL     1       1.065   8.225  21.743  0.00  0.00    +0.000 HD
ENDROOT
BRANCH   3  12
ATOM     12  C   UNL     1      -0.911  12.359  22.080  0.00  0.00    +0.000 C 
ATOM     13  O   UNL     1      -0.319  12.864  23.055  0.00  0.00    +0.000 OA
ATOM     14  N   UNL     1      -2.162  12.888  21.698  0.00  0.00    +0.000 N 
ATOM     15  C   UNL     1      -2.619  14.098  22.398  0.00  0.00    +0.000 C 
ATOM     16  C   UNL     1      -3.825  13.822  23.298  0.00  0.00    +0.000 C 
ATOM     17  C   UNL     1      -5.178  13.772  22.585  0.00  0.00    +0.000 C 
ATOM     18  C   UNL     1      -5.309  12.718  21.503  0.00  0.00    +0.000 C 
ATOM     19  C   UNL     1      -4.379  13.017  20.349  0.00  0.00    +0.000 C 
ATOM     20  C   UNL     1      -2.992  12.449  20.584  0.00  0.00    +0.000 C 
ENDBRANCH   3  12
BRANCH   4  21
ATOM     21  C   UNL     1       1.114  12.768  19.575  0.00  0.00    +0.000 A 
ATOM     22  C   UNL     1       0.457  13.809  18.874  0.00  0.00    +0.000 A 
ATOM     23  C   UNL     1       0.989  15.094  18.808  0.00  0.00    +0.000 A 
ATOM     24  C   UNL     1       2.178  15.384  19.469  0.00  0.00    +0.000 A 
ATOM     25 CL   UNL     1       2.733  17.019  19.428  0.00  0.00    +0.000 Cl
ATOM     26  C   UNL     1       2.852  14.373  20.167  0.00  0.00    +0.000 A 
ATOM     27 CL   UNL     1       4.230  14.708  21.156  0.00  0.00    +0.000 Cl
ATOM     28  C   UNL     1       2.354  13.061  20.174  0.00  0.00    +0.000 A 
ENDBRANCH   4  21
TORSDOF 2
ENDMDL
MODEL 4
REMARK VINA RESULT:      -6.3      3.401      5.094
REMARK  Name = 
REMARK  3 active torsions:
REMARK  status: ('A' for Active; 'I' for Inactive)
REMARK    1  A    between atoms: C_1  and  C_2
REMARK    2  A    between atoms: C_3  and  C_4
REMARK    3  A    between atoms: C_13  and  C_14
REMARK                            x       y       z     vdW  Elec       q    Type
REMARK                         _______ _______ _______ _____ _____    ______ ____
ROOT
ATOM      1  C   UNL     1       2.897  14.410  18.500  0.00  0.00    +0.000 C 
ATOM      2  C   UNL     1       2.198  13.201  19.096  0.00  0.00    +0.000 C 
ATOM      3  C   UNL     1       1.606  13.097  20.332  0.00  0.00    +0.000 C 
ATOM      4  C   UNL     1       0.970  11.755  20.719  0.00  0.00    +0.000 C 
ATOM      5  N   UNL     1       1.144  10.697  19.710  0.00  0.00    +0.000 N 
ATOM      6  N   UNL     1       0.884   9.400  19.968  0.00  0.00    +0.000 NA
ATOM      7  C   UNL     1       1.194   8.786  18.819  0.00  0.00    +0.000 A 
ATOM      8  C   UNL     1       1.748   9.671  17.877  0.00  0.00    +0.000 A 
ATOM      9  C   UNL     1       1.754  10.887  18.507  0.00  0.00    +0.000 A 
ATOM     10  N   UNL     1       2.215  12.116  18.210  0.00  0.00    +0.000 N 
ATOM     11  H   UNL     1       2.676  12.268  17.320  0.00  0.00    +0.000 HD
ENDROOT
BRANCH   3  12
ATOM     12  C   UNL     1       1.514  14.312  21.268  0.00  0.00    +0.000 C 
ATOM     13  O   UNL     1       2.443  14.472  22.085  0.00  0.00    +0.000 OA
ATOM     14  N   UNL     1       0.501  15.291  21.194  0.00  0.00    +0.000 N 
ATOM     15  C   UNL     1       0.689  16.511  21.995  0.00  0.00    +0.000 C 
ATOM     16  C   UNL     1      -0.314  16.602  23.146  0.00  0.00    +0.000 C 
ATOM     17  C   UNL     1      -1.706  17.113  22.767  0.00  0.00    +0.000 C 
ATOM     18  C   UNL     1      -2.446  16.288  21.732  0.00  0.00    +0.000 C 
ATOM     19  C   UNL     1      -1.738  16.342  20.397  0.00  0.00    +0.000 C 
ATOM     20  C   UNL     1      -0.647  15.292  20.297  0.00  0.00    +0.000 C 
ENDBRANCH   3  12
BRANCH   4  21
ATOM     21  C   UNL     1      -0.497  11.764  21.196  0.00  0.00    +0.000 A 
ATOM     22  C   UNL     1      -0.731  11.835  22.591  0.00  0.00    +0.000 A 
ATOM     23  C   UNL     1      -1.990  12.132  23.106  0.00  0.00    +0.000 A 
ATOM     24  C   UNL     1      -3.046  12.398  22.239  0.00  0.00    +0.000 A 
ATOM     25 CL   UNL     1      -4.556  12.854  22.941  0.00  0.00    +0.000 Cl
ATOM     26  C   UNL     1      -2.844  12.331  20.855  0.00  0.00    +0.000 A 
ATOM     27 CL   UNL     1      -4.060  12.826  19.729  0.00  0.00    +0.000 Cl
ATOM     28  C   UNL     1      -1.593  11.961  20.335  0.00  0.00    +0.000 A 
ENDBRANCH   4  21
TORSDOF 2
ENDMDL
MODEL 5
REMARK VINA RESULT:      -6.3      3.639      6.489
REMARK  Name = 
REMARK  3 active torsions:
REMARK  status: ('A' for Active; 'I' for Inactive)
REMARK    1  A    between atoms: C_1  and  C_2
REMARK    2  A    between atoms: C_3  and  C_4
REMARK    3  A    between atoms: C_13  and  C_14
REMARK                            x       y       z     vdW  Elec       q    Type
REMARK                         _______ _______ _______ _____ _____    ______ ____
ROOT
ATOM      1  C   UNL     1      -0.309   9.535  23.348  0.00  0.00    +0.000 C 
ATOM      2  C   UNL     1      -0.005  10.076  21.963  0.00  0.00    +0.000 C 
ATOM      3  C   UNL     1      -0.416  11.268  21.417  0.00  0.00    +0.000 C 
ATOM      4  C   UNL     1       0.010  11.591  19.978  0.00  0.00    +0.000 C 
ATOM      5  N   UNL     1       0.770  10.514  19.323  0.00  0.00    +0.000 N 
ATOM      6  N   UNL     1       1.011  10.500  17.997  0.00  0.00    +0.000 NA
ATOM      7  C   UNL     1       1.691   9.361  17.817  0.00  0.00    +0.000 A 
ATOM      8  C   UNL     1       1.784   8.606  18.999  0.00  0.00    +0.000 A 
ATOM      9  C   UNL     1       1.129   9.354  19.940  0.00  0.00    +0.000 A 
ATOM     10  N   UNL     1       0.786   9.182  21.230  0.00  0.00    +0.000 N 
ATOM     11  H   UNL     1       1.043   8.320  21.698  0.00  0.00    +0.000 HD
ENDROOT
BRANCH   3  12
ATOM     12  C   UNL     1      -1.212  12.285  22.250  0.00  0.00    +0.000 C 
ATOM     13  O   UNL     1      -0.675  12.709  23.293  0.00  0.00    +0.000 OA
ATOM     14  N   UNL     1      -2.456  12.825  21.860  0.00  0.00    +0.000 N 
ATOM     15  C   UNL     1      -2.969  13.959  22.645  0.00  0.00    +0.000 C 
ATOM     16  C   UNL     1      -4.208  13.582  23.458  0.00  0.00    +0.000 C 
ATOM     17  C   UNL     1      -5.527  13.573  22.682  0.00  0.00    +0.000 C 
ATOM     18  C   UNL     1      -5.586  12.620  21.504  0.00  0.00    +0.000 C 
ATOM     19  C   UNL     1      -4.612  13.039  20.426  0.00  0.00    +0.000 C 
ATOM     20  C   UNL     1      -3.225  12.476  20.674  0.00  0.00    +0.000 C 
ENDBRANCH   3  12
BRANCH   4  21
ATOM     21  C   UNL     1       0.717  12.938  19.721  0.00  0.00    +0.000 A 
ATOM     22  C   UNL     1       2.123  12.916  19.545  0.00  0.00    +0.000 A 
ATOM     23  C   UNL     1       2.812  14.013  19.034  0.00  0.00    +0.000 A 
ATOM     24  C   UNL     1       2.111  15.153  18.653  0.00  0.00    +0.000 A 
ATOM     25 CL   UNL     1       3.013  16.439  17.938  0.00  0.00    +0.000 Cl
ATOM     26  C   UNL     1       0.721  15.204  18.820  0.00  0.00    +0.000 A 
ATOM     27 CL   UNL     1      -0.226  16.512  18.201  0.00  0.00    +0.000 Cl
ATOM     28  C   UNL     1       0.034  14.127  19.402  0.00  0.00    +0.000 A 
ENDBRANCH   4  21
TORSDOF 2
ENDMDL
MODEL 6
REMARK VINA RESULT:      -6.3      5.004      7.244
REMARK  Name = 
REMARK  3 active torsions:
REMARK  status: ('A' for Active; 'I' for Inactive)
REMARK    1  A    between atoms: C_1  and  C_2
REMARK    2  A    between atoms: C_3  and  C_4
REMARK    3  A    between atoms: C_13  and  C_14
REMARK                            x       y       z     vdW  Elec       q    Type
REMARK                         _______ _______ _______ _____ _____    ______ ____
ROOT
ATOM      1  C   UNL     1       0.969  15.661  21.883  0.00  0.00    +0.000 C 
ATOM      2  C   UNL     1       0.233  14.353  22.112  0.00  0.00    +0.000 C 
ATOM      3  C   UNL     1      -0.750  14.091  23.036  0.00  0.00    +0.000 C 
ATOM      4  C   UNL     1      -1.337  12.674  23.087  0.00  0.00    +0.000 C 
ATOM      5  N   UNL     1      -0.701  11.728  22.155  0.00  0.00    +0.000 N 
ATOM      6  N   UNL     1      -0.897  10.397  22.228  0.00  0.00    +0.000 NA
ATOM      7  C   UNL     1      -0.130   9.916  21.241  0.00  0.00    +0.000 A 
ATOM      8  C   UNL     1       0.630  10.923  20.620  0.00  0.00    +0.000 A 
ATOM      9  C   UNL     1       0.279  12.073  21.274  0.00  0.00    +0.000 A 
ATOM     10  N   UNL     1       0.683  13.357  21.236  0.00  0.00    +0.000 N 
ATOM     11  H   UNL     1       1.416  13.624  20.588  0.00  0.00    +0.000 HD
ENDROOT
BRANCH   3  12
ATOM     12  C   UNL     1      -1.302  15.206  23.938  0.00  0.00    +0.000 C 
ATOM     13  O   UNL     1      -0.700  15.420  25.009  0.00  0.00    +0.000 OA
ATOM     14  N   UNL     1      -2.377  16.048  23.585  0.00  0.00    +0.000 N 
ATOM     15  C   UNL     1      -2.626  17.214  24.447  0.00  0.00    +0.000 C 
ATOM     16  C   UNL     1      -3.933  17.083  25.229  0.00  0.00    +0.000 C 
ATOM     17  C   UNL     1      -5.203  17.436  24.452  0.00  0.00    +0.000 C 
ATOM     18  C   UNL     1      -5.462  16.607  23.209  0.00  0.00    +0.000 C 
ATOM     19  C   UNL     1      -4.397  16.858  22.165  0.00  0.00    +0.000 C 
ATOM     20  C   UNL     1      -3.185  15.970  22.375  0.00  0.00    +0.000 C 
ENDBRANCH   3  12
BRANCH   4  21
ATOM     21  C   UNL     1      -2.870  12.525  22.989  0.00  0.00    +0.000 A 
ATOM     22  C   UNL     1      -3.610  12.577  24.196  0.00  0.00    +0.000 A 
ATOM     23  C   UNL     1      -4.993  12.737  24.198  0.00  0.00    +0.000 A 
ATOM     24  C   UNL     1      -5.674  12.883  22.993  0.00  0.00    +0.000 A 
ATOM     25 CL   UNL     1      -7.373  13.175  23.069  0.00  0.00    +0.000 Cl
ATOM     26  C   UNL     1      -4.967  12.832  21.784  0.00  0.00    +0.000 A 
ATOM     27 CL   UNL     1      -5.723  13.187  20.270  0.00  0.00    +0.000 Cl
ATOM     28  C   UNL     1      -3.583  12.598  21.778  0.00  0.00    +0.000 A 
ENDBRANCH   4  21
TORSDOF 2
ENDMDL
MODEL 7
REMARK VINA RESULT:      -6.2      4.113      5.801
REMARK  Name = 
REMARK  3 active torsions:
REMARK  status: ('A' for Active; 'I' for Inactive)
REMARK    1  A    between atoms: C_1  and  C_2
REMARK    2  A    between atoms: C_3  and  C_4
REMARK    3  A    between atoms: C_13  and  C_14
REMARK                            x       y       z     vdW  Elec       q    Type
REMARK                         _______ _______ _______ _____ _____    ______ ____
ROOT
ATOM      1  C   UNL     1      -0.304  12.107  18.027  0.00  0.00    +0.000 C 
ATOM      2  C   UNL     1      -0.367  11.949  19.536  0.00  0.00    +0.000 C 
ATOM      3  C   UNL     1      -0.359  12.941  20.486  0.00  0.00    +0.000 C 
ATOM      4  C   UNL     1      -0.416  12.530  21.964  0.00  0.00    +0.000 C 
ATOM      5  N   UNL     1      -0.399  11.074  22.180  0.00  0.00    +0.000 N 
ATOM      6  N   UNL     1      -0.188  10.524  23.393  0.00  0.00    +0.000 NA
ATOM      7  C   UNL     1      -0.223   9.208  23.147  0.00  0.00    +0.000 A 
ATOM      8  C   UNL     1      -0.344   8.927  21.775  0.00  0.00    +0.000 A 
ATOM      9  C   UNL     1      -0.398  10.156  21.174  0.00  0.00    +0.000 A 
ATOM     10  N   UNL     1      -0.430  10.599  19.903  0.00  0.00    +0.000 N 
ATOM     11  H   UNL     1      -0.424   9.925  19.145  0.00  0.00    +0.000 HD
ENDROOT
BRANCH   3  12
ATOM     12  C   UNL     1      -0.375  14.424  20.080  0.00  0.00    +0.000 C 
ATOM     13  O   UNL     1      -1.469  15.019  20.143  0.00  0.00    +0.000 OA
ATOM     14  N   UNL     1       0.778  15.160  19.733  0.00  0.00    +0.000 N 
ATOM     15  C   UNL     1       0.628  16.617  19.604  0.00  0.00    +0.000 C 
ATOM     16  C   UNL     1       0.777  17.086  18.156  0.00  0.00    +0.000 C 
ATOM     17  C   UNL     1       2.216  17.230  17.657  0.00  0.00    +0.000 C 
ATOM     18  C   UNL     1       3.052  15.965  17.696  0.00  0.00    +0.000 C 
ATOM     19  C   UNL     1       3.278  15.516  19.122  0.00  0.00    +0.000 C 
ATOM     20  C   UNL     1       2.138  14.650  19.626  0.00  0.00    +0.000 C 
ENDBRANCH   3  12
BRANCH   4  21
ATOM     21  C   UNL     1      -1.513  13.160  22.846  0.00  0.00    +0.000 A 
ATOM     22  C   UNL     1      -1.145  14.254  23.667  0.00  0.00    +0.000 A 
ATOM     23  C   UNL     1      -2.100  15.064  24.276  0.00  0.00    +0.000 A 
ATOM     24  C   UNL     1      -3.453  14.823  24.055  0.00  0.00    +0.000 A 
ATOM     25 CL   UNL     1      -4.582  15.922  24.760  0.00  0.00    +0.000 Cl
ATOM     26  C   UNL     1      -3.846  13.745  23.251  0.00  0.00    +0.000 A 
ATOM     27 CL   UNL     1      -5.495  13.503  22.791  0.00  0.00    +0.000 Cl
ATOM     28  C   UNL     1      -2.886  12.885  22.695  0.00  0.00    +0.000 A 
ENDBRANCH   4  21
TORSDOF 2
ENDMDL
MODEL 8
REMARK VINA RESULT:      -6.2      7.070      9.358
REMARK  Name = 
REMARK  3 active torsions:
REMARK  status: ('A' for Active; 'I' for Inactive)
REMARK    1  A    between atoms: C_1  and  C_2
REMARK    2  A    between atoms: C_3  and  C_4
REMARK    3  A    between atoms: C_13  and  C_14
REMARK                            x       y       z     vdW  Elec       q    Type
REMARK                         _______ _______ _______ _____ _____    ______ ____
ROOT
ATOM      1  C   UNL     1       6.822  14.390  17.498  0.00  0.00    +0.000 C 
ATOM      2  C   UNL     1       7.977  14.101  18.439  0.00  0.00    +0.000 C 
ATOM      3  C   UNL     1       8.345  14.805  19.561  0.00  0.00    +0.000 C 
ATOM      4  C   UNL     1       9.569  14.322  20.350  0.00  0.00    +0.000 C 
ATOM      5  N   UNL     1      10.257  13.171  19.742  0.00  0.00    +0.000 N 
ATOM      6  N   UNL     1      11.481  12.767  20.138  0.00  0.00    +0.000 NA
ATOM      7  C   UNL     1      11.743  11.733  19.328  0.00  0.00    +0.000 A 
ATOM      8  C   UNL     1      10.743  11.553  18.355  0.00  0.00    +0.000 A 
ATOM      9  C   UNL     1       9.827  12.536  18.617  0.00  0.00    +0.000 A 
ATOM     10  N   UNL     1       8.696  12.971  18.029  0.00  0.00    +0.000 N 
ATOM     11  H   UNL     1       8.369  12.509  17.187  0.00  0.00    +0.000 HD
ENDROOT
BRANCH   3  12
ATOM     12  C   UNL     1       7.505  15.993  20.057  0.00  0.00    +0.000 C 
ATOM     13  O   UNL     1       7.781  17.117  19.592  0.00  0.00    +0.000 OA
ATOM     14  N   UNL     1       6.399  15.871  20.924  0.00  0.00    +0.000 N 
ATOM     15  C   UNL     1       5.559  17.064  21.109  0.00  0.00    +0.000 C 
ATOM     16  C   UNL     1       5.681  17.639  22.522  0.00  0.00    +0.000 C 
ATOM     17  C   UNL     1       4.846  16.934  23.593  0.00  0.00    +0.000 C 
ATOM     18  C   UNL     1       5.149  15.462  23.794  0.00  0.00    +0.000 C 
ATOM     19  C   UNL     1       4.782  14.666  22.562  0.00  0.00    +0.000 C 
ATOM     20  C   UNL     1       5.910  14.649  21.548  0.00  0.00    +0.000 C 
ENDBRANCH   3  12
BRANCH   4  21
ATOM     21  C   UNL     1       9.399  14.069  21.862  0.00  0.00    +0.000 A 
ATOM     22  C   UNL     1       9.529  15.181  22.730  0.00  0.00    +0.000 A 
ATOM     23  C   UNL     1       9.120  15.121  24.060  0.00  0.00    +0.000 A 
ATOM     24  C   UNL     1       8.538  13.956  24.552  0.00  0.00    +0.000 A 
ATOM     25 CL   UNL     1       7.965  13.980  26.180  0.00  0.00    +0.000 Cl
ATOM     26  C   UNL     1       8.400  12.840  23.716  0.00  0.00    +0.000 A 
ATOM     27 CL   UNL     1       7.525  11.433  24.210  0.00  0.00    +0.000 Cl
ATOM     28  C   UNL     1       8.878  12.875  22.397  0.00  0.00    +0.000 A 
ENDBRANCH   4  21
TORSDOF 2
ENDMDL
MODEL 9
REMARK VINA RESULT:      -6.2      3.834      5.513
REMARK  Name = 
REMARK  3 active torsions:
REMARK  status: ('A' for Active; 'I' for Inactive)
REMARK    1  A    between atoms: C_1  and  C_2
REMARK    2  A    between atoms: C_3  and  C_4
REMARK    3  A    between atoms: C_13  and  C_14
REMARK                            x       y       z     vdW  Elec       q    Type
REMARK                         _______ _______ _______ _____ _____    ______ ____
ROOT
ATOM      1  C   UNL     1       1.854  11.074  18.096  0.00  0.00    +0.000 C 
ATOM      2  C   UNL     1       1.127  11.267  19.415  0.00  0.00    +0.000 C 
ATOM      3  C   UNL     1       0.755  12.451  20.005  0.00  0.00    +0.000 C 
ATOM      4  C   UNL     1       0.037  12.390  21.360  0.00  0.00    +0.000 C 
ATOM      5  N   UNL     1      -0.102  11.029  21.904  0.00  0.00    +0.000 N 
ATOM      6  N   UNL     1      -0.470  10.792  23.178  0.00  0.00    +0.000 NA
ATOM      7  C   UNL     1      -0.446   9.456  23.265  0.00  0.00    +0.000 A 
ATOM      8  C   UNL     1       0.039   8.856  22.090  0.00  0.00    +0.000 A 
ATOM      9  C   UNL     1       0.305   9.905  21.251  0.00  0.00    +0.000 A 
ATOM     10  N   UNL     1       0.854  10.038  20.029  0.00  0.00    +0.000 N 
ATOM     11  H   UNL     1       1.166   9.209  19.536  0.00  0.00    +0.000 HD
ENDROOT
BRANCH   3  12
ATOM     12  C   UNL     1       0.980  13.793  19.291  0.00  0.00    +0.000 C 
ATOM     13  O   UNL     1       0.096  14.168  18.495  0.00  0.00    +0.000 OA
ATOM     14  N   UNL     1       2.067  14.654  19.551  0.00  0.00    +0.000 N 
ATOM     15  C   UNL     1       2.009  16.001  18.964  0.00  0.00    +0.000 C 
ATOM     16  C   UNL     1       3.055  16.196  17.866  0.00  0.00    +0.000 C 
ATOM     17  C   UNL     1       4.471  16.512  18.354  0.00  0.00    +0.000 C 
ATOM     18  C   UNL     1       5.103  15.464  19.249  0.00  0.00    +0.000 C 
ATOM     19  C   UNL     1       4.356  15.356  20.559  0.00  0.00    +0.000 C 
ATOM     20  C   UNL     1       3.179  14.404  20.457  0.00  0.00    +0.000 C 
ENDBRANCH   3  12
BRANCH   4  21
ATOM     21  C   UNL     1      -1.311  13.129  21.495  0.00  0.00    +0.000 A 
ATOM     22  C   UNL     1      -2.384  12.687  20.681  0.00  0.00    +0.000 A 
ATOM     23  C   UNL     1      -3.695  13.087  20.921  0.00  0.00    +0.000 A 
ATOM     24  C   UNL     1      -3.978  13.914  22.004  0.00  0.00    +0.000 A 
ATOM     25 CL   UNL     1      -5.635  14.293  22.304  0.00  0.00    +0.000 Cl
ATOM     26  C   UNL     1      -2.937  14.370  22.823  0.00  0.00    +0.000 A 
ATOM     27 CL   UNL     1      -3.240  15.246  24.283  0.00  0.00    +0.000 Cl
ATOM     28  C   UNL     1      -1.606  14.026  22.539  0.00  0.00    +0.000 A 
ENDBRANCH   4  21
TORSDOF 2
ENDMDL
