MODEL 1
REMARK VINA RESULT:      -7.6      0.000      0.000
REMARK  Name = 
REMARK  6 active torsions:
REMARK  status: ('A' for Active; 'I' for Inactive)
REMARK    1  A    between atoms: C_1  and  C_2
REMARK    2  A    between atoms: C_2  and  C_3
REMARK    3  A    between atoms: C_2  and  S_4
REMARK    4  A    between atoms: S_4  and  N_7
REMARK    5  A    between atoms: C_8  and  C_10
REMARK    6  A    between atoms: C_12  and  C_13
REMARK                            x       y       z     vdW  Elec       q    Type
REMARK                         _______ _______ _______ _____ _____    ______ ____
ROOT
ATOM      1  C   UNL     1       7.520   6.959  18.079  0.00  0.00    +0.000 A 
ATOM      2  C   UNL     1       8.377   7.676  18.881  0.00  0.00    +0.000 A 
ATOM      3  C   UNL     1       8.459   8.964  18.290  0.00  0.00    +0.000 A 
ATOM      4  N   UNL     1       7.685   9.012  17.193  0.00  0.00    +0.000 NA
ATOM      5  O   UNL     1       7.105   7.766  17.064  0.00  0.00    +0.000 OA
ENDROOT
BRANCH   3   6
ATOM      6  C   UNL     1       9.262  10.107  18.731  0.00  0.00    +0.000 A 
ATOM      7  C   UNL     1       9.367  10.418  20.096  0.00  0.00    +0.000 A 
ATOM      8  C   UNL     1      10.084  11.541  20.522  0.00  0.00    +0.000 A 
ATOM      9  C   UNL     1      10.715  12.359  19.587  0.00  0.00    +0.000 A 
ATOM     10  C   UNL     1      10.633  12.046  18.233  0.00  0.00    +0.000 A 
ATOM     11 CL   UNL     1      11.417  13.053  17.076  0.00  0.00    +0.000 Cl
ATOM     12  C   UNL     1       9.913  10.929  17.799  0.00  0.00    +0.000 A 
ENDBRANCH   3   6
BRANCH   1  14
ATOM     13  N   UNL     1       5.652   5.518  18.399  0.00  0.00    +0.000 N 
ATOM     14  C   UNL     1       7.031   5.609  18.176  0.00  0.00    +0.000 C 
ATOM     15  O   UNL     1       7.762   4.629  18.110  0.00  0.00    +0.000 OA
ATOM     16  H   UNL     1       5.076   6.356  18.424  0.00  0.00    +0.000 HD
BRANCH  13  17
ATOM     17  S   UNL     1       4.795   4.100  18.462  0.00  0.00    +0.000 S 
ATOM     18  O   UNL     1       5.286   3.299  19.557  0.00  0.00    +0.000 OA
ATOM     19  O   UNL     1       4.825   3.588  17.107  0.00  0.00    +0.000 OA
BRANCH  17  21
ATOM     20  C   UNL     1       2.143   4.239  17.721  0.00  0.00    +0.000 C 
ATOM     21  C   UNL     1       3.114   4.672  18.819  0.00  0.00    +0.000 C 
ATOM     22  C   UNL     1       2.653   4.145  20.174  0.00  0.00    +0.000 C 
ENDBRANCH  17  21
ENDBRANCH  13  17
ENDBRANCH   1  14
TORSDOF 4
ENDMDL
MODEL 2
REMARK VINA RESULT:      -7.4      5.622      6.723
REMARK  Name = 
REMARK  6 active torsions:
REMARK  status: ('A' for Active; 'I' for Inactive)
REMARK    1  A    between atoms: C_1  and  C_2
REMARK    2  A    between atoms: C_2  and  C_3
REMARK    3  A    between atoms: C_2  and  S_4
REMARK    4  A    between atoms: S_4  and  N_7
REMARK    5  A    between atoms: C_8  and  C_10
REMARK    6  A    between atoms: C_12  and  C_13
REMARK                            x       y       z     vdW  Elec       q    Type
REMARK                         _______ _______ _______ _____ _____    ______ ____
ROOT
ATOM      1  C   UNL     1       6.007   4.754  17.719  0.00  0.00    +0.000 A 
ATOM      2  C   UNL     1       5.798   4.162  16.495  0.00  0.00    +0.000 A 
ATOM      3  C   UNL     1       6.695   4.809  15.605  0.00  0.00    +0.000 A 
ATOM      4  N   UNL     1       7.406   5.736  16.269  0.00  0.00    +0.000 NA
ATOM      5  O   UNL     1       6.975   5.701  17.580  0.00  0.00    +0.000 OA
ENDROOT
BRANCH   3   6
ATOM      6  C   UNL     1       6.861   4.577  14.169  0.00  0.00    +0.000 A 
ATOM      7  C   UNL     1       7.713   5.394  13.409  0.00  0.00    +0.000 A 
ATOM      8  C   UNL     1       7.832   5.215  12.027  0.00  0.00    +0.000 A 
ATOM      9  C   UNL     1       7.109   4.208  11.391  0.00  0.00    +0.000 A 
ATOM     10  C   UNL     1       6.278   3.380  12.140  0.00  0.00    +0.000 A 
ATOM     11 CL   UNL     1       5.389   2.131  11.356  0.00  0.00    +0.000 Cl
ATOM     12  C   UNL     1       6.148   3.556  13.520  0.00  0.00    +0.000 A 
ENDBRANCH   3   6
BRANCH   1  14
ATOM     13  N   UNL     1       4.227   3.768  18.957  0.00  0.00    +0.000 N 
ATOM     14  C   UNL     1       5.413   4.511  19.008  0.00  0.00    +0.000 C 
ATOM     15  O   UNL     1       5.882   4.948  20.051  0.00  0.00    +0.000 OA
ATOM     16  H   UNL     1       3.884   3.403  18.072  0.00  0.00    +0.000 HD
BRANCH  13  17
ATOM     17  S   UNL     1       3.374   3.255  20.282  0.00  0.00    +0.000 S 
ATOM     18  O   UNL     1       2.859   4.405  20.987  0.00  0.00    +0.000 OA
ATOM     19  O   UNL     1       4.254   2.319  20.953  0.00  0.00    +0.000 OA
BRANCH  17  21
ATOM     20  C   UNL     1       0.664   2.959  19.876  0.00  0.00    +0.000 C 
ATOM     21  C   UNL     1       2.012   2.324  19.537  0.00  0.00    +0.000 C 
ATOM     22  C   UNL     1       2.193   2.239  18.025  0.00  0.00    +0.000 C 
ENDBRANCH  17  21
ENDBRANCH  13  17
ENDBRANCH   1  14
TORSDOF 4
ENDMDL
MODEL 3
REMARK VINA RESULT:      -7.2      6.884      8.956
REMARK  Name = 
REMARK  6 active torsions:
REMARK  status: ('A' for Active; 'I' for Inactive)
REMARK    1  A    between atoms: C_1  and  C_2
REMARK    2  A    between atoms: C_2  and  C_3
REMARK    3  A    between atoms: C_2  and  S_4
REMARK    4  A    between atoms: S_4  and  N_7
REMARK    5  A    between atoms: C_8  and  C_10
REMARK    6  A    between atoms: C_12  and  C_13
REMARK                            x       y       z     vdW  Elec       q    Type
REMARK                         _______ _______ _______ _____ _____    ______ ____
ROOT
ATOM      1  C   UNL     1       1.380   9.236  19.091  0.00  0.00    +0.000 A 
ATOM      2  C   UNL     1       2.024   8.607  18.050  0.00  0.00    +0.000 A 
ATOM      3  C   UNL     1       2.514   7.389  18.590  0.00  0.00    +0.000 A 
ATOM      4  N   UNL     1       2.174   7.295  19.886  0.00  0.00    +0.000 NA
ATOM      5  O   UNL     1       1.472   8.444  20.194  0.00  0.00    +0.000 OA
ENDROOT
BRANCH   3   6
ATOM      6  C   UNL     1       3.299   6.356  17.911  0.00  0.00    +0.000 A 
ATOM      7  C   UNL     1       4.345   6.711  17.044  0.00  0.00    +0.000 A 
ATOM      8  C   UNL     1       5.061   5.733  16.348  0.00  0.00    +0.000 A 
ATOM      9  C   UNL     1       4.749   4.386  16.521  0.00  0.00    +0.000 A 
ATOM     10  C   UNL     1       3.727   4.024  17.394  0.00  0.00    +0.000 A 
ATOM     11 CL   UNL     1       3.344   2.359  17.614  0.00  0.00    +0.000 Cl
ATOM     12  C   UNL     1       3.002   4.996  18.089  0.00  0.00    +0.000 A 
ENDBRANCH   3   6
BRANCH   1  14
ATOM     13  N   UNL     1      -0.430  10.560  18.289  0.00  0.00    +0.000 N 
ATOM     14  C   UNL     1       0.669  10.486  19.154  0.00  0.00    +0.000 C 
ATOM     15  O   UNL     1       1.018  11.415  19.870  0.00  0.00    +0.000 OA
ATOM     16  H   UNL     1      -0.700   9.756  17.728  0.00  0.00    +0.000 HD
BRANCH  13  17
ATOM     17  S   UNL     1      -1.488  11.833  18.210  0.00  0.00    +0.000 S 
ATOM     18  O   UNL     1      -0.776  13.014  17.784  0.00  0.00    +0.000 OA
ATOM     19  O   UNL     1      -2.185  11.817  19.480  0.00  0.00    +0.000 OA
BRANCH  17  21
ATOM     20  C   UNL     1      -2.366   9.866  16.491  0.00  0.00    +0.000 C 
ATOM     21  C   UNL     1      -2.642  11.306  16.919  0.00  0.00    +0.000 C 
ATOM     22  C   UNL     1      -4.081  11.449  17.405  0.00  0.00    +0.000 C 
ENDBRANCH  17  21
ENDBRANCH  13  17
ENDBRANCH   1  14
TORSDOF 4
ENDMDL
MODEL 4
REMARK VINA RESULT:      -7.2      1.271      1.722
REMARK  Name = 
REMARK  6 active torsions:
REMARK  status: ('A' for Active; 'I' for Inactive)
REMARK    1  A    between atoms: C_1  and  C_2
REMARK    2  A    between atoms: C_2  and  C_3
REMARK    3  A    between atoms: C_2  and  S_4
REMARK    4  A    between atoms: S_4  and  N_7
REMARK    5  A    between atoms: C_8  and  C_10
REMARK    6  A    between atoms: C_12  and  C_13
REMARK                            x       y       z     vdW  Elec       q    Type
REMARK                         _______ _______ _______ _____ _____    ______ ____
ROOT
ATOM      1  C   UNL     1       7.635   7.101  18.098  0.00  0.00    +0.000 A 
ATOM      2  C   UNL     1       8.466   7.817  18.928  0.00  0.00    +0.000 A 
ATOM      3  C   UNL     1       8.554   9.111  18.350  0.00  0.00    +0.000 A 
ATOM      4  N   UNL     1       7.809   9.163  17.234  0.00  0.00    +0.000 NA
ATOM      5  O   UNL     1       7.241   7.914  17.079  0.00  0.00    +0.000 OA
ENDROOT
BRANCH   3   6
ATOM      6  C   UNL     1       9.337  10.255  18.822  0.00  0.00    +0.000 A 
ATOM      7  C   UNL     1      10.345  10.809  18.018  0.00  0.00    +0.000 A 
ATOM      8  C   UNL     1      11.135  11.864  18.484  0.00  0.00    +0.000 A 
ATOM      9  C   UNL     1      10.917  12.387  19.758  0.00  0.00    +0.000 A 
ATOM     10  C   UNL     1       9.907  11.857  20.554  0.00  0.00    +0.000 A 
ATOM     11 CL   UNL     1       9.631  12.505  22.126  0.00  0.00    +0.000 Cl
ATOM     12  C   UNL     1       9.116  10.798  20.098  0.00  0.00    +0.000 A 
ENDBRANCH   3   6
BRANCH   1  14
ATOM     13  N   UNL     1       5.764   5.645  18.321  0.00  0.00    +0.000 N 
ATOM     14  C   UNL     1       7.153   5.747  18.171  0.00  0.00    +0.000 C 
ATOM     15  O   UNL     1       7.894   4.774  18.145  0.00  0.00    +0.000 OA
ATOM     16  H   UNL     1       5.181   6.478  18.315  0.00  0.00    +0.000 HD
BRANCH  13  17
ATOM     17  S   UNL     1       4.917   4.220  18.340  0.00  0.00    +0.000 S 
ATOM     18  O   UNL     1       5.359   3.422  19.459  0.00  0.00    +0.000 OA
ATOM     19  O   UNL     1       5.020   3.708  16.989  0.00  0.00    +0.000 OA
BRANCH  17  21
ATOM     20  C   UNL     1       3.015   6.199  18.088  0.00  0.00    +0.000 C 
ATOM     21  C   UNL     1       3.216   4.778  18.611  0.00  0.00    +0.000 C 
ATOM     22  C   UNL     1       2.233   3.822  17.942  0.00  0.00    +0.000 C 
ENDBRANCH  17  21
ENDBRANCH  13  17
ENDBRANCH   1  14
TORSDOF 4
ENDMDL
MODEL 5
REMARK VINA RESULT:      -7.1      6.170      7.395
REMARK  Name = 
REMARK  6 active torsions:
REMARK  status: ('A' for Active; 'I' for Inactive)
REMARK    1  A    between atoms: C_1  and  C_2
REMARK    2  A    between atoms: C_2  and  C_3
REMARK    3  A    between atoms: C_2  and  S_4
REMARK    4  A    between atoms: S_4  and  N_7
REMARK    5  A    between atoms: C_8  and  C_10
REMARK    6  A    between atoms: C_12  and  C_13
REMARK                            x       y       z     vdW  Elec       q    Type
REMARK                         _______ _______ _______ _____ _____    ______ ____
ROOT
ATOM      1  C   UNL     1       2.535   7.330  18.953  0.00  0.00    +0.000 A 
ATOM      2  C   UNL     1       1.943   7.599  20.165  0.00  0.00    +0.000 A 
ATOM      3  C   UNL     1       1.257   8.829  19.985  0.00  0.00    +0.000 A 
ATOM      4  N   UNL     1       1.429   9.267  18.727  0.00  0.00    +0.000 NA
ATOM      5  O   UNL     1       2.224   8.336  18.089  0.00  0.00    +0.000 OA
ENDROOT
BRANCH   3   6
ATOM      6  C   UNL     1       0.483   9.580  20.976  0.00  0.00    +0.000 A 
ATOM      7  C   UNL     1       0.407   9.136  22.306  0.00  0.00    +0.000 A 
ATOM      8  C   UNL     1      -0.375   9.816  23.244  0.00  0.00    +0.000 A 
ATOM      9  C   UNL     1      -1.083  10.956  22.866  0.00  0.00    +0.000 A 
ATOM     10  C   UNL     1      -0.997  11.414  21.555  0.00  0.00    +0.000 A 
ATOM     11 CL   UNL     1      -1.865  12.826  21.087  0.00  0.00    +0.000 Cl
ATOM     12  C   UNL     1      -0.222  10.737  20.609  0.00  0.00    +0.000 A 
ENDBRANCH   3   6
BRANCH   1  14
ATOM     13  N   UNL     1       3.075   5.022  19.184  0.00  0.00    +0.000 N 
ATOM     14  C   UNL     1       3.341   6.221  18.512  0.00  0.00    +0.000 C 
ATOM     15  O   UNL     1       4.208   6.327  17.655  0.00  0.00    +0.000 OA
ATOM     16  H   UNL     1       2.329   4.972  19.875  0.00  0.00    +0.000 HD
BRANCH  13  17
ATOM     17  S   UNL     1       3.776   3.563  18.830  0.00  0.00    +0.000 S 
ATOM     18  O   UNL     1       5.115   3.538  19.369  0.00  0.00    +0.000 OA
ATOM     19  O   UNL     1       3.554   3.378  17.410  0.00  0.00    +0.000 OA
BRANCH  17  21
ATOM     20  C   UNL     1       2.516   2.843  21.173  0.00  0.00    +0.000 C 
ATOM     21  C   UNL     1       2.726   2.393  19.729  0.00  0.00    +0.000 C 
ATOM     22  C   UNL     1       1.383   2.235  19.021  0.00  0.00    +0.000 C 
ENDBRANCH  17  21
ENDBRANCH  13  17
ENDBRANCH   1  14
TORSDOF 4
ENDMDL
MODEL 6
REMARK VINA RESULT:      -7.1      5.976      7.130
REMARK  Name = 
REMARK  6 active torsions:
REMARK  status: ('A' for Active; 'I' for Inactive)
REMARK    1  A    between atoms: C_1  and  C_2
REMARK    2  A    between atoms: C_2  and  C_3
REMARK    3  A    between atoms: C_2  and  S_4
REMARK    4  A    between atoms: S_4  and  N_7
REMARK    5  A    between atoms: C_8  and  C_10
REMARK    6  A    between atoms: C_12  and  C_13
REMARK                            x       y       z     vdW  Elec       q    Type
REMARK                         _______ _______ _______ _____ _____    ______ ____
ROOT
ATOM      1  C   UNL     1       2.956   7.271  18.206  0.00  0.00    +0.000 A 
ATOM      2  C   UNL     1       2.095   7.690  19.193  0.00  0.00    +0.000 A 
ATOM      3  C   UNL     1       1.587   8.938  18.746  0.00  0.00    +0.000 A 
ATOM      4  N   UNL     1       2.116   9.244  17.550  0.00  0.00    +0.000 NA
ATOM      5  O   UNL     1       2.967   8.208  17.218  0.00  0.00    +0.000 OA
ENDROOT
BRANCH   3   6
ATOM      6  C   UNL     1       0.650   9.827  19.437  0.00  0.00    +0.000 A 
ATOM      7  C   UNL     1       0.019  10.873  18.745  0.00  0.00    +0.000 A 
ATOM      8  C   UNL     1      -0.833  11.760  19.410  0.00  0.00    +0.000 A 
ATOM      9  C   UNL     1      -1.073  11.605  20.774  0.00  0.00    +0.000 A 
ATOM     10  C   UNL     1      -0.467  10.558  21.464  0.00  0.00    +0.000 A 
ATOM     11 CL   UNL     1      -0.767  10.360  23.148  0.00  0.00    +0.000 Cl
ATOM     12  C   UNL     1       0.391   9.670  20.808  0.00  0.00    +0.000 A 
ENDBRANCH   3   6
BRANCH   1  14
ATOM     13  N   UNL     1       3.247   4.981  18.790  0.00  0.00    +0.000 N 
ATOM     14  C   UNL     1       3.750   6.077  18.079  0.00  0.00    +0.000 C 
ATOM     15  O   UNL     1       4.793   6.035  17.439  0.00  0.00    +0.000 OA
ATOM     16  H   UNL     1       2.364   5.051  19.290  0.00  0.00    +0.000 HD
BRANCH  13  17
ATOM     17  S   UNL     1       3.893   3.455  18.758  0.00  0.00    +0.000 S 
ATOM     18  O   UNL     1       5.154   3.460  19.461  0.00  0.00    +0.000 OA
ATOM     19  O   UNL     1       3.831   3.053  17.367  0.00  0.00    +0.000 OA
BRANCH  17  21
ATOM     20  C   UNL     1       2.562   2.988  21.126  0.00  0.00    +0.000 C 
ATOM     21  C   UNL     1       2.672   2.491  19.685  0.00  0.00    +0.000 C 
ATOM     22  C   UNL     1       1.313   2.556  18.996  0.00  0.00    +0.000 C 
ENDBRANCH  17  21
ENDBRANCH  13  17
ENDBRANCH   1  14
TORSDOF 4
ENDMDL
MODEL 7
REMARK VINA RESULT:      -7.1      6.498      8.691
REMARK  Name = 
REMARK  6 active torsions:
REMARK  status: ('A' for Active; 'I' for Inactive)
REMARK    1  A    between atoms: C_1  and  C_2
REMARK    2  A    between atoms: C_2  and  C_3
REMARK    3  A    between atoms: C_2  and  S_4
REMARK    4  A    between atoms: S_4  and  N_7
REMARK    5  A    between atoms: C_8  and  C_10
REMARK    6  A    between atoms: C_12  and  C_13
REMARK                            x       y       z     vdW  Elec       q    Type
REMARK                         _______ _______ _______ _____ _____    ______ ____
ROOT
ATOM      1  C   UNL     1       1.422   9.257  19.005  0.00  0.00    +0.000 A 
ATOM      2  C   UNL     1       1.998   8.562  17.967  0.00  0.00    +0.000 A 
ATOM      3  C   UNL     1       2.474   7.353  18.539  0.00  0.00    +0.000 A 
ATOM      4  N   UNL     1       2.189   7.328  19.852  0.00  0.00    +0.000 NA
ATOM      5  O   UNL     1       1.538   8.511  20.139  0.00  0.00    +0.000 OA
ENDROOT
BRANCH   3   6
ATOM      6  C   UNL     1       3.195   6.267  17.874  0.00  0.00    +0.000 A 
ATOM      7  C   UNL     1       2.663   4.968  17.851  0.00  0.00    +0.000 A 
ATOM      8  C   UNL     1       3.372   3.913  17.267  0.00  0.00    +0.000 A 
ATOM      9  C   UNL     1       4.617   4.148  16.688  0.00  0.00    +0.000 A 
ATOM     10  C   UNL     1       5.143   5.436  16.689  0.00  0.00    +0.000 A 
ATOM     11 CL   UNL     1       6.679   5.730  15.968  0.00  0.00    +0.000 Cl
ATOM     12  C   UNL     1       4.444   6.495  17.275  0.00  0.00    +0.000 A 
ENDBRANCH   3   6
BRANCH   1  14
ATOM     13  N   UNL     1      -0.440  10.570  18.312  0.00  0.00    +0.000 N 
ATOM     14  C   UNL     1       0.754  10.531  19.044  0.00  0.00    +0.000 C 
ATOM     15  O   UNL     1       1.209  11.505  19.629  0.00  0.00    +0.000 OA
ATOM     16  H   UNL     1      -0.795   9.732  17.859  0.00  0.00    +0.000 HD
BRANCH  13  17
ATOM     17  S   UNL     1      -1.469  11.868  18.249  0.00  0.00    +0.000 S 
ATOM     18  O   UNL     1      -0.746  13.022  17.770  0.00  0.00    +0.000 OA
ATOM     19  O   UNL     1      -2.115  11.894  19.546  0.00  0.00    +0.000 OA
BRANCH  17  21
ATOM     20  C   UNL     1      -2.441   9.901  16.581  0.00  0.00    +0.000 C 
ATOM     21  C   UNL     1      -2.687  11.345  17.015  0.00  0.00    +0.000 C 
ATOM     22  C   UNL     1      -4.100  11.499  17.568  0.00  0.00    +0.000 C 
ENDBRANCH  17  21
ENDBRANCH  13  17
ENDBRANCH   1  14
TORSDOF 4
ENDMDL
MODEL 8
REMARK VINA RESULT:      -7.0      5.396      7.567
REMARK  Name = 
REMARK  6 active torsions:
REMARK  status: ('A' for Active; 'I' for Inactive)
REMARK    1  A    between atoms: C_1  and  C_2
REMARK    2  A    between atoms: C_2  and  C_3
REMARK    3  A    between atoms: C_2  and  S_4
REMARK    4  A    between atoms: S_4  and  N_7
REMARK    5  A    between atoms: C_8  and  C_10
REMARK    6  A    between atoms: C_12  and  C_13
REMARK                            x       y       z     vdW  Elec       q    Type
REMARK                         _______ _______ _______ _____ _____    ______ ____
ROOT
ATOM      1  C   UNL     1       2.348   6.676  19.749  0.00  0.00    +0.000 A 
ATOM      2  C   UNL     1       1.615   7.188  20.794  0.00  0.00    +0.000 A 
ATOM      3  C   UNL     1       1.233   8.493  20.383  0.00  0.00    +0.000 A 
ATOM      4  N   UNL     1       1.711   8.741  19.153  0.00  0.00    +0.000 NA
ATOM      5  O   UNL     1       2.405   7.613  18.763  0.00  0.00    +0.000 OA
ENDROOT
BRANCH   3   6
ATOM      6  C   UNL     1       0.461   9.482  21.137  0.00  0.00    +0.000 A 
ATOM      7  C   UNL     1       0.102   9.239  22.473  0.00  0.00    +0.000 A 
ATOM      8  C   UNL     1      -0.683  10.153  23.181  0.00  0.00    +0.000 A 
ATOM      9  C   UNL     1      -1.108  11.329  22.567  0.00  0.00    +0.000 A 
ATOM     10  C   UNL     1      -0.740  11.588  21.250  0.00  0.00    +0.000 A 
ATOM     11 CL   UNL     1      -1.258  13.045  20.490  0.00  0.00    +0.000 Cl
ATOM     12  C   UNL     1       0.040  10.677  20.532  0.00  0.00    +0.000 A 
ENDBRANCH   3   6
BRANCH   1  14
ATOM     13  N   UNL     1       3.961   5.382  18.568  0.00  0.00    +0.000 N 
ATOM     14  C   UNL     1       2.980   5.396  19.567  0.00  0.00    +0.000 C 
ATOM     15  O   UNL     1       2.661   4.399  20.202  0.00  0.00    +0.000 OA
ATOM     16  H   UNL     1       4.213   6.238  18.080  0.00  0.00    +0.000 HD
BRANCH  13  17
ATOM     17  S   UNL     1       4.918   4.080  18.199  0.00  0.00    +0.000 S 
ATOM     18  O   UNL     1       4.097   3.032  17.640  0.00  0.00    +0.000 OA
ATOM     19  O   UNL     1       5.697   3.840  19.396  0.00  0.00    +0.000 OA
BRANCH  17  21
ATOM     20  C   UNL     1       7.479   4.667  17.367  0.00  0.00    +0.000 C 
ATOM     21  C   UNL     1       6.019   4.748  16.926  0.00  0.00    +0.000 C 
ATOM     22  C   UNL     1       5.820   4.002  15.610  0.00  0.00    +0.000 C 
ENDBRANCH  17  21
ENDBRANCH  13  17
ENDBRANCH   1  14
TORSDOF 4
ENDMDL
MODEL 9
REMARK VINA RESULT:      -7.0      5.161      7.015
REMARK  Name = 
REMARK  6 active torsions:
REMARK  status: ('A' for Active; 'I' for Inactive)
REMARK    1  A    between atoms: C_1  and  C_2
REMARK    2  A    between atoms: C_2  and  C_3
REMARK    3  A    between atoms: C_2  and  S_4
REMARK    4  A    between atoms: S_4  and  N_7
REMARK    5  A    between atoms: C_8  and  C_10
REMARK    6  A    between atoms: C_12  and  C_13
REMARK                            x       y       z     vdW  Elec       q    Type
REMARK                         _______ _______ _______ _____ _____    ______ ____
ROOT
ATOM      1  C   UNL     1       2.586   7.142  18.578  0.00  0.00    +0.000 A 
ATOM      2  C   UNL     1       2.137   8.267  17.926  0.00  0.00    +0.000 A 
ATOM      3  C   UNL     1       1.496   9.049  18.922  0.00  0.00    +0.000 A 
ATOM      4  N   UNL     1       1.565   8.423  20.109  0.00  0.00    +0.000 NA
ATOM      5  O   UNL     1       2.241   7.239  19.891  0.00  0.00    +0.000 OA
ENDROOT
BRANCH   3   6
ATOM      6  C   UNL     1       0.818  10.336  18.756  0.00  0.00    +0.000 A 
ATOM      7  C   UNL     1      -0.569  10.389  18.540  0.00  0.00    +0.000 A 
ATOM      8  C   UNL     1      -1.214  11.610  18.323  0.00  0.00    +0.000 A 
ATOM      9  C   UNL     1      -0.482  12.796  18.333  0.00  0.00    +0.000 A 
ATOM     10  C   UNL     1       0.889  12.755  18.567  0.00  0.00    +0.000 A 
ATOM     11 CL   UNL     1       1.794  14.220  18.586  0.00  0.00    +0.000 Cl
ATOM     12  C   UNL     1       1.543  11.538  18.778  0.00  0.00    +0.000 A 
ENDBRANCH   3   6
BRANCH   1  14
ATOM     13  N   UNL     1       4.714   6.169  18.133  0.00  0.00    +0.000 N 
ATOM     14  C   UNL     1       3.324   5.999  18.106  0.00  0.00    +0.000 C 
ATOM     15  O   UNL     1       2.784   4.986  17.682  0.00  0.00    +0.000 OA
ATOM     16  H   UNL     1       5.123   7.018  18.515  0.00  0.00    +0.000 HD
BRANCH  13  17
ATOM     17  S   UNL     1       5.818   4.997  17.740  0.00  0.00    +0.000 S 
ATOM     18  O   UNL     1       5.606   4.588  16.372  0.00  0.00    +0.000 OA
ATOM     19  O   UNL     1       5.733   4.030  18.816  0.00  0.00    +0.000 OA
BRANCH  17  21
ATOM     20  C   UNL     1       7.249   7.336  17.457  0.00  0.00    +0.000 C 
ATOM     21  C   UNL     1       7.394   5.877  17.886  0.00  0.00    +0.000 C 
ATOM     22  C   UNL     1       7.916   5.794  19.317  0.00  0.00    +0.000 C 
ENDBRANCH  17  21
ENDBRANCH  13  17
ENDBRANCH   1  14
TORSDOF 4
ENDMDL
