MODEL 1
REMARK VINA RESULT:      -8.1      0.000      0.000
REMARK  Name = 
REMARK  15 active torsions:
REMARK  status: ('A' for Active; 'I' for Inactive)
REMARK    1  A    between atoms: CE_1  and  SD_2
REMARK    2  A    between atoms: SD_2  and  CG_3
REMARK    3  A    between atoms: CG_3  and  CB_4
REMARK    4  A    between atoms: CB_4  and  CA_5
REMARK    5  A    between atoms: CA_5  and  N_6
REMARK    6  A    between atoms: CA_5  and  C_33
REMARK    7  A    between atoms: C_7  and  C_9
REMARK    8  A    between atoms: C_9  and  O_10
REMARK    9  A    between atoms: O_10  and  C_11
REMARK   10  A    between atoms: C_14  and  C_15
REMARK   11  A    between atoms: C_15  and  C_16
REMARK   12  A    between atoms: N_18  and  C_19
REMARK   13  A    between atoms: C_21  and  C_22
REMARK   14  A    between atoms: C_24  and  C_25
REMARK   15  A    between atoms: C_33  and  OXT_35
REMARK                            x       y       z     vdW  Elec       q    Type
REMARK                         _______ _______ _______ _____ _____    ______ ____
ROOT
ATOM      1  O   UNK A   0       3.453   5.425  19.803  0.00  0.00    +0.000 OA
ENDROOT
BRANCH   1   2
ATOM      2  C   UNK A   0       2.843   6.564  19.341  0.00  0.00    +0.000 A 
ATOM      3  C   UNK A   0       2.993   7.090  18.060  0.00  0.00    +0.000 A 
ATOM      4  C   UNK A   0       2.444   8.325  17.726  0.00  0.00    +0.000 A 
ATOM      5  C   UNK A   0       1.631   9.013  18.629  0.00  0.00    +0.000 A 
ATOM      6  C   UNK A   0       1.451   8.475  19.910  0.00  0.00    +0.000 A 
ATOM      7  C   UNK A   0       2.055   7.255  20.262  0.00  0.00    +0.000 A 
BRANCH   5   8
ATOM      8  C   UNK A   0       0.999  10.316  18.201  0.00  0.00    +0.000 C 
BRANCH   8   9
ATOM      9  C   UNK A   0       0.083  10.975  19.224  0.00  0.00    +0.000 C 
ATOM     10  O   UNK A   0      -1.135  10.796  19.177  0.00  0.00    +0.000 OA
ATOM     11  N   UNK A   0       0.734  11.725  20.182  0.00  0.00    +0.000 N 
ATOM     12  H   UNK A   0       1.575  12.174  19.846  0.00  0.00    +0.000 HD
BRANCH  11  13
ATOM     13  C   UNK A   0       0.053  12.405  21.213  0.00  0.00    +0.000 A 
ATOM     14  C   UNK A   0      -1.021  11.826  21.897  0.00  0.00    +0.000 A 
ATOM     15  C   UNK A   0      -1.679  12.538  22.907  0.00  0.00    +0.000 A 
ATOM     16  C   UNK A   0      -2.836  11.940  23.652  0.00  0.00    +0.000 C 
ATOM     17  C   UNK A   0      -1.272  13.848  23.199  0.00  0.00    +0.000 A 
ATOM     18  C   UNK A   0      -0.198  14.436  22.519  0.00  0.00    +0.000 A 
ATOM     19  C   UNK A   0       0.188  15.862  22.772  0.00  0.00    +0.000 C 
ATOM     20  C   UNK A   0       0.485  13.688  21.550  0.00  0.00    +0.000 A 
ENDBRANCH  11  13
ENDBRANCH   8   9
ENDBRANCH   5   8
ENDBRANCH   1   2
BRANCH   1  21
ATOM     21  C   UNK A   0       3.105   4.170  19.193  0.00  0.00    +0.000 C 
ATOM     22  C   UNK A   0       1.592   4.188  18.882  0.00  0.00    +0.000 C 
ATOM     23  C   UNK A   0       0.904   3.871  20.207  0.00  0.00    +0.000 C 
ATOM     24  C   UNK A   0       1.871   2.984  20.973  0.00  0.00    +0.000 C 
ATOM     25  C   UNK A   0       3.169   2.976  20.177  0.00  0.00    +0.000 C 
BRANCH  21  27
ATOM     26  N   MET A   1       5.088   4.484  17.716  0.00  0.00    +0.000 N 
ATOM     27  C   UNK A   0       3.838   3.922  17.843  0.00  0.00    +0.000 C 
ATOM     28  O   UNK A   0       3.329   3.333  16.885  0.00  0.00    +0.000 OA
ATOM     29  H   MET A   1       5.426   5.086  18.460  0.00  0.00    +0.000 HD
BRANCH  26  30
ATOM     30  CA  MET A   1       5.929   4.245  16.534  0.00  0.00    +0.000 C 
BRANCH  30  31
ATOM     31  C   MET A   1       5.350   4.955  15.301  0.00  0.00    +0.000 C 
ATOM     32  O   MET A   1       5.095   4.406  14.231  0.00  0.00    +0.000 OA
BRANCH  31  33
ATOM     33  OXT MET A   1       5.080   6.265  15.521  0.00  0.00    +0.000 OA
ATOM     34  HXT MET A   1       5.904   6.812  15.535  0.00  0.00    +0.000 HD
ENDBRANCH  31  33
ENDBRANCH  30  31
BRANCH  30  35
ATOM     35  CB  MET A   1       7.397   4.652  16.760  0.00  0.00    +0.000 C 
BRANCH  35  36
ATOM     36  CG  MET A   1       7.855   4.580  18.214  0.00  0.00    +0.000 C 
BRANCH  36  38
ATOM     37  CE  MET A   1       7.683   7.222  17.532  0.00  0.00    +0.000 C 
ATOM     38  SD  MET A   1       7.806   6.216  19.016  0.00  0.00    +0.000 S 
ENDBRANCH  36  38
ENDBRANCH  35  36
ENDBRANCH  30  35
ENDBRANCH  26  30
ENDBRANCH  21  27
ENDBRANCH   1  21
TORSDOF 12
ENDMDL
MODEL 2
REMARK VINA RESULT:      -8.0      2.898      3.887
REMARK  Name = 
REMARK  15 active torsions:
REMARK  status: ('A' for Active; 'I' for Inactive)
REMARK    1  A    between atoms: CE_1  and  SD_2
REMARK    2  A    between atoms: SD_2  and  CG_3
REMARK    3  A    between atoms: CG_3  and  CB_4
REMARK    4  A    between atoms: CB_4  and  CA_5
REMARK    5  A    between atoms: CA_5  and  N_6
REMARK    6  A    between atoms: CA_5  and  C_33
REMARK    7  A    between atoms: C_7  and  C_9
REMARK    8  A    between atoms: C_9  and  O_10
REMARK    9  A    between atoms: O_10  and  C_11
REMARK   10  A    between atoms: C_14  and  C_15
REMARK   11  A    between atoms: C_15  and  C_16
REMARK   12  A    between atoms: N_18  and  C_19
REMARK   13  A    between atoms: C_21  and  C_22
REMARK   14  A    between atoms: C_24  and  C_25
REMARK   15  A    between atoms: C_33  and  OXT_35
REMARK                            x       y       z     vdW  Elec       q    Type
REMARK                         _______ _______ _______ _____ _____    ______ ____
ROOT
ATOM      1  O   UNK A   0       2.899   4.305  19.907  0.00  0.00    +0.000 OA
ENDROOT
BRANCH   1   2
ATOM      2  C   UNK A   0       2.494   5.583  19.618  0.00  0.00    +0.000 A 
ATOM      3  C   UNK A   0       2.569   6.183  18.362  0.00  0.00    +0.000 A 
ATOM      4  C   UNK A   0       2.263   7.532  18.195  0.00  0.00    +0.000 A 
ATOM      5  C   UNK A   0       1.761   8.287  19.258  0.00  0.00    +0.000 A 
ATOM      6  C   UNK A   0       1.656   7.682  20.517  0.00  0.00    +0.000 A 
ATOM      7  C   UNK A   0       2.021   6.336  20.694  0.00  0.00    +0.000 A 
BRANCH   5   8
ATOM      8  C   UNK A   0       1.376   9.727  19.016  0.00  0.00    +0.000 C 
BRANCH   8   9
ATOM      9  C   UNK A   0      -0.114   9.996  18.859  0.00  0.00    +0.000 C 
ATOM     10  O   UNK A   0      -0.871   9.892  19.825  0.00  0.00    +0.000 OA
ATOM     11  N   UNK A   0      -0.500  10.383  17.592  0.00  0.00    +0.000 N 
ATOM     12  H   UNK A   0       0.052   9.969  16.854  0.00  0.00    +0.000 HD
BRANCH  11  13
ATOM     13  C   UNK A   0      -1.838  10.679  17.258  0.00  0.00    +0.000 A 
ATOM     14  C   UNK A   0      -2.709  11.289  18.166  0.00  0.00    +0.000 A 
ATOM     15  C   UNK A   0      -4.034  11.556  17.800  0.00  0.00    +0.000 A 
ATOM     16  C   UNK A   0      -4.989  12.205  18.758  0.00  0.00    +0.000 C 
ATOM     17  C   UNK A   0      -4.484  11.174  16.528  0.00  0.00    +0.000 A 
ATOM     18  C   UNK A   0      -3.618  10.564  15.612  0.00  0.00    +0.000 A 
ATOM     19  C   UNK A   0      -4.115  10.082  14.282  0.00  0.00    +0.000 C 
ATOM     20  C   UNK A   0      -2.280  10.355  15.975  0.00  0.00    +0.000 A 
ENDBRANCH  11  13
ENDBRANCH   8   9
ENDBRANCH   5   8
ENDBRANCH   1   2
BRANCH   1  21
ATOM     21  C   UNK A   0       3.820   3.662  19.008  0.00  0.00    +0.000 C 
ATOM     22  C   UNK A   0       3.139   3.539  17.627  0.00  0.00    +0.000 C 
ATOM     23  C   UNK A   0       2.216   2.329  17.738  0.00  0.00    +0.000 C 
ATOM     24  C   UNK A   0       2.876   1.396  18.738  0.00  0.00    +0.000 C 
ATOM     25  C   UNK A   0       4.046   2.165  19.336  0.00  0.00    +0.000 C 
BRANCH  21  27
ATOM     26  N   MET A   1       5.520   4.665  17.487  0.00  0.00    +0.000 N 
ATOM     27  C   UNK A   0       5.131   4.471  18.793  0.00  0.00    +0.000 C 
ATOM     28  O   UNK A   0       5.855   4.861  19.714  0.00  0.00    +0.000 OA
ATOM     29  H   MET A   1       4.989   4.212  16.751  0.00  0.00    +0.000 HD
BRANCH  26  30
ATOM     30  CA  MET A   1       6.683   5.496  17.139  0.00  0.00    +0.000 C 
BRANCH  30  31
ATOM     31  C   MET A   1       6.790   5.670  15.617  0.00  0.00    +0.000 C 
ATOM     32  O   MET A   1       7.736   5.286  14.933  0.00  0.00    +0.000 OA
BRANCH  31  33
ATOM     33  OXT MET A   1       5.693   6.247  15.070  0.00  0.00    +0.000 OA
ATOM     34  HXT MET A   1       5.446   7.084  15.536  0.00  0.00    +0.000 HD
ENDBRANCH  31  33
ENDBRANCH  30  31
BRANCH  30  35
ATOM     35  CB  MET A   1       6.666   6.864  17.847  0.00  0.00    +0.000 C 
BRANCH  35  36
ATOM     36  CG  MET A   1       8.048   7.450  18.119  0.00  0.00    +0.000 C 
BRANCH  36  38
ATOM     37  CE  MET A   1       9.046   9.762  19.181  0.00  0.00    +0.000 C 
ATOM     38  SD  MET A   1       8.111   9.232  17.741  0.00  0.00    +0.000 S 
ENDBRANCH  36  38
ENDBRANCH  35  36
ENDBRANCH  30  35
ENDBRANCH  26  30
ENDBRANCH  21  27
ENDBRANCH   1  21
TORSDOF 12
ENDMDL
MODEL 3
REMARK VINA RESULT:      -7.9      3.079      4.250
REMARK  Name = 
REMARK  15 active torsions:
REMARK  status: ('A' for Active; 'I' for Inactive)
REMARK    1  A    between atoms: CE_1  and  SD_2
REMARK    2  A    between atoms: SD_2  and  CG_3
REMARK    3  A    between atoms: CG_3  and  CB_4
REMARK    4  A    between atoms: CB_4  and  CA_5
REMARK    5  A    between atoms: CA_5  and  N_6
REMARK    6  A    between atoms: CA_5  and  C_33
REMARK    7  A    between atoms: C_7  and  C_9
REMARK    8  A    between atoms: C_9  and  O_10
REMARK    9  A    between atoms: O_10  and  C_11
REMARK   10  A    between atoms: C_14  and  C_15
REMARK   11  A    between atoms: C_15  and  C_16
REMARK   12  A    between atoms: N_18  and  C_19
REMARK   13  A    between atoms: C_21  and  C_22
REMARK   14  A    between atoms: C_24  and  C_25
REMARK   15  A    between atoms: C_33  and  OXT_35
REMARK                            x       y       z     vdW  Elec       q    Type
REMARK                         _______ _______ _______ _____ _____    ______ ____
ROOT
ATOM      1  O   UNK A   0       1.884   4.867  19.818  0.00  0.00    +0.000 OA
ENDROOT
BRANCH   1   2
ATOM      2  C   UNK A   0       1.909   6.220  19.593  0.00  0.00    +0.000 A 
ATOM      3  C   UNK A   0       1.737   7.198  20.570  0.00  0.00    +0.000 A 
ATOM      4  C   UNK A   0       1.639   8.544  20.224  0.00  0.00    +0.000 A 
ATOM      5  C   UNK A   0       1.827   8.958  18.904  0.00  0.00    +0.000 A 
ATOM      6  C   UNK A   0       2.030   7.981  17.920  0.00  0.00    +0.000 A 
ATOM      7  C   UNK A   0       2.071   6.619  18.266  0.00  0.00    +0.000 A 
BRANCH   5   8
ATOM      8  C   UNK A   0       1.781  10.433  18.584  0.00  0.00    +0.000 C 
BRANCH   8   9
ATOM      9  C   UNK A   0       0.404  10.999  18.268  0.00  0.00    +0.000 C 
ATOM     10  O   UNK A   0       0.160  12.191  18.465  0.00  0.00    +0.000 OA
ATOM     11  N   UNK A   0      -0.484  10.091  17.731  0.00  0.00    +0.000 N 
ATOM     12  H   UNK A   0      -0.356   9.147  18.069  0.00  0.00    +0.000 HD
BRANCH  11  13
ATOM     13  C   UNK A   0      -1.804  10.433  17.370  0.00  0.00    +0.000 A 
ATOM     14  C   UNK A   0      -2.716  10.944  18.300  0.00  0.00    +0.000 A 
ATOM     15  C   UNK A   0      -4.021  11.260  17.905  0.00  0.00    +0.000 A 
ATOM     16  C   UNK A   0      -5.018  11.806  18.885  0.00  0.00    +0.000 C 
ATOM     17  C   UNK A   0      -4.412  11.026  16.578  0.00  0.00    +0.000 A 
ATOM     18  C   UNK A   0      -3.506  10.516  15.641  0.00  0.00    +0.000 A 
ATOM     19  C   UNK A   0      -3.941  10.189  14.245  0.00  0.00    +0.000 C 
ATOM     20  C   UNK A   0      -2.187  10.257  16.040  0.00  0.00    +0.000 A 
ENDBRANCH  11  13
ENDBRANCH   8   9
ENDBRANCH   5   8
ENDBRANCH   1   2
BRANCH   1  21
ATOM     21  C   UNK A   0       2.937   4.064  19.256  0.00  0.00    +0.000 C 
ATOM     22  C   UNK A   0       2.448   3.509  17.900  0.00  0.00    +0.000 C 
ATOM     23  C   UNK A   0       1.561   2.317  18.248  0.00  0.00    +0.000 C 
ATOM     24  C   UNK A   0       2.117   1.753  19.544  0.00  0.00    +0.000 C 
ATOM     25  C   UNK A   0       3.171   2.741  20.026  0.00  0.00    +0.000 C 
BRANCH  21  27
ATOM     26  N   MET A   1       4.833   4.652  17.749  0.00  0.00    +0.000 N 
ATOM     27  C   UNK A   0       4.235   4.871  18.969  0.00  0.00    +0.000 C 
ATOM     28  O   UNK A   0       4.779   5.612  19.795  0.00  0.00    +0.000 OA
ATOM     29  H   MET A   1       4.451   3.931  17.145  0.00  0.00    +0.000 HD
BRANCH  26  30
ATOM     30  CA  MET A   1       6.007   5.420  17.310  0.00  0.00    +0.000 C 
BRANCH  30  31
ATOM     31  C   MET A   1       7.303   4.776  17.827  0.00  0.00    +0.000 C 
ATOM     32  O   MET A   1       8.138   4.217  17.119  0.00  0.00    +0.000 OA
BRANCH  31  33
ATOM     33  OXT MET A   1       7.479   4.936  19.161  0.00  0.00    +0.000 OA
ATOM     34  HXT MET A   1       8.355   5.346  19.369  0.00  0.00    +0.000 HD
ENDBRANCH  31  33
ENDBRANCH  30  31
BRANCH  30  35
ATOM     35  CB  MET A   1       6.059   5.602  15.782  0.00  0.00    +0.000 C 
BRANCH  35  36
ATOM     36  CG  MET A   1       5.476   4.437  14.988  0.00  0.00    +0.000 C 
BRANCH  36  38
ATOM     37  CE  MET A   1       5.199   3.518  12.429  0.00  0.00    +0.000 C 
ATOM     38  SD  MET A   1       6.513   4.017  13.549  0.00  0.00    +0.000 S 
ENDBRANCH  36  38
ENDBRANCH  35  36
ENDBRANCH  30  35
ENDBRANCH  26  30
ENDBRANCH  21  27
ENDBRANCH   1  21
TORSDOF 12
ENDMDL
MODEL 4
REMARK VINA RESULT:      -7.9      2.706      3.856
REMARK  Name = 
REMARK  15 active torsions:
REMARK  status: ('A' for Active; 'I' for Inactive)
REMARK    1  A    between atoms: CE_1  and  SD_2
REMARK    2  A    between atoms: SD_2  and  CG_3
REMARK    3  A    between atoms: CG_3  and  CB_4
REMARK    4  A    between atoms: CB_4  and  CA_5
REMARK    5  A    between atoms: CA_5  and  N_6
REMARK    6  A    between atoms: CA_5  and  C_33
REMARK    7  A    between atoms: C_7  and  C_9
REMARK    8  A    between atoms: C_9  and  O_10
REMARK    9  A    between atoms: O_10  and  C_11
REMARK   10  A    between atoms: C_14  and  C_15
REMARK   11  A    between atoms: C_15  and  C_16
REMARK   12  A    between atoms: N_18  and  C_19
REMARK   13  A    between atoms: C_21  and  C_22
REMARK   14  A    between atoms: C_24  and  C_25
REMARK   15  A    between atoms: C_33  and  OXT_35
REMARK                            x       y       z     vdW  Elec       q    Type
REMARK                         _______ _______ _______ _____ _____    ______ ____
ROOT
ATOM      1  O   UNK A   0       2.767   4.810  20.251  0.00  0.00    +0.000 OA
ENDROOT
BRANCH   1   2
ATOM      2  C   UNK A   0       2.355   6.078  19.931  0.00  0.00    +0.000 A 
ATOM      3  C   UNK A   0       2.676   6.753  18.755  0.00  0.00    +0.000 A 
ATOM      4  C   UNK A   0       2.327   8.090  18.579  0.00  0.00    +0.000 A 
ATOM      5  C   UNK A   0       1.545   8.754  19.527  0.00  0.00    +0.000 A 
ATOM      6  C   UNK A   0       1.193   8.073  20.699  0.00  0.00    +0.000 A 
ATOM      7  C   UNK A   0       1.597   6.740  20.898  0.00  0.00    +0.000 A 
BRANCH   5   8
ATOM      8  C   UNK A   0       1.131  10.182  19.264  0.00  0.00    +0.000 C 
BRANCH   8   9
ATOM      9  C   UNK A   0      -0.341  10.395  18.939  0.00  0.00    +0.000 C 
ATOM     10  O   UNK A   0      -1.150  10.628  19.838  0.00  0.00    +0.000 OA
ATOM     11  N   UNK A   0      -0.650  10.337  17.596  0.00  0.00    +0.000 N 
ATOM     12  H   UNK A   0      -0.071   9.695  17.072  0.00  0.00    +0.000 HD
BRANCH  11  13
ATOM     13  C   UNK A   0      -1.960  10.515  17.104  0.00  0.00    +0.000 A 
ATOM     14  C   UNK A   0      -2.313  10.160  15.797  0.00  0.00    +0.000 A 
ATOM     15  C   UNK A   0      -3.621  10.365  15.343  0.00  0.00    +0.000 A 
ATOM     16  C   UNK A   0      -4.023   9.996  13.944  0.00  0.00    +0.000 C 
ATOM     17  C   UNK A   0      -4.560  10.959  16.198  0.00  0.00    +0.000 A 
ATOM     18  C   UNK A   0      -4.215  11.316  17.507  0.00  0.00    +0.000 A 
ATOM     19  C   UNK A   0      -5.191  12.023  18.397  0.00  0.00    +0.000 C 
ATOM     20  C   UNK A   0      -2.916  11.053  17.964  0.00  0.00    +0.000 A 
ENDBRANCH  11  13
ENDBRANCH   8   9
ENDBRANCH   5   8
ENDBRANCH   1   2
BRANCH   1  21
ATOM     21  C   UNK A   0       2.958   3.865  19.183  0.00  0.00    +0.000 C 
ATOM     22  C   UNK A   0       1.865   4.113  18.119  0.00  0.00    +0.000 C 
ATOM     23  C   UNK A   0       0.613   3.429  18.661  0.00  0.00    +0.000 C 
ATOM     24  C   UNK A   0       1.108   2.259  19.494  0.00  0.00    +0.000 C 
ATOM     25  C   UNK A   0       2.621   2.410  19.590  0.00  0.00    +0.000 C 
BRANCH  21  27
ATOM     26  N   MET A   1       4.303   4.630  17.230  0.00  0.00    +0.000 N 
ATOM     27  C   UNK A   0       4.329   4.024  18.465  0.00  0.00    +0.000 C 
ATOM     28  O   UNK A   0       5.390   3.570  18.905  0.00  0.00    +0.000 OA
ATOM     29  H   MET A   1       3.403   4.864  16.823  0.00  0.00    +0.000 HD
BRANCH  26  30
ATOM     30  CA  MET A   1       5.537   4.931  16.488  0.00  0.00    +0.000 C 
BRANCH  30  31
ATOM     31  C   MET A   1       5.673   4.014  15.264  0.00  0.00    +0.000 C 
ATOM     32  O   MET A   1       5.503   4.368  14.099  0.00  0.00    +0.000 OA
BRANCH  31  33
ATOM     33  OXT MET A   1       6.068   2.757  15.584  0.00  0.00    +0.000 OA
ATOM     34  HXT MET A   1       6.065   2.609  16.562  0.00  0.00    +0.000 HD
ENDBRANCH  31  33
ENDBRANCH  30  31
BRANCH  30  35
ATOM     35  CB  MET A   1       5.632   6.412  16.074  0.00  0.00    +0.000 C 
BRANCH  35  36
ATOM     36  CG  MET A   1       5.932   7.369  17.223  0.00  0.00    +0.000 C 
BRANCH  36  38
ATOM     37  CE  MET A   1       8.088   8.871  17.976  0.00  0.00    +0.000 C 
ATOM     38  SD  MET A   1       7.622   7.139  17.868  0.00  0.00    +0.000 S 
ENDBRANCH  36  38
ENDBRANCH  35  36
ENDBRANCH  30  35
ENDBRANCH  26  30
ENDBRANCH  21  27
ENDBRANCH   1  21
TORSDOF 12
ENDMDL
MODEL 5
REMARK VINA RESULT:      -7.9      2.633      3.455
REMARK  Name = 
REMARK  15 active torsions:
REMARK  status: ('A' for Active; 'I' for Inactive)
REMARK    1  A    between atoms: CE_1  and  SD_2
REMARK    2  A    between atoms: SD_2  and  CG_3
REMARK    3  A    between atoms: CG_3  and  CB_4
REMARK    4  A    between atoms: CB_4  and  CA_5
REMARK    5  A    between atoms: CA_5  and  N_6
REMARK    6  A    between atoms: CA_5  and  C_33
REMARK    7  A    between atoms: C_7  and  C_9
REMARK    8  A    between atoms: C_9  and  O_10
REMARK    9  A    between atoms: O_10  and  C_11
REMARK   10  A    between atoms: C_14  and  C_15
REMARK   11  A    between atoms: C_15  and  C_16
REMARK   12  A    between atoms: N_18  and  C_19
REMARK   13  A    between atoms: C_21  and  C_22
REMARK   14  A    between atoms: C_24  and  C_25
REMARK   15  A    between atoms: C_33  and  OXT_35
REMARK                            x       y       z     vdW  Elec       q    Type
REMARK                         _______ _______ _______ _____ _____    ______ ____
ROOT
ATOM      1  O   UNK A   0       2.648   5.811  17.922  0.00  0.00    +0.000 OA
ENDROOT
BRANCH   1   2
ATOM      2  C   UNK A   0       2.272   6.985  18.525  0.00  0.00    +0.000 A 
ATOM      3  C   UNK A   0       2.119   7.168  19.898  0.00  0.00    +0.000 A 
ATOM      4  C   UNK A   0       1.600   8.355  20.407  0.00  0.00    +0.000 A 
ATOM      5  C   UNK A   0       1.329   9.436  19.564  0.00  0.00    +0.000 A 
ATOM      6  C   UNK A   0       1.509   9.269  18.186  0.00  0.00    +0.000 A 
ATOM      7  C   UNK A   0       1.979   8.049  17.670  0.00  0.00    +0.000 A 
BRANCH   5   8
ATOM      8  C   UNK A   0       0.833  10.728  20.167  0.00  0.00    +0.000 C 
BRANCH   8   9
ATOM      9  C   UNK A   0       1.289  12.002  19.468  0.00  0.00    +0.000 C 
ATOM     10  O   UNK A   0       2.089  11.947  18.533  0.00  0.00    +0.000 OA
ATOM     11  N   UNK A   0       0.713  13.160  19.947  0.00  0.00    +0.000 N 
ATOM     12  H   UNK A   0       0.506  13.135  20.936  0.00  0.00    +0.000 HD
BRANCH  11  13
ATOM     13  C   UNK A   0       1.009  14.436  19.421  0.00  0.00    +0.000 A 
ATOM     14  C   UNK A   0       0.010  15.280  18.924  0.00  0.00    +0.000 A 
ATOM     15  C   UNK A   0       0.346  16.533  18.399  0.00  0.00    +0.000 A 
ATOM     16  C   UNK A   0      -0.706  17.455  17.856  0.00  0.00    +0.000 C 
ATOM     17  C   UNK A   0       1.695  16.916  18.345  0.00  0.00    +0.000 A 
ATOM     18  C   UNK A   0       2.700  16.077  18.841  0.00  0.00    +0.000 A 
ATOM     19  C   UNK A   0       4.147  16.447  18.712  0.00  0.00    +0.000 C 
ATOM     20  C   UNK A   0       2.341  14.849  19.414  0.00  0.00    +0.000 A 
ENDBRANCH  11  13
ENDBRANCH   8   9
ENDBRANCH   5   8
ENDBRANCH   1   2
BRANCH   1  21
ATOM     21  C   UNK A   0       3.226   4.779  18.740  0.00  0.00    +0.000 C 
ATOM     22  C   UNK A   0       2.834   3.411  18.139  0.00  0.00    +0.000 C 
ATOM     23  C   UNK A   0       1.407   3.156  18.614  0.00  0.00    +0.000 C 
ATOM     24  C   UNK A   0       1.287   3.854  19.957  0.00  0.00    +0.000 C 
ATOM     25  C   UNK A   0       2.563   4.666  20.135  0.00  0.00    +0.000 C 
BRANCH  21  27
ATOM     26  N   MET A   1       5.385   5.705  17.907  0.00  0.00    +0.000 N 
ATOM     27  C   UNK A   0       4.780   4.826  18.776  0.00  0.00    +0.000 C 
ATOM     28  O   UNK A   0       5.473   4.073  19.469  0.00  0.00    +0.000 OA
ATOM     29  H   MET A   1       4.803   6.208  17.245  0.00  0.00    +0.000 HD
BRANCH  26  30
ATOM     30  CA  MET A   1       6.840   5.921  17.908  0.00  0.00    +0.000 C 
BRANCH  30  31
ATOM     31  C   MET A   1       7.546   4.864  17.046  0.00  0.00    +0.000 C 
ATOM     32  O   MET A   1       7.520   4.830  15.818  0.00  0.00    +0.000 OA
BRANCH  31  33
ATOM     33  OXT MET A   1       8.273   3.982  17.776  0.00  0.00    +0.000 OA
ATOM     34  HXT MET A   1       7.850   3.088  17.798  0.00  0.00    +0.000 HD
ENDBRANCH  31  33
ENDBRANCH  30  31
BRANCH  30  35
ATOM     35  CB  MET A   1       7.227   7.342  17.459  0.00  0.00    +0.000 C 
BRANCH  35  36
ATOM     36  CG  MET A   1       8.289   8.010  18.327  0.00  0.00    +0.000 C 
BRANCH  36  38
ATOM     37  CE  MET A   1       9.303  10.275  19.472  0.00  0.00    +0.000 C 
ATOM     38  SD  MET A   1       8.410   9.797  17.988  0.00  0.00    +0.000 S 
ENDBRANCH  36  38
ENDBRANCH  35  36
ENDBRANCH  30  35
ENDBRANCH  26  30
ENDBRANCH  21  27
ENDBRANCH   1  21
TORSDOF 12
ENDMDL
MODEL 6
REMARK VINA RESULT:      -7.8      2.859      3.782
REMARK  Name = 
REMARK  15 active torsions:
REMARK  status: ('A' for Active; 'I' for Inactive)
REMARK    1  A    between atoms: CE_1  and  SD_2
REMARK    2  A    between atoms: SD_2  and  CG_3
REMARK    3  A    between atoms: CG_3  and  CB_4
REMARK    4  A    between atoms: CB_4  and  CA_5
REMARK    5  A    between atoms: CA_5  and  N_6
REMARK    6  A    between atoms: CA_5  and  C_33
REMARK    7  A    between atoms: C_7  and  C_9
REMARK    8  A    between atoms: C_9  and  O_10
REMARK    9  A    between atoms: O_10  and  C_11
REMARK   10  A    between atoms: C_14  and  C_15
REMARK   11  A    between atoms: C_15  and  C_16
REMARK   12  A    between atoms: N_18  and  C_19
REMARK   13  A    between atoms: C_21  and  C_22
REMARK   14  A    between atoms: C_24  and  C_25
REMARK   15  A    between atoms: C_33  and  OXT_35
REMARK                            x       y       z     vdW  Elec       q    Type
REMARK                         _______ _______ _______ _____ _____    ______ ____
ROOT
ATOM      1  O   UNK A   0       3.635   5.581  19.608  0.00  0.00    +0.000 OA
ENDROOT
BRANCH   1   2
ATOM      2  C   UNK A   0       2.890   6.678  19.258  0.00  0.00    +0.000 A 
ATOM      3  C   UNK A   0       2.964   7.340  18.034  0.00  0.00    +0.000 A 
ATOM      4  C   UNK A   0       2.268   8.528  17.821  0.00  0.00    +0.000 A 
ATOM      5  C   UNK A   0       1.388   9.023  18.786  0.00  0.00    +0.000 A 
ATOM      6  C   UNK A   0       1.286   8.346  20.008  0.00  0.00    +0.000 A 
ATOM      7  C   UNK A   0       2.034   7.178  20.240  0.00  0.00    +0.000 A 
BRANCH   5   8
ATOM      8  C   UNK A   0       0.601  10.277  18.486  0.00  0.00    +0.000 C 
BRANCH   8   9
ATOM      9  C   UNK A   0       1.188  11.572  19.029  0.00  0.00    +0.000 C 
ATOM     10  O   UNK A   0       1.518  11.659  20.213  0.00  0.00    +0.000 OA
ATOM     11  N   UNK A   0       1.337  12.575  18.093  0.00  0.00    +0.000 N 
ATOM     12  H   UNK A   0       0.631  12.566  17.371  0.00  0.00    +0.000 HD
BRANCH  11  13
ATOM     13  C   UNK A   0       1.869  13.843  18.409  0.00  0.00    +0.000 A 
ATOM     14  C   UNK A   0       1.055  14.903  18.822  0.00  0.00    +0.000 A 
ATOM     15  C   UNK A   0       1.619  16.150  19.114  0.00  0.00    +0.000 A 
ATOM     16  C   UNK A   0       0.767  17.304  19.556  0.00  0.00    +0.000 C 
ATOM     17  C   UNK A   0       3.001  16.333  18.955  0.00  0.00    +0.000 A 
ATOM     18  C   UNK A   0       3.823  15.277  18.543  0.00  0.00    +0.000 A 
ATOM     19  C   UNK A   0       5.285  15.489  18.294  0.00  0.00    +0.000 C 
ATOM     20  C   UNK A   0       3.248  14.019  18.308  0.00  0.00    +0.000 A 
ENDBRANCH  11  13
ENDBRANCH   8   9
ENDBRANCH   5   8
ENDBRANCH   1   2
BRANCH   1  21
ATOM     21  C   UNK A   0       3.652   4.455  18.713  0.00  0.00    +0.000 C 
ATOM     22  C   UNK A   0       2.371   4.505  17.851  0.00  0.00    +0.000 C 
ATOM     23  C   UNK A   0       1.266   3.938  18.737  0.00  0.00    +0.000 C 
ATOM     24  C   UNK A   0       1.945   2.941  19.659  0.00  0.00    +0.000 C 
ATOM     25  C   UNK A   0       3.443   3.101  19.435  0.00  0.00    +0.000 C 
BRANCH  21  27
ATOM     26  N   MET A   1       4.611   4.973  16.472  0.00  0.00    +0.000 N 
ATOM     27  C   UNK A   0       4.857   4.472  17.730  0.00  0.00    +0.000 C 
ATOM     28  O   UNK A   0       5.965   3.996  17.995  0.00  0.00    +0.000 OA
ATOM     29  H   MET A   1       3.657   5.224  16.229  0.00  0.00    +0.000 HD
BRANCH  26  30
ATOM     30  CA  MET A   1       5.682   5.139  15.479  0.00  0.00    +0.000 C 
BRANCH  30  31
ATOM     31  C   MET A   1       6.988   5.579  16.157  0.00  0.00    +0.000 C 
ATOM     32  O   MET A   1       7.199   6.702  16.609  0.00  0.00    +0.000 OA
BRANCH  31  33
ATOM     33  OXT MET A   1       7.892   4.575  16.270  0.00  0.00    +0.000 OA
ATOM     34  HXT MET A   1       7.502   3.700  16.025  0.00  0.00    +0.000 HD
ENDBRANCH  31  33
ENDBRANCH  30  31
BRANCH  30  35
ATOM     35  CB  MET A   1       5.906   3.872  14.632  0.00  0.00    +0.000 C 
BRANCH  35  36
ATOM     36  CG  MET A   1       6.407   4.140  13.216  0.00  0.00    +0.000 C 
BRANCH  36  38
ATOM     37  CE  MET A   1       4.417   3.261  11.561  0.00  0.00    +0.000 C 
ATOM     38  SD  MET A   1       6.052   2.744  12.100  0.00  0.00    +0.000 S 
ENDBRANCH  36  38
ENDBRANCH  35  36
ENDBRANCH  30  35
ENDBRANCH  26  30
ENDBRANCH  21  27
ENDBRANCH   1  21
TORSDOF 12
ENDMDL
MODEL 7
REMARK VINA RESULT:      -7.8      2.964      4.410
REMARK  Name = 
REMARK  15 active torsions:
REMARK  status: ('A' for Active; 'I' for Inactive)
REMARK    1  A    between atoms: CE_1  and  SD_2
REMARK    2  A    between atoms: SD_2  and  CG_3
REMARK    3  A    between atoms: CG_3  and  CB_4
REMARK    4  A    between atoms: CB_4  and  CA_5
REMARK    5  A    between atoms: CA_5  and  N_6
REMARK    6  A    between atoms: CA_5  and  C_33
REMARK    7  A    between atoms: C_7  and  C_9
REMARK    8  A    between atoms: C_9  and  O_10
REMARK    9  A    between atoms: O_10  and  C_11
REMARK   10  A    between atoms: C_14  and  C_15
REMARK   11  A    between atoms: C_15  and  C_16
REMARK   12  A    between atoms: N_18  and  C_19
REMARK   13  A    between atoms: C_21  and  C_22
REMARK   14  A    between atoms: C_24  and  C_25
REMARK   15  A    between atoms: C_33  and  OXT_35
REMARK                            x       y       z     vdW  Elec       q    Type
REMARK                         _______ _______ _______ _____ _____    ______ ____
ROOT
ATOM      1  O   UNK A   0       2.788   5.249  19.860  0.00  0.00    +0.000 OA
ENDROOT
BRANCH   1   2
ATOM      2  C   UNK A   0       2.277   6.509  20.041  0.00  0.00    +0.000 A 
ATOM      3  C   UNK A   0       1.653   6.962  21.201  0.00  0.00    +0.000 A 
ATOM      4  C   UNK A   0       1.042   8.214  21.242  0.00  0.00    +0.000 A 
ATOM      5  C   UNK A   0       1.142   9.092  20.161  0.00  0.00    +0.000 A 
ATOM      6  C   UNK A   0       1.794   8.655  19.002  0.00  0.00    +0.000 A 
ATOM      7  C   UNK A   0       2.359   7.368  18.944  0.00  0.00    +0.000 A 
BRANCH   5   8
ATOM      8  C   UNK A   0       0.525  10.466  20.275  0.00  0.00    +0.000 C 
BRANCH   8   9
ATOM      9  C   UNK A   0      -0.332  10.906  19.095  0.00  0.00    +0.000 C 
ATOM     10  O   UNK A   0       0.039  11.827  18.365  0.00  0.00    +0.000 OA
ATOM     11  N   UNK A   0      -1.490  10.177  18.920  0.00  0.00    +0.000 N 
ATOM     12  H   UNK A   0      -1.895   9.841  19.782  0.00  0.00    +0.000 HD
BRANCH  11  13
ATOM     13  C   UNK A   0      -2.405  10.435  17.878  0.00  0.00    +0.000 A 
ATOM     14  C   UNK A   0      -2.165  10.022  16.563  0.00  0.00    +0.000 A 
ATOM     15  C   UNK A   0      -3.094  10.309  15.556  0.00  0.00    +0.000 A 
ATOM     16  C   UNK A   0      -2.857   9.880  14.137  0.00  0.00    +0.000 C 
ATOM     17  C   UNK A   0      -4.246  11.043  15.872  0.00  0.00    +0.000 A 
ATOM     18  C   UNK A   0      -4.494  11.460  17.186  0.00  0.00    +0.000 A 
ATOM     19  C   UNK A   0      -5.682  12.312  17.514  0.00  0.00    +0.000 C 
ATOM     20  C   UNK A   0      -3.581  11.116  18.193  0.00  0.00    +0.000 A 
ENDBRANCH  11  13
ENDBRANCH   8   9
ENDBRANCH   5   8
ENDBRANCH   1   2
BRANCH   1  21
ATOM     21  C   UNK A   0       3.213   4.869  18.539  0.00  0.00    +0.000 C 
ATOM     22  C   UNK A   0       2.002   4.994  17.588  0.00  0.00    +0.000 C 
ATOM     23  C   UNK A   0       1.178   3.730  17.817  0.00  0.00    +0.000 C 
ATOM     24  C   UNK A   0       2.174   2.654  18.212  0.00  0.00    +0.000 C 
ATOM     25  C   UNK A   0       3.511   3.355  18.407  0.00  0.00    +0.000 C 
BRANCH  21  27
ATOM     26  N   MET A   1       5.584   5.637  18.513  0.00  0.00    +0.000 N 
ATOM     27  C   UNK A   0       4.330   5.789  17.968  0.00  0.00    +0.000 C 
ATOM     28  O   UNK A   0       4.126   6.677  17.134  0.00  0.00    +0.000 OA
ATOM     29  H   MET A   1       5.697   5.004  19.298  0.00  0.00    +0.000 HD
BRANCH  26  30
ATOM     30  CA  MET A   1       6.749   6.371  17.997  0.00  0.00    +0.000 C 
BRANCH  30  31
ATOM     31  C   MET A   1       7.918   6.304  18.991  0.00  0.00    +0.000 C 
ATOM     32  O   MET A   1       8.216   5.315  19.656  0.00  0.00    +0.000 OA
BRANCH  31  33
ATOM     33  OXT MET A   1       8.649   7.445  19.028  0.00  0.00    +0.000 OA
ATOM     34  HXT MET A   1       9.511   7.313  19.496  0.00  0.00    +0.000 HD
ENDBRANCH  31  33
ENDBRANCH  30  31
BRANCH  30  35
ATOM     35  CB  MET A   1       7.187   5.883  16.604  0.00  0.00    +0.000 C 
BRANCH  35  36
ATOM     36  CG  MET A   1       7.102   4.372  16.409  0.00  0.00    +0.000 C 
BRANCH  36  38
ATOM     37  CE  MET A   1       6.896   4.612  13.694  0.00  0.00    +0.000 C 
ATOM     38  SD  MET A   1       5.953   3.930  15.064  0.00  0.00    +0.000 S 
ENDBRANCH  36  38
ENDBRANCH  35  36
ENDBRANCH  30  35
ENDBRANCH  26  30
ENDBRANCH  21  27
ENDBRANCH   1  21
TORSDOF 12
ENDMDL
MODEL 8
REMARK VINA RESULT:      -7.7      1.842      2.430
REMARK  Name = 
REMARK  15 active torsions:
REMARK  status: ('A' for Active; 'I' for Inactive)
REMARK    1  A    between atoms: CE_1  and  SD_2
REMARK    2  A    between atoms: SD_2  and  CG_3
REMARK    3  A    between atoms: CG_3  and  CB_4
REMARK    4  A    between atoms: CB_4  and  CA_5
REMARK    5  A    between atoms: CA_5  and  N_6
REMARK    6  A    between atoms: CA_5  and  C_33
REMARK    7  A    between atoms: C_7  and  C_9
REMARK    8  A    between atoms: C_9  and  O_10
REMARK    9  A    between atoms: O_10  and  C_11
REMARK   10  A    between atoms: C_14  and  C_15
REMARK   11  A    between atoms: C_15  and  C_16
REMARK   12  A    between atoms: N_18  and  C_19
REMARK   13  A    between atoms: C_21  and  C_22
REMARK   14  A    between atoms: C_24  and  C_25
REMARK   15  A    between atoms: C_33  and  OXT_35
REMARK                            x       y       z     vdW  Elec       q    Type
REMARK                         _______ _______ _______ _____ _____    ______ ____
ROOT
ATOM      1  O   UNK A   0       2.733   4.924  19.951  0.00  0.00    +0.000 OA
ENDROOT
BRANCH   1   2
ATOM      2  C   UNK A   0       2.425   6.145  19.406  0.00  0.00    +0.000 A 
ATOM      3  C   UNK A   0       2.525   6.469  18.055  0.00  0.00    +0.000 A 
ATOM      4  C   UNK A   0       2.322   7.775  17.616  0.00  0.00    +0.000 A 
ATOM      5  C   UNK A   0       1.900   8.769  18.502  0.00  0.00    +0.000 A 
ATOM      6  C   UNK A   0       1.769   8.444  19.858  0.00  0.00    +0.000 A 
ATOM      7  C   UNK A   0       2.030   7.137  20.306  0.00  0.00    +0.000 A 
BRANCH   5   8
ATOM      8  C   UNK A   0       1.625  10.155  17.971  0.00  0.00    +0.000 C 
BRANCH   8   9
ATOM      9  C   UNK A   0       0.814  11.065  18.883  0.00  0.00    +0.000 C 
ATOM     10  O   UNK A   0       1.344  12.034  19.429  0.00  0.00    +0.000 OA
ATOM     11  N   UNK A   0      -0.518  10.726  18.999  0.00  0.00    +0.000 N 
ATOM     12  H   UNK A   0      -0.693   9.733  18.937  0.00  0.00    +0.000 HD
BRANCH  11  13
ATOM     13  C   UNK A   0      -1.426  11.455  19.795  0.00  0.00    +0.000 A 
ATOM     14  C   UNK A   0      -1.134  11.803  21.118  0.00  0.00    +0.000 A 
ATOM     15  C   UNK A   0      -2.067  12.516  21.880  0.00  0.00    +0.000 A 
ATOM     16  C   UNK A   0      -1.779  12.898  23.303  0.00  0.00    +0.000 C 
ATOM     17  C   UNK A   0      -3.308  12.845  21.314  0.00  0.00    +0.000 A 
ATOM     18  C   UNK A   0      -3.608  12.501  19.991  0.00  0.00    +0.000 A 
ATOM     19  C   UNK A   0      -4.960  12.779  19.409  0.00  0.00    +0.000 C 
ATOM     20  C   UNK A   0      -2.640  11.836  19.224  0.00  0.00    +0.000 A 
ENDBRANCH  11  13
ENDBRANCH   8   9
ENDBRANCH   5   8
ENDBRANCH   1   2
BRANCH   1  21
ATOM     21  C   UNK A   0       3.546   4.021  19.181  0.00  0.00    +0.000 C 
ATOM     22  C   UNK A   0       2.839   3.769  17.830  0.00  0.00    +0.000 C 
ATOM     23  C   UNK A   0       1.758   2.734  18.128  0.00  0.00    +0.000 C 
ATOM     24  C   UNK A   0       2.293   1.895  19.275  0.00  0.00    +0.000 C 
ATOM     25  C   UNK A   0       3.566   2.582  19.753  0.00  0.00    +0.000 C 
BRANCH  21  27
ATOM     26  N   MET A   1       5.232   4.801  17.520  0.00  0.00    +0.000 N 
ATOM     27  C   UNK A   0       4.954   4.594  18.851  0.00  0.00    +0.000 C 
ATOM     28  O   UNK A   0       5.831   4.786  19.699  0.00  0.00    +0.000 OA
ATOM     29  H   MET A   1       4.551   4.500  16.830  0.00  0.00    +0.000 HD
BRANCH  26  30
ATOM     30  CA  MET A   1       6.486   5.430  17.077  0.00  0.00    +0.000 C 
BRANCH  30  31
ATOM     31  C   MET A   1       6.757   5.118  15.598  0.00  0.00    +0.000 C 
ATOM     32  O   MET A   1       7.790   5.409  14.999  0.00  0.00    +0.000 OA
BRANCH  31  33
ATOM     33  OXT MET A   1       5.755   4.421  15.009  0.00  0.00    +0.000 OA
ATOM     34  HXT MET A   1       5.086   5.020  14.594  0.00  0.00    +0.000 HD
ENDBRANCH  31  33
ENDBRANCH  30  31
BRANCH  30  35
ATOM     35  CB  MET A   1       6.507   6.949  17.329  0.00  0.00    +0.000 C 
BRANCH  35  36
ATOM     36  CG  MET A   1       7.761   7.453  18.035  0.00  0.00    +0.000 C 
BRANCH  36  38
ATOM     37  CE  MET A   1       9.063   9.603  19.110  0.00  0.00    +0.000 C 
ATOM     38  SD  MET A   1       8.092   9.205  17.652  0.00  0.00    +0.000 S 
ENDBRANCH  36  38
ENDBRANCH  35  36
ENDBRANCH  30  35
ENDBRANCH  26  30
ENDBRANCH  21  27
ENDBRANCH   1  21
TORSDOF 12
ENDMDL
MODEL 9
REMARK VINA RESULT:      -7.7      2.737      3.790
REMARK  Name = 
REMARK  15 active torsions:
REMARK  status: ('A' for Active; 'I' for Inactive)
REMARK    1  A    between atoms: CE_1  and  SD_2
REMARK    2  A    between atoms: SD_2  and  CG_3
REMARK    3  A    between atoms: CG_3  and  CB_4
REMARK    4  A    between atoms: CB_4  and  CA_5
REMARK    5  A    between atoms: CA_5  and  N_6
REMARK    6  A    between atoms: CA_5  and  C_33
REMARK    7  A    between atoms: C_7  and  C_9
REMARK    8  A    between atoms: C_9  and  O_10
REMARK    9  A    between atoms: O_10  and  C_11
REMARK   10  A    between atoms: C_14  and  C_15
REMARK   11  A    between atoms: C_15  and  C_16
REMARK   12  A    between atoms: N_18  and  C_19
REMARK   13  A    between atoms: C_21  and  C_22
REMARK   14  A    between atoms: C_24  and  C_25
REMARK   15  A    between atoms: C_33  and  OXT_35
REMARK                            x       y       z     vdW  Elec       q    Type
REMARK                         _______ _______ _______ _____ _____    ______ ____
ROOT
ATOM      1  O   UNK A   0       3.268   5.512  19.831  0.00  0.00    +0.000 OA
ENDROOT
BRANCH   1   2
ATOM      2  C   UNK A   0       2.442   6.607  19.859  0.00  0.00    +0.000 A 
ATOM      3  C   UNK A   0       2.418   7.618  18.901  0.00  0.00    +0.000 A 
ATOM      4  C   UNK A   0       1.644   8.761  19.086  0.00  0.00    +0.000 A 
ATOM      5  C   UNK A   0       0.783   8.870  20.181  0.00  0.00    +0.000 A 
ATOM      6  C   UNK A   0       0.780   7.844  21.134  0.00  0.00    +0.000 A 
ATOM      7  C   UNK A   0       1.606   6.718  20.972  0.00  0.00    +0.000 A 
BRANCH   5   8
ATOM      8  C   UNK A   0      -0.091  10.095  20.306  0.00  0.00    +0.000 C 
BRANCH   8   9
ATOM      9  C   UNK A   0       0.317  11.288  19.452  0.00  0.00    +0.000 C 
ATOM     10  O   UNK A   0      -0.064  11.378  18.284  0.00  0.00    +0.000 OA
ATOM     11  N   UNK A   0       1.088  12.228  20.105  0.00  0.00    +0.000 N 
ATOM     12  H   UNK A   0       1.699  11.837  20.807  0.00  0.00    +0.000 HD
BRANCH  11  13
ATOM     13  C   UNK A   0       1.555  13.402  19.478  0.00  0.00    +0.000 A 
ATOM     14  C   UNK A   0       2.859  13.507  18.982  0.00  0.00    +0.000 A 
ATOM     15  C   UNK A   0       3.288  14.694  18.378  0.00  0.00    +0.000 A 
ATOM     16  C   UNK A   0       4.684  14.832  17.842  0.00  0.00    +0.000 C 
ATOM     17  C   UNK A   0       2.410  15.785  18.306  0.00  0.00    +0.000 A 
ATOM     18  C   UNK A   0       1.103  15.689  18.799  0.00  0.00    +0.000 A 
ATOM     19  C   UNK A   0       0.188  16.875  18.798  0.00  0.00    +0.000 C 
ATOM     20  C   UNK A   0       0.671  14.474  19.351  0.00  0.00    +0.000 A 
ENDBRANCH  11  13
ENDBRANCH   8   9
ENDBRANCH   5   8
ENDBRANCH   1   2
BRANCH   1  21
ATOM     21  C   UNK A   0       3.341   4.745  18.616  0.00  0.00    +0.000 C 
ATOM     22  C   UNK A   0       1.979   4.853  17.895  0.00  0.00    +0.000 C 
ATOM     23  C   UNK A   0       1.066   3.860  18.608  0.00  0.00    +0.000 C 
ATOM     24  C   UNK A   0       1.973   2.750  19.109  0.00  0.00    +0.000 C 
ATOM     25  C   UNK A   0       3.401   3.218  18.863  0.00  0.00    +0.000 C 
BRANCH  21  27
ATOM     26  N   MET A   1       4.934   4.353  16.740  0.00  0.00    +0.000 N 
ATOM     27  C   UNK A   0       4.417   5.272  17.625  0.00  0.00    +0.000 C 
ATOM     28  O   UNK A   0       4.871   6.420  17.652  0.00  0.00    +0.000 OA
ATOM     29  H   MET A   1       4.653   3.382  16.832  0.00  0.00    +0.000 HD
BRANCH  26  30
ATOM     30  CA  MET A   1       5.883   4.739  15.686  0.00  0.00    +0.000 C 
BRANCH  30  31
ATOM     31  C   MET A   1       7.242   5.122  16.290  0.00  0.00    +0.000 C 
ATOM     32  O   MET A   1       8.018   4.334  16.826  0.00  0.00    +0.000 OA
BRANCH  31  33
ATOM     33  OXT MET A   1       7.547   6.433  16.124  0.00  0.00    +0.000 OA
ATOM     34  HXT MET A   1       8.128   6.577  15.337  0.00  0.00    +0.000 HD
ENDBRANCH  31  33
ENDBRANCH  30  31
BRANCH  30  35
ATOM     35  CB  MET A   1       6.051   3.648  14.612  0.00  0.00    +0.000 C 
BRANCH  35  36
ATOM     36  CG  MET A   1       5.996   4.162  13.176  0.00  0.00    +0.000 C 
BRANCH  36  38
ATOM     37  CE  MET A   1       4.252   3.209  11.300  0.00  0.00    +0.000 C 
ATOM     38  SD  MET A   1       5.865   2.796  11.976  0.00  0.00    +0.000 S 
ENDBRANCH  36  38
ENDBRANCH  35  36
ENDBRANCH  30  35
ENDBRANCH  26  30
ENDBRANCH  21  27
ENDBRANCH   1  21
TORSDOF 12
ENDMDL
