MODEL 1
REMARK VINA RESULT:      -9.1      0.000      0.000
REMARK  Name = 
REMARK  4 active torsions:
REMARK  status: ('A' for Active; 'I' for Inactive)
REMARK    1  A    between atoms: C_1  and  N_2
REMARK    2  A    between atoms: N_2  and  C_3
REMARK    3  A    between atoms: N_2  and  C_4
REMARK    4  A    between atoms: N_23  and  C_24
REMARK                            x       y       z     vdW  Elec       q    Type
REMARK                         _______ _______ _______ _____ _____    ______ ____
ROOT
ATOM      1  C   UNL     1      -1.975  15.694  23.259  0.00  0.00    +0.000 C 
ATOM      2  C   UNL     1      -0.453  15.479  22.990  0.00  0.00    +0.000 C 
ATOM      3  C   UNL     1      -0.119  15.077  21.550  0.00  0.00    +0.000 C 
ATOM      4  N   UNL     1      -0.949  13.929  21.195  0.00  0.00    +0.000 N 
ATOM      5  C   UNL     1      -0.401  12.915  20.472  0.00  0.00    +0.000 A 
ATOM      6  C   UNL     1      -0.908  11.620  20.590  0.00  0.00    +0.000 A 
ATOM      7  C   UNL     1      -0.241  10.575  19.985  0.00  0.00    +0.000 A 
ATOM      8  C   UNL     1       0.911  10.804  19.258  0.00  0.00    +0.000 A 
ATOM      9  N   UNL     1       1.640   9.768  18.688  0.00  0.00    +0.000 N 
ATOM     10  C   UNL     1       1.817   8.484  19.190  0.00  0.00    +0.000 A 
ATOM     11  N   UNL     1       1.157   8.140  20.313  0.00  0.00    +0.000 NA
ATOM     12  C   UNL     1       1.288   6.910  20.833  0.00  0.00    +0.000 A 
ATOM     13  C   UNL     1       2.166   6.016  20.234  0.00  0.00    +0.000 A 
ATOM     14  C   UNL     1       2.589   4.696  20.485  0.00  0.00    +0.000 A 
ATOM     15  C   UNL     1       2.254   3.742  21.459  0.00  0.00    +0.000 A 
ATOM     16  C   UNL     1       2.902   2.522  21.377  0.00  0.00    +0.000 A 
ATOM     17  N   UNL     1       3.826   2.211  20.447  0.00  0.00    +0.000 NA
ATOM     18  C   UNL     1       4.162   3.127  19.510  0.00  0.00    +0.000 A 
ATOM     19  C   UNL     1       3.545   4.374  19.516  0.00  0.00    +0.000 A 
ATOM     20  N   UNL     1       3.683   5.483  18.692  0.00  0.00    +0.000 N 
ATOM     21  C   UNL     1       2.815   6.474  19.100  0.00  0.00    +0.000 A 
ATOM     22  N   UNL     1       2.655   7.678  18.521  0.00  0.00    +0.000 NA
ATOM     23  N   UNL     1       1.352  12.071  19.099  0.00  0.00    +0.000 NA
ATOM     24  N   UNL     1       0.699  13.110  19.714  0.00  0.00    +0.000 NA
ATOM     25  C   UNL     1      -2.389  14.092  21.307  0.00  0.00    +0.000 C 
ATOM     26  C   UNL     1      -2.699  14.409  22.764  0.00  0.00    +0.000 C 
ATOM     27  H   UNL     1       2.315  10.042  17.994  0.00  0.00    +0.000 HD
ENDROOT
BRANCH  20  28
ATOM     28  C   UNL     1       4.617   5.591  17.566  0.00  0.00    +0.000 C 
ATOM     29  C   UNL     1       4.448   4.448  16.551  0.00  0.00    +0.000 C 
ATOM     30  C   UNL     1       5.287   4.653  15.297  0.00  0.00    +0.000 C 
ATOM     31  S   UNL     1       7.060   4.749  15.671  0.00  0.00    +0.000 S 
ATOM     32  C   UNL     1       7.022   6.076  16.906  0.00  0.00    +0.000 C 
ATOM     33  C   UNL     1       6.065   5.762  18.046  0.00  0.00    +0.000 C 
ENDBRANCH  20  28
BRANCH   1  35
ATOM     34  C   UNL     1      -3.986  17.160  23.012  0.00  0.00    +0.000 C 
ATOM     35  N   UNL     1      -2.558  16.962  22.722  0.00  0.00    +0.000 NA
ATOM     36  C   UNL     1      -1.827  18.187  23.079  0.00  0.00    +0.000 C 
ENDBRANCH   1  35
TORSDOF 2
ENDMDL
MODEL 2
REMARK VINA RESULT:      -8.4      1.585      1.963
REMARK  Name = 
REMARK  4 active torsions:
REMARK  status: ('A' for Active; 'I' for Inactive)
REMARK    1  A    between atoms: C_1  and  N_2
REMARK    2  A    between atoms: N_2  and  C_3
REMARK    3  A    between atoms: N_2  and  C_4
REMARK    4  A    between atoms: N_23  and  C_24
REMARK                            x       y       z     vdW  Elec       q    Type
REMARK                         _______ _______ _______ _____ _____    ______ ____
ROOT
ATOM      1  C   UNL     1      -0.451  16.182  20.920  0.00  0.00    +0.000 C 
ATOM      2  C   UNL     1       1.039  15.723  20.852  0.00  0.00    +0.000 C 
ATOM      3  C   UNL     1       1.424  15.027  19.543  0.00  0.00    +0.000 C 
ATOM      4  N   UNL     1       0.464  13.953  19.300  0.00  0.00    +0.000 N 
ATOM      5  C   UNL     1       0.911  12.762  18.819  0.00  0.00    +0.000 A 
ATOM      6  C   UNL     1       0.211  11.588  19.099  0.00  0.00    +0.000 A 
ATOM      7  C   UNL     1       0.762  10.372  18.751  0.00  0.00    +0.000 A 
ATOM      8  C   UNL     1       1.989  10.312  18.120  0.00  0.00    +0.000 A 
ATOM      9  N   UNL     1       2.600   9.104  17.811  0.00  0.00    +0.000 N 
ATOM     10  C   UNL     1       2.544   7.919  18.537  0.00  0.00    +0.000 A 
ATOM     11  N   UNL     1       1.754   7.874  19.627  0.00  0.00    +0.000 NA
ATOM     12  C   UNL     1       1.660   6.753  20.357  0.00  0.00    +0.000 A 
ATOM     13  C   UNL     1       2.441   5.657  20.011  0.00  0.00    +0.000 A 
ATOM     14  C   UNL     1       2.643   4.360  20.523  0.00  0.00    +0.000 A 
ATOM     15  C   UNL     1       2.094   3.650  21.603  0.00  0.00    +0.000 A 
ATOM     16  C   UNL     1       2.558   2.362  21.795  0.00  0.00    +0.000 A 
ATOM     17  N   UNL     1       3.498   1.768  21.032  0.00  0.00    +0.000 NA
ATOM     18  C   UNL     1       4.039   2.447  19.994  0.00  0.00    +0.000 A 
ATOM     19  C   UNL     1       3.614   3.746  19.727  0.00  0.00    +0.000 A 
ATOM     20  N   UNL     1       3.980   4.659  18.747  0.00  0.00    +0.000 N 
ATOM     21  C   UNL     1       3.238   5.813  18.891  0.00  0.00    +0.000 A 
ATOM     22  N   UNL     1       3.305   6.902  18.104  0.00  0.00    +0.000 NA
ATOM     23  N   UNL     1       2.624  11.460  17.797  0.00  0.00    +0.000 NA
ATOM     24  N   UNL     1       2.085  12.670  18.158  0.00  0.00    +0.000 NA
ATOM     25  C   UNL     1      -0.941  14.322  19.232  0.00  0.00    +0.000 C 
ATOM     26  C   UNL     1      -1.315  14.936  20.576  0.00  0.00    +0.000 C 
ATOM     27  H   UNL     1       3.361   9.156  17.155  0.00  0.00    +0.000 HD
ENDROOT
BRANCH  20  28
ATOM     28  C   UNL     1       5.006   4.438  17.722  0.00  0.00    +0.000 C 
ATOM     29  C   UNL     1       6.302   5.213  18.011  0.00  0.00    +0.000 C 
ATOM     30  C   UNL     1       7.427   4.847  17.052  0.00  0.00    +0.000 C 
ATOM     31  S   UNL     1       6.992   5.199  15.326  0.00  0.00    +0.000 S 
ATOM     32  C   UNL     1       5.439   4.269  15.224  0.00  0.00    +0.000 C 
ATOM     33  C   UNL     1       4.458   4.684  16.310  0.00  0.00    +0.000 C 
ENDBRANCH  20  28
BRANCH   1  35
ATOM     34  C   UNL     1      -2.232  17.699  20.038  0.00  0.00    +0.000 C 
ATOM     35  N   UNL     1      -0.795  17.398  20.120  0.00  0.00    +0.000 NA
ATOM     36  C   UNL     1      -0.074  18.621  20.500  0.00  0.00    +0.000 C 
ENDBRANCH   1  35
TORSDOF 2
ENDMDL
MODEL 3
REMARK VINA RESULT:      -8.2      0.989      1.179
REMARK  Name = 
REMARK  4 active torsions:
REMARK  status: ('A' for Active; 'I' for Inactive)
REMARK    1  A    between atoms: C_1  and  N_2
REMARK    2  A    between atoms: N_2  and  C_3
REMARK    3  A    between atoms: N_2  and  C_4
REMARK    4  A    between atoms: N_23  and  C_24
REMARK                            x       y       z     vdW  Elec       q    Type
REMARK                         _______ _______ _______ _____ _____    ______ ____
ROOT
ATOM      1  C   UNL     1      -0.809  16.589  22.472  0.00  0.00    +0.000 C 
ATOM      2  C   UNL     1       0.672  16.200  22.174  0.00  0.00    +0.000 C 
ATOM      3  C   UNL     1       0.911  15.672  20.755  0.00  0.00    +0.000 C 
ATOM      4  N   UNL     1      -0.044  14.596  20.505  0.00  0.00    +0.000 N 
ATOM      5  C   UNL     1       0.371  13.486  19.837  0.00  0.00    +0.000 A 
ATOM      6  C   UNL     1      -0.260  12.261  20.059  0.00  0.00    +0.000 A 
ATOM      7  C   UNL     1       0.275  11.114  19.508  0.00  0.00    +0.000 A 
ATOM      8  C   UNL     1       1.416  11.175  18.733  0.00  0.00    +0.000 A 
ATOM      9  N   UNL     1       2.015  10.034  18.214  0.00  0.00    +0.000 N 
ATOM     10  C   UNL     1       2.079   8.774  18.797  0.00  0.00    +0.000 A 
ATOM     11  N   UNL     1       1.429   8.575  19.961  0.00  0.00    +0.000 NA
ATOM     12  C   UNL     1       1.454   7.375  20.561  0.00  0.00    +0.000 A 
ATOM     13  C   UNL     1       2.214   6.357  19.999  0.00  0.00    +0.000 A 
ATOM     14  C   UNL     1       2.511   5.020  20.326  0.00  0.00    +0.000 A 
ATOM     15  C   UNL     1       2.117   4.171  21.373  0.00  0.00    +0.000 A 
ATOM     16  C   UNL     1       2.634   2.888  21.357  0.00  0.00    +0.000 A 
ATOM     17  N   UNL     1       3.487   2.422  20.423  0.00  0.00    +0.000 NA
ATOM     18  C   UNL     1       3.879   3.235  19.415  0.00  0.00    +0.000 A 
ATOM     19  C   UNL     1       3.392   4.538  19.354  0.00  0.00    +0.000 A 
ATOM     20  N   UNL     1       3.611   5.570  18.452  0.00  0.00    +0.000 N 
ATOM     21  C   UNL     1       2.864   6.670  18.817  0.00  0.00    +0.000 A 
ATOM     22  N   UNL     1       2.806   7.843  18.161  0.00  0.00    +0.000 NA
ATOM     23  N   UNL     1       1.978  12.376  18.473  0.00  0.00    +0.000 NA
ATOM     24  N   UNL     1       1.456  13.516  19.035  0.00  0.00    +0.000 NA
ATOM     25  C   UNL     1      -1.456  14.915  20.648  0.00  0.00    +0.000 C 
ATOM     26  C   UNL     1      -1.678  15.357  22.089  0.00  0.00    +0.000 C 
ATOM     27  H   UNL     1       2.688  10.190  17.482  0.00  0.00    +0.000 HD
ENDROOT
BRANCH  20  28
ATOM     28  C   UNL     1       4.509   5.506  17.293  0.00  0.00    +0.000 C 
ATOM     29  C   UNL     1       4.392   4.175  16.532  0.00  0.00    +0.000 C 
ATOM     30  C   UNL     1       5.186   4.176  15.232  0.00  0.00    +0.000 C 
ATOM     31  S   UNL     1       6.957   4.451  15.515  0.00  0.00    +0.000 S 
ATOM     32  C   UNL     1       6.861   5.993  16.464  0.00  0.00    +0.000 C 
ATOM     33  C   UNL     1       5.953   5.856  17.677  0.00  0.00    +0.000 C 
ENDBRANCH  20  28
BRANCH   1  35
ATOM     34  C   UNL     1      -0.480  18.352  20.729  0.00  0.00    +0.000 C 
ATOM     35  N   UNL     1      -1.280  17.873  21.866  0.00  0.00    +0.000 NA
ATOM     36  C   UNL     1      -2.702  17.906  21.494  0.00  0.00    +0.000 C 
ENDBRANCH   1  35
TORSDOF 2
ENDMDL
MODEL 4
REMARK VINA RESULT:      -7.3      3.596     11.530
REMARK  Name = 
REMARK  4 active torsions:
REMARK  status: ('A' for Active; 'I' for Inactive)
REMARK    1  A    between atoms: C_1  and  N_2
REMARK    2  A    between atoms: N_2  and  C_3
REMARK    3  A    between atoms: N_2  and  C_4
REMARK    4  A    between atoms: N_23  and  C_24
REMARK                            x       y       z     vdW  Elec       q    Type
REMARK                         _______ _______ _______ _____ _____    ______ ____
ROOT
ATOM      1  C   UNL     1       4.834   4.014  18.242  0.00  0.00    +0.000 C 
ATOM      2  C   UNL     1       4.885   4.849  19.559  0.00  0.00    +0.000 C 
ATOM      3  C   UNL     1       3.514   5.315  20.062  0.00  0.00    +0.000 C 
ATOM      4  N   UNL     1       2.832   5.990  18.960  0.00  0.00    +0.000 N 
ATOM      5  C   UNL     1       2.119   7.120  19.217  0.00  0.00    +0.000 A 
ATOM      6  C   UNL     1       1.947   8.078  18.217  0.00  0.00    +0.000 A 
ATOM      7  C   UNL     1       1.371   9.291  18.535  0.00  0.00    +0.000 A 
ATOM      8  C   UNL     1       0.955   9.554  19.826  0.00  0.00    +0.000 A 
ATOM      9  N   UNL     1       0.428  10.785  20.193  0.00  0.00    +0.000 N 
ATOM     10  C   UNL     1       0.779  12.036  19.698  0.00  0.00    +0.000 A 
ATOM     11  N   UNL     1       1.671  12.097  18.690  0.00  0.00    +0.000 NA
ATOM     12  C   UNL     1       2.038  13.279  18.172  0.00  0.00    +0.000 A 
ATOM     13  C   UNL     1       1.534  14.445  18.735  0.00  0.00    +0.000 A 
ATOM     14  C   UNL     1       1.693  15.826  18.507  0.00  0.00    +0.000 A 
ATOM     15  C   UNL     1       2.430  16.574  17.575  0.00  0.00    +0.000 A 
ATOM     16  C   UNL     1       2.332  17.950  17.670  0.00  0.00    +0.000 A 
ATOM     17  N   UNL     1       1.597  18.600  18.595  0.00  0.00    +0.000 NA
ATOM     18  C   UNL     1       0.890  17.889  19.502  0.00  0.00    +0.000 A 
ATOM     19  C   UNL     1       0.926  16.497  19.465  0.00  0.00    +0.000 A 
ATOM     20  N   UNL     1       0.310  15.530  20.248  0.00  0.00    +0.000 N 
ATOM     21  C   UNL     1       0.645  14.276  19.783  0.00  0.00    +0.000 A 
ATOM     22  N   UNL     1       0.211  13.104  20.280  0.00  0.00    +0.000 NA
ATOM     23  N   UNL     1       1.070   8.592  20.767  0.00  0.00    +0.000 NA
ATOM     24  N   UNL     1       1.658   7.391  20.457  0.00  0.00    +0.000 NA
ATOM     25  C   UNL     1       2.642   5.232  17.734  0.00  0.00    +0.000 C 
ATOM     26  C   UNL     1       4.023   4.853  17.215  0.00  0.00    +0.000 C 
ATOM     27  H   UNL     1      -0.056  10.806  21.075  0.00  0.00    +0.000 HD
ENDROOT
BRANCH  20  28
ATOM     28  C   UNL     1      -0.555  15.800  21.402  0.00  0.00    +0.000 C 
ATOM     29  C   UNL     1       0.014  15.224  22.709  0.00  0.00    +0.000 C 
ATOM     30  C   UNL     1      -0.787  15.655  23.932  0.00  0.00    +0.000 C 
ATOM     31  S   UNL     1      -2.515  15.110  23.841  0.00  0.00    +0.000 S 
ATOM     32  C   UNL     1      -2.957  15.819  22.232  0.00  0.00    +0.000 C 
ATOM     33  C   UNL     1      -2.004  15.370  21.134  0.00  0.00    +0.000 C 
ENDBRANCH  20  28
BRANCH   1  35
ATOM     34  C   UNL     1       4.357   2.084  19.759  0.00  0.00    +0.000 C 
ATOM     35  N   UNL     1       4.356   2.603  18.384  0.00  0.00    +0.000 NA
ATOM     36  C   UNL     1       3.051   2.321  17.770  0.00  0.00    +0.000 C 
ENDBRANCH   1  35
TORSDOF 2
ENDMDL
MODEL 5
REMARK VINA RESULT:      -7.3      0.952      1.201
REMARK  Name = 
REMARK  4 active torsions:
REMARK  status: ('A' for Active; 'I' for Inactive)
REMARK    1  A    between atoms: C_1  and  N_2
REMARK    2  A    between atoms: N_2  and  C_3
REMARK    3  A    between atoms: N_2  and  C_4
REMARK    4  A    between atoms: N_23  and  C_24
REMARK                            x       y       z     vdW  Elec       q    Type
REMARK                         _______ _______ _______ _____ _____    ______ ____
ROOT
ATOM      1  C   UNL     1      -2.909  15.180  23.180  0.00  0.00    +0.000 C 
ATOM      2  C   UNL     1      -1.359  14.997  23.197  0.00  0.00    +0.000 C 
ATOM      3  C   UNL     1      -0.747  14.682  21.829  0.00  0.00    +0.000 C 
ATOM      4  N   UNL     1      -1.469  13.548  21.258  0.00  0.00    +0.000 N 
ATOM      5  C   UNL     1      -0.771  12.583  20.599  0.00  0.00    +0.000 A 
ATOM      6  C   UNL     1      -1.263  11.279  20.547  0.00  0.00    +0.000 A 
ATOM      7  C   UNL     1      -0.470  10.277  20.026  0.00  0.00    +0.000 A 
ATOM      8  C   UNL     1       0.794  10.561  19.547  0.00  0.00    +0.000 A 
ATOM      9  N   UNL     1       1.641   9.567  19.072  0.00  0.00    +0.000 N 
ATOM     10  C   UNL     1       1.746   8.258  19.527  0.00  0.00    +0.000 A 
ATOM     11  N   UNL     1       0.892   7.843  20.482  0.00  0.00    +0.000 NA
ATOM     12  C   UNL     1       0.948   6.587  20.951  0.00  0.00    +0.000 A 
ATOM     13  C   UNL     1       1.943   5.738  20.483  0.00  0.00    +0.000 A 
ATOM     14  C   UNL     1       2.340   4.411  20.738  0.00  0.00    +0.000 A 
ATOM     15  C   UNL     1       1.846   3.398  21.576  0.00  0.00    +0.000 A 
ATOM     16  C   UNL     1       2.523   2.192  21.554  0.00  0.00    +0.000 A 
ATOM     17  N   UNL     1       3.615   1.946  20.803  0.00  0.00    +0.000 NA
ATOM     18  C   UNL     1       4.103   2.917  19.999  0.00  0.00    +0.000 A 
ATOM     19  C   UNL     1       3.469   4.156  19.955  0.00  0.00    +0.000 A 
ATOM     20  N   UNL     1       3.738   5.312  19.234  0.00  0.00    +0.000 N 
ATOM     21  C   UNL     1       2.787   6.268  19.522  0.00  0.00    +0.000 A 
ATOM     22  N   UNL     1       2.715   7.501  18.989  0.00  0.00    +0.000 NA
ATOM     23  N   UNL     1       1.230  11.839  19.544  0.00  0.00    +0.000 NA
ATOM     24  N   UNL     1       0.449  12.834  20.078  0.00  0.00    +0.000 NA
ATOM     25  C   UNL     1      -2.908  13.689  21.100  0.00  0.00    +0.000 C 
ATOM     26  C   UNL     1      -3.497  13.918  22.486  0.00  0.00    +0.000 C 
ATOM     27  H   UNL     1       2.430   9.888  18.536  0.00  0.00    +0.000 HD
ENDROOT
BRANCH  20  28
ATOM     28  C   UNL     1       4.868   5.495  18.316  0.00  0.00    +0.000 C 
ATOM     29  C   UNL     1       6.202   5.683  19.056  0.00  0.00    +0.000 C 
ATOM     30  C   UNL     1       7.397   5.692  18.111  0.00  0.00    +0.000 C 
ATOM     31  S   UNL     1       7.292   7.034  16.894  0.00  0.00    +0.000 S 
ATOM     32  C   UNL     1       5.654   6.671  16.205  0.00  0.00    +0.000 C 
ATOM     33  C   UNL     1       4.587   6.599  17.287  0.00  0.00    +0.000 C 
ENDBRANCH  20  28
BRANCH   1  35
ATOM     34  C   UNL     1      -4.861  16.664  22.692  0.00  0.00    +0.000 C 
ATOM     35  N   UNL     1      -3.406  16.471  22.611  0.00  0.00    +0.000 NA
ATOM     36  C   UNL     1      -2.737  17.677  23.120  0.00  0.00    +0.000 C 
ENDBRANCH   1  35
TORSDOF 2
ENDMDL
MODEL 6
REMARK VINA RESULT:      -7.2      3.774     11.647
REMARK  Name = 
REMARK  4 active torsions:
REMARK  status: ('A' for Active; 'I' for Inactive)
REMARK    1  A    between atoms: C_1  and  N_2
REMARK    2  A    between atoms: N_2  and  C_3
REMARK    3  A    between atoms: N_2  and  C_4
REMARK    4  A    between atoms: N_23  and  C_24
REMARK                            x       y       z     vdW  Elec       q    Type
REMARK                         _______ _______ _______ _____ _____    ______ ____
ROOT
ATOM      1  C   UNL     1       4.805   4.002  18.119  0.00  0.00    +0.000 C 
ATOM      2  C   UNL     1       4.947   4.838  19.429  0.00  0.00    +0.000 C 
ATOM      3  C   UNL     1       3.614   5.302  20.026  0.00  0.00    +0.000 C 
ATOM      4  N   UNL     1       2.856   5.976  18.975  0.00  0.00    +0.000 N 
ATOM      5  C   UNL     1       2.162   7.106  19.281  0.00  0.00    +0.000 A 
ATOM      6  C   UNL     1       1.919   8.064  18.295  0.00  0.00    +0.000 A 
ATOM      7  C   UNL     1       1.366   9.276  18.652  0.00  0.00    +0.000 A 
ATOM      8  C   UNL     1       1.042   9.539  19.969  0.00  0.00    +0.000 A 
ATOM      9  N   UNL     1       0.541  10.770  20.372  0.00  0.00    +0.000 N 
ATOM     10  C   UNL     1       0.855  12.021  19.853  0.00  0.00    +0.000 A 
ATOM     11  N   UNL     1       1.674  12.083  18.785  0.00  0.00    +0.000 NA
ATOM     12  C   UNL     1       2.003  13.265  18.243  0.00  0.00    +0.000 A 
ATOM     13  C   UNL     1       1.539  14.431  18.839  0.00  0.00    +0.000 A 
ATOM     14  C   UNL     1       1.680  15.812  18.601  0.00  0.00    +0.000 A 
ATOM     15  C   UNL     1       2.350  16.560  17.619  0.00  0.00    +0.000 A 
ATOM     16  C   UNL     1       2.257  17.936  17.720  0.00  0.00    +0.000 A 
ATOM     17  N   UNL     1       1.589  18.585  18.694  0.00  0.00    +0.000 NA
ATOM     18  C   UNL     1       0.947  17.874  19.649  0.00  0.00    +0.000 A 
ATOM     19  C   UNL     1       0.982  16.482  19.609  0.00  0.00    +0.000 A 
ATOM     20  N   UNL     1       0.423  15.515  20.434  0.00  0.00    +0.000 N 
ATOM     21  C   UNL     1       0.725  14.261  19.947  0.00  0.00    +0.000 A 
ATOM     22  N   UNL     1       0.329  13.089  20.473  0.00  0.00    +0.000 NA
ATOM     23  N   UNL     1       1.223   8.578  20.900  0.00  0.00    +0.000 NA
ATOM     24  N   UNL     1       1.789   7.377  20.550  0.00  0.00    +0.000 NA
ATOM     25  C   UNL     1       2.581   5.218  17.766  0.00  0.00    +0.000 C 
ATOM     26  C   UNL     1       3.923   4.840  17.151  0.00  0.00    +0.000 C 
ATOM     27  H   UNL     1       0.120  10.791  21.286  0.00  0.00    +0.000 HD
ENDROOT
BRANCH  20  28
ATOM     28  C   UNL     1      -0.360  15.784  21.645  0.00  0.00    +0.000 C 
ATOM     29  C   UNL     1      -1.672  16.527  21.344  0.00  0.00    +0.000 C 
ATOM     30  C   UNL     1      -2.568  16.648  22.570  0.00  0.00    +0.000 C 
ATOM     31  S   UNL     1      -1.762  17.558  23.916  0.00  0.00    +0.000 S 
ATOM     32  C   UNL     1      -0.242  16.578  24.056  0.00  0.00    +0.000 C 
ATOM     33  C   UNL     1       0.488  16.471  22.725  0.00  0.00    +0.000 C 
ENDBRANCH  20  28
BRANCH   1  35
ATOM     34  C   UNL     1       4.347   2.103  19.681  0.00  0.00    +0.000 C 
ATOM     35  N   UNL     1       4.339   2.591  18.294  0.00  0.00    +0.000 NA
ATOM     36  C   UNL     1       3.034   2.283  17.691  0.00  0.00    +0.000 C 
ENDBRANCH   1  35
TORSDOF 2
ENDMDL
MODEL 7
REMARK VINA RESULT:      -7.1      3.123     11.070
REMARK  Name = 
REMARK  4 active torsions:
REMARK  status: ('A' for Active; 'I' for Inactive)
REMARK    1  A    between atoms: C_1  and  N_2
REMARK    2  A    between atoms: N_2  and  C_3
REMARK    3  A    between atoms: N_2  and  C_4
REMARK    4  A    between atoms: N_23  and  C_24
REMARK                            x       y       z     vdW  Elec       q    Type
REMARK                         _______ _______ _______ _____ _____    ______ ____
ROOT
ATOM      1  C   UNL     1       1.653   2.742  19.420  0.00  0.00    +0.000 C 
ATOM      2  C   UNL     1       1.152   3.798  18.386  0.00  0.00    +0.000 C 
ATOM      3  C   UNL     1       1.985   5.083  18.346  0.00  0.00    +0.000 C 
ATOM      4  N   UNL     1       2.094   5.596  19.709  0.00  0.00    +0.000 N 
ATOM      5  C   UNL     1       1.995   6.937  19.920  0.00  0.00    +0.000 A 
ATOM      6  C   UNL     1       1.530   7.418  21.145  0.00  0.00    +0.000 A 
ATOM      7  C   UNL     1       1.274   8.766  21.289  0.00  0.00    +0.000 A 
ATOM      8  C   UNL     1       1.488   9.637  20.239  0.00  0.00    +0.000 A 
ATOM      9  N   UNL     1       1.184  10.989  20.331  0.00  0.00    +0.000 N 
ATOM     10  C   UNL     1       0.139  11.574  21.037  0.00  0.00    +0.000 A 
ATOM     11  N   UNL     1      -0.642  10.781  21.797  0.00  0.00    +0.000 NA
ATOM     12  C   UNL     1      -1.658  11.298  22.503  0.00  0.00    +0.000 A 
ATOM     13  C   UNL     1      -1.936  12.654  22.389  0.00  0.00    +0.000 A 
ATOM     14  C   UNL     1      -2.897  13.536  22.922  0.00  0.00    +0.000 A 
ATOM     15  C   UNL     1      -3.963  13.375  23.822  0.00  0.00    +0.000 A 
ATOM     16  C   UNL     1      -4.706  14.506  24.109  0.00  0.00    +0.000 A 
ATOM     17  N   UNL     1      -4.478  15.722  23.574  0.00  0.00    +0.000 NA
ATOM     18  C   UNL     1      -3.459  15.885  22.700  0.00  0.00    +0.000 A 
ATOM     19  C   UNL     1      -2.657  14.797  22.370  0.00  0.00    +0.000 A 
ATOM     20  N   UNL     1      -1.561  14.673  21.526  0.00  0.00    +0.000 N 
ATOM     21  C   UNL     1      -1.092  13.377  21.564  0.00  0.00    +0.000 A 
ATOM     22  N   UNL     1      -0.028  12.898  20.894  0.00  0.00    +0.000 NA
ATOM     23  N   UNL     1       2.000   9.166  19.081  0.00  0.00    +0.000 NA
ATOM     24  N   UNL     1       2.239   7.822  18.930  0.00  0.00    +0.000 NA
ATOM     25  C   UNL     1       2.663   4.708  20.709  0.00  0.00    +0.000 C 
ATOM     26  C   UNL     1       1.768   3.477  20.785  0.00  0.00    +0.000 C 
ATOM     27  H   UNL     1       1.585  11.575  19.617  0.00  0.00    +0.000 HD
ENDROOT
BRANCH  20  28
ATOM     28  C   UNL     1      -0.995  15.752  20.708  0.00  0.00    +0.000 C 
ATOM     29  C   UNL     1      -0.730  15.313  19.258  0.00  0.00    +0.000 C 
ATOM     30  C   UNL     1      -0.314  16.474  18.364  0.00  0.00    +0.000 C 
ATOM     31  S   UNL     1       1.210  17.268  18.946  0.00  0.00    +0.000 S 
ATOM     32  C   UNL     1       0.713  17.632  20.651  0.00  0.00    +0.000 C 
ATOM     33  C   UNL     1       0.231  16.386  21.379  0.00  0.00    +0.000 C 
ENDBRANCH  20  28
BRANCH   1  35
ATOM     34  C   UNL     1       3.275   2.118  17.622  0.00  0.00    +0.000 C 
ATOM     35  N   UNL     1       2.884   1.985  19.033  0.00  0.00    +0.000 NA
ATOM     36  C   UNL     1       4.061   2.233  19.877  0.00  0.00    +0.000 C 
ENDBRANCH   1  35
TORSDOF 2
ENDMDL
MODEL 8
REMARK VINA RESULT:      -6.9      3.261     11.286
REMARK  Name = 
REMARK  4 active torsions:
REMARK  status: ('A' for Active; 'I' for Inactive)
REMARK    1  A    between atoms: C_1  and  N_2
REMARK    2  A    between atoms: N_2  and  C_3
REMARK    3  A    between atoms: N_2  and  C_4
REMARK    4  A    between atoms: N_23  and  C_24
REMARK                            x       y       z     vdW  Elec       q    Type
REMARK                         _______ _______ _______ _____ _____    ______ ____
ROOT
ATOM      1  C   UNL     1       2.010   3.470  19.212  0.00  0.00    +0.000 C 
ATOM      2  C   UNL     1       1.451   4.475  18.157  0.00  0.00    +0.000 C 
ATOM      3  C   UNL     1       2.181   5.821  18.123  0.00  0.00    +0.000 C 
ATOM      4  N   UNL     1       2.219   6.352  19.483  0.00  0.00    +0.000 N 
ATOM      5  C   UNL     1       2.011   7.683  19.679  0.00  0.00    +0.000 A 
ATOM      6  C   UNL     1       1.482   8.135  20.888  0.00  0.00    +0.000 A 
ATOM      7  C   UNL     1       1.118   9.460  21.014  0.00  0.00    +0.000 A 
ATOM      8  C   UNL     1       1.287  10.337  19.960  0.00  0.00    +0.000 A 
ATOM      9  N   UNL     1       0.875  11.661  20.032  0.00  0.00    +0.000 N 
ATOM     10  C   UNL     1      -0.227  12.168  20.710  0.00  0.00    +0.000 A 
ATOM     11  N   UNL     1      -0.961  11.322  21.460  0.00  0.00    +0.000 NA
ATOM     12  C   UNL     1      -2.030  11.763  22.140  0.00  0.00    +0.000 A 
ATOM     13  C   UNL     1      -2.411  13.092  22.006  0.00  0.00    +0.000 A 
ATOM     14  C   UNL     1      -3.450  13.900  22.510  0.00  0.00    +0.000 A 
ATOM     15  C   UNL     1      -4.520  13.663  23.388  0.00  0.00    +0.000 A 
ATOM     16  C   UNL     1      -5.355  14.734  23.647  0.00  0.00    +0.000 A 
ATOM     17  N   UNL     1      -5.212  15.960  23.106  0.00  0.00    +0.000 NA
ATOM     18  C   UNL     1      -4.190  16.196  22.253  0.00  0.00    +0.000 A 
ATOM     19  C   UNL     1      -3.297  15.171  21.950  0.00  0.00    +0.000 A 
ATOM     20  N   UNL     1      -2.176  15.127  21.132  0.00  0.00    +0.000 N 
ATOM     21  C   UNL     1      -1.608  13.872  21.193  0.00  0.00    +0.000 A 
ATOM     22  N   UNL     1      -0.495  13.474  20.551  0.00  0.00    +0.000 NA
ATOM     23  N   UNL     1       1.860   9.898  18.819  0.00  0.00    +0.000 NA
ATOM     24  N   UNL     1       2.207   8.576  18.686  0.00  0.00    +0.000 NA
ATOM     25  C   UNL     1       2.834   5.519  20.503  0.00  0.00    +0.000 C 
ATOM     26  C   UNL     1       2.037   4.222  20.572  0.00  0.00    +0.000 C 
ATOM     27  H   UNL     1       1.245  12.272  19.322  0.00  0.00    +0.000 HD
ENDROOT
BRANCH  20  28
ATOM     28  C   UNL     1      -1.678  16.241  20.316  0.00  0.00    +0.000 C 
ATOM     29  C   UNL     1      -0.849  15.762  19.113  0.00  0.00    +0.000 C 
ATOM     30  C   UNL     1      -0.483  16.900  18.168  0.00  0.00    +0.000 C 
ATOM     31  S   UNL     1       0.501  18.181  18.992  0.00  0.00    +0.000 S 
ATOM     32  C   UNL     1      -0.603  18.542  20.384  0.00  0.00    +0.000 C 
ATOM     33  C   UNL     1      -0.951  17.287  21.172  0.00  0.00    +0.000 C 
ENDBRANCH  20  28
BRANCH   1  35
ATOM     34  C   UNL     1       4.046   2.250  20.000  0.00  0.00    +0.000 C 
ATOM     35  N   UNL     1       3.305   2.809  18.859  0.00  0.00    +0.000 NA
ATOM     36  C   UNL     1       3.221   1.791  17.802  0.00  0.00    +0.000 C 
ENDBRANCH   1  35
TORSDOF 2
ENDMDL
MODEL 9
REMARK VINA RESULT:      -6.8      2.105      3.825
REMARK  Name = 
REMARK  4 active torsions:
REMARK  status: ('A' for Active; 'I' for Inactive)
REMARK    1  A    between atoms: C_1  and  N_2
REMARK    2  A    between atoms: N_2  and  C_3
REMARK    3  A    between atoms: N_2  and  C_4
REMARK    4  A    between atoms: N_23  and  C_24
REMARK                            x       y       z     vdW  Elec       q    Type
REMARK                         _______ _______ _______ _____ _____    ______ ____
ROOT
ATOM      1  C   UNL     1      -2.622  16.029  20.821  0.00  0.00    +0.000 C 
ATOM      2  C   UNL     1      -3.266  14.642  20.508  0.00  0.00    +0.000 C 
ATOM      3  C   UNL     1      -2.828  13.518  21.451  0.00  0.00    +0.000 C 
ATOM      4  N   UNL     1      -1.368  13.496  21.485  0.00  0.00    +0.000 N 
ATOM      5  C   UNL     1      -0.724  12.298  21.486  0.00  0.00    +0.000 A 
ATOM      6  C   UNL     1       0.564  12.197  20.959  0.00  0.00    +0.000 A 
ATOM      7  C   UNL     1       1.139  10.951  20.811  0.00  0.00    +0.000 A 
ATOM      8  C   UNL     1       0.455   9.813  21.193  0.00  0.00    +0.000 A 
ATOM      9  N   UNL     1       0.980   8.541  21.002  0.00  0.00    +0.000 N 
ATOM     10  C   UNL     1       1.785   8.107  19.955  0.00  0.00    +0.000 A 
ATOM     11  N   UNL     1       2.191   9.013  19.043  0.00  0.00    +0.000 NA
ATOM     12  C   UNL     1       2.974   8.646  18.018  0.00  0.00    +0.000 A 
ATOM     13  C   UNL     1       3.308   7.306  17.871  0.00  0.00    +0.000 A 
ATOM     14  C   UNL     1       4.053   6.546  16.949  0.00  0.00    +0.000 A 
ATOM     15  C   UNL     1       4.789   6.873  15.798  0.00  0.00    +0.000 A 
ATOM     16  C   UNL     1       5.399   5.823  15.135  0.00  0.00    +0.000 A 
ATOM     17  N   UNL     1       5.317   4.532  15.515  0.00  0.00    +0.000 NA
ATOM     18  C   UNL     1       4.604   4.206  16.617  0.00  0.00    +0.000 A 
ATOM     19  C   UNL     1       3.970   5.209  17.347  0.00  0.00    +0.000 A 
ATOM     20  N   UNL     1       3.194   5.171  18.497  0.00  0.00    +0.000 N 
ATOM     21  C   UNL     1       2.820   6.452  18.845  0.00  0.00    +0.000 A 
ATOM     22  N   UNL     1       2.086   6.800  19.918  0.00  0.00    +0.000 NA
ATOM     23  N   UNL     1      -0.764   9.932  21.761  0.00  0.00    +0.000 NA
ATOM     24  N   UNL     1      -1.344  11.170  21.893  0.00  0.00    +0.000 NA
ATOM     25  C   UNL     1      -0.695  14.722  21.883  0.00  0.00    +0.000 C 
ATOM     26  C   UNL     1      -1.085  15.801  20.880  0.00  0.00    +0.000 C 
ATOM     27  H   UNL     1       0.527   7.802  21.514  0.00  0.00    +0.000 HD
ENDROOT
BRANCH  20  28
ATOM     28  C   UNL     1       2.817   3.954  19.226  0.00  0.00    +0.000 C 
ATOM     29  C   UNL     1       1.293   3.792  19.351  0.00  0.00    +0.000 C 
ATOM     30  C   UNL     1       0.897   2.447  19.945  0.00  0.00    +0.000 C 
ATOM     31  S   UNL     1       1.576   2.212  21.611  0.00  0.00    +0.000 S 
ATOM     32  C   UNL     1       3.328   2.510  21.253  0.00  0.00    +0.000 C 
ATOM     33  C   UNL     1       3.547   3.853  20.573  0.00  0.00    +0.000 C 
ENDBRANCH  20  28
BRANCH   1  35
ATOM     34  C   UNL     1      -2.700  18.132  22.171  0.00  0.00    +0.000 C 
ATOM     35  N   UNL     1      -3.174  16.750  22.010  0.00  0.00    +0.000 NA
ATOM     36  C   UNL     1      -4.639  16.733  22.127  0.00  0.00    +0.000 C 
ENDBRANCH   1  35
TORSDOF 2
ENDMDL
