MODEL 1
REMARK VINA RESULT:      -8.6      0.000      0.000
REMARK  Name = 
REMARK  5 active torsions:
REMARK  status: ('A' for Active; 'I' for Inactive)
REMARK    1  A    between atoms: C_1  and  C_2
REMARK    2  A    between atoms: C_2  and  C_3
REMARK    3  A    between atoms: C_3  and  N_4
REMARK    4  A    between atoms: C_8  and  C_10
REMARK    5  A    between atoms: N_14  and  C_15
REMARK                            x       y       z     vdW  Elec       q    Type
REMARK                         _______ _______ _______ _____ _____    ______ ____
ROOT
ATOM      1  C   UNL     1       3.441   3.171  19.719  0.00  0.00    +0.000 C 
ATOM      2  C   UNL     1       2.233   2.246  19.898  0.00  0.00    +0.000 C 
ATOM      3  C   UNL     1       0.853   2.911  19.799  0.00  0.00    +0.000 C 
ATOM      4  C   UNL     1       0.751   4.353  20.309  0.00  0.00    +0.000 C 
ATOM      5  N   UNL     1       1.937   5.102  19.941  0.00  0.00    +0.000 N 
ATOM      6  C   UNL     1       3.216   4.544  20.340  0.00  0.00    +0.000 C 
ENDROOT
BRANCH   5   7
ATOM      7  C   UNL     1       1.909   6.432  19.548  0.00  0.00    +0.000 A 
ATOM      8  N   UNL     1       2.260   6.725  18.252  0.00  0.00    +0.000 NA
ATOM      9  C   UNL     1       2.155   7.981  17.785  0.00  0.00    +0.000 A 
ATOM     10  N   UNL     1       1.774   9.080  18.448  0.00  0.00    +0.000 NA
ATOM     11  C   UNL     1       1.487   8.782  19.723  0.00  0.00    +0.000 A 
ATOM     12  C   UNL     1       1.532   7.543  20.343  0.00  0.00    +0.000 A 
ATOM     13  N   UNL     1       1.184   7.670  21.677  0.00  0.00    +0.000 NA
ATOM     14  C   UNL     1       0.921   8.948  21.862  0.00  0.00    +0.000 A 
ATOM     15  N   UNL     1       1.073   9.653  20.693  0.00  0.00    +0.000 N 
ATOM     16  C   UNL     1       0.831  11.068  20.517  0.00  0.00    +0.000 C 
ATOM     17  C   UNL     1      -0.613  11.460  20.825  0.00  0.00    +0.000 C 
ATOM     18  C   UNL     1      -0.944  11.523  22.319  0.00  0.00    +0.000 C 
ATOM     19  C   UNL     1      -0.902  10.178  23.049  0.00  0.00    +0.000 C 
ATOM     20  C   UNL     1       0.498   9.576  23.142  0.00  0.00    +0.000 C 
ENDBRANCH   5   7
BRANCH   1  25
ATOM     21  N   UNL     1       6.011   6.919  17.081  0.00  0.00    +0.000 NA
ATOM     22  C   UNL     1       5.323   6.029  16.118  0.00  0.00    +0.000 C 
ATOM     23  C   UNL     1       5.163   4.540  16.529  0.00  0.00    +0.000 C 
ATOM     24  N   UNL     1       4.745   4.364  17.930  0.00  0.00    +0.000 N 
ATOM     25  C   UNL     1       3.950   3.266  18.267  0.00  0.00    +0.000 C 
ATOM     26  O   UNL     1       3.664   2.420  17.418  0.00  0.00    +0.000 OA
ATOM     27  C   UNL     1       5.458   5.220  18.876  0.00  0.00    +0.000 C 
ATOM     28  C   UNL     1       5.420   6.692  18.421  0.00  0.00    +0.000 C 
BRANCH  21  29
ATOM     29  C   UNL     1       7.472   6.763  17.133  0.00  0.00    +0.000 C 
BRANCH  29  31
ATOM     30  C   UNL     1       8.201   9.087  17.934  0.00  0.00    +0.000 C 
ATOM     31  C   UNL     1       8.219   7.588  18.188  0.00  0.00    +0.000 C 
ENDBRANCH  29  31
ENDBRANCH  21  29
ENDBRANCH   1  25
TORSDOF 4
ENDMDL
MODEL 2
REMARK VINA RESULT:      -8.5      1.497      2.046
REMARK  Name = 
REMARK  5 active torsions:
REMARK  status: ('A' for Active; 'I' for Inactive)
REMARK    1  A    between atoms: C_1  and  C_2
REMARK    2  A    between atoms: C_2  and  C_3
REMARK    3  A    between atoms: C_3  and  N_4
REMARK    4  A    between atoms: C_8  and  C_10
REMARK    5  A    between atoms: N_14  and  C_15
REMARK                            x       y       z     vdW  Elec       q    Type
REMARK                         _______ _______ _______ _____ _____    ______ ____
ROOT
ATOM      1  C   UNL     1       3.906   3.612  19.164  0.00  0.00    +0.000 C 
ATOM      2  C   UNL     1       2.960   2.683  19.931  0.00  0.00    +0.000 C 
ATOM      3  C   UNL     1       1.654   3.313  20.435  0.00  0.00    +0.000 C 
ATOM      4  C   UNL     1       1.723   4.788  20.848  0.00  0.00    +0.000 C 
ATOM      5  N   UNL     1       2.572   5.528  19.934  0.00  0.00    +0.000 N 
ATOM      6  C   UNL     1       3.918   5.024  19.736  0.00  0.00    +0.000 C 
ENDROOT
BRANCH   5   7
ATOM      7  C   UNL     1       2.299   6.823  19.519  0.00  0.00    +0.000 A 
ATOM      8  N   UNL     1       2.547   7.141  18.206  0.00  0.00    +0.000 NA
ATOM      9  C   UNL     1       2.210   8.348  17.721  0.00  0.00    +0.000 A 
ATOM     10  N   UNL     1       1.670   9.381  18.379  0.00  0.00    +0.000 NA
ATOM     11  C   UNL     1       1.485   9.070  19.670  0.00  0.00    +0.000 A 
ATOM     12  C   UNL     1       1.767   7.872  20.309  0.00  0.00    +0.000 A 
ATOM     13  N   UNL     1       1.450   7.969  21.653  0.00  0.00    +0.000 NA
ATOM     14  C   UNL     1       0.978   9.187  21.826  0.00  0.00    +0.000 A 
ATOM     15  N   UNL     1       0.963   9.880  20.641  0.00  0.00    +0.000 N 
ATOM     16  C   UNL     1       0.474  11.227  20.449  0.00  0.00    +0.000 C 
ATOM     17  C   UNL     1      -1.003  11.373  20.808  0.00  0.00    +0.000 C 
ATOM     18  C   UNL     1      -1.285  11.414  22.313  0.00  0.00    +0.000 C 
ATOM     19  C   UNL     1      -0.985  10.115  23.064  0.00  0.00    +0.000 C 
ATOM     20  C   UNL     1       0.500   9.764  23.111  0.00  0.00    +0.000 C 
ENDBRANCH   5   7
BRANCH   1  25
ATOM     21  N   UNL     1       6.537   5.820  15.188  0.00  0.00    +0.000 NA
ATOM     22  C   UNL     1       5.153   5.521  14.751  0.00  0.00    +0.000 C 
ATOM     23  C   UNL     1       4.469   4.282  15.389  0.00  0.00    +0.000 C 
ATOM     24  N   UNL     1       4.686   4.180  16.842  0.00  0.00    +0.000 N 
ATOM     25  C   UNL     1       3.692   3.605  17.638  0.00  0.00    +0.000 C 
ATOM     26  O   UNL     1       2.681   3.127  17.122  0.00  0.00    +0.000 OA
ATOM     27  C   UNL     1       6.064   4.439  17.257  0.00  0.00    +0.000 C 
ATOM     28  C   UNL     1       6.574   5.769  16.668  0.00  0.00    +0.000 C 
BRANCH  21  29
ATOM     29  C   UNL     1       7.569   4.941  14.620  0.00  0.00    +0.000 C 
BRANCH  29  31
ATOM     30  C   UNL     1       7.052   4.027  12.281  0.00  0.00    +0.000 C 
ATOM     31  C   UNL     1       7.816   5.048  13.110  0.00  0.00    +0.000 C 
ENDBRANCH  29  31
ENDBRANCH  21  29
ENDBRANCH   1  25
TORSDOF 4
ENDMDL
MODEL 3
REMARK VINA RESULT:      -7.7      4.205      7.117
REMARK  Name = 
REMARK  5 active torsions:
REMARK  status: ('A' for Active; 'I' for Inactive)
REMARK    1  A    between atoms: C_1  and  C_2
REMARK    2  A    between atoms: C_2  and  C_3
REMARK    3  A    between atoms: C_3  and  N_4
REMARK    4  A    between atoms: C_8  and  C_10
REMARK    5  A    between atoms: N_14  and  C_15
REMARK                            x       y       z     vdW  Elec       q    Type
REMARK                         _______ _______ _______ _____ _____    ______ ____
ROOT
ATOM      1  C   UNL     1       0.895  10.123  18.430  0.00  0.00    +0.000 C 
ATOM      2  C   UNL     1       2.001  11.148  18.157  0.00  0.00    +0.000 C 
ATOM      3  C   UNL     1       1.762  12.562  18.703  0.00  0.00    +0.000 C 
ATOM      4  C   UNL     1       0.308  13.047  18.730  0.00  0.00    +0.000 C 
ATOM      5  N   UNL     1      -0.576  11.967  19.123  0.00  0.00    +0.000 N 
ATOM      6  C   UNL     1      -0.496  10.740  18.352  0.00  0.00    +0.000 C 
ENDROOT
BRANCH   5   7
ATOM      7  C   UNL     1      -1.685  12.146  19.937  0.00  0.00    +0.000 A 
ATOM      8  N   UNL     1      -1.467  12.400  21.269  0.00  0.00    +0.000 NA
ATOM      9  C   UNL     1      -2.496  12.682  22.088  0.00  0.00    +0.000 A 
ATOM     10  N   UNL     1      -3.801  12.714  21.792  0.00  0.00    +0.000 NA
ATOM     11  C   UNL     1      -3.997  12.411  20.500  0.00  0.00    +0.000 A 
ATOM     12  C   UNL     1      -3.044  12.115  19.538  0.00  0.00    +0.000 A 
ATOM     13  N   UNL     1      -3.664  11.835  18.332  0.00  0.00    +0.000 NA
ATOM     14  C   UNL     1      -4.956  11.969  18.550  0.00  0.00    +0.000 A 
ATOM     15  N   UNL     1      -5.198  12.339  19.850  0.00  0.00    +0.000 N 
ATOM     16  C   UNL     1      -6.494  12.612  20.429  0.00  0.00    +0.000 C 
ATOM     17  C   UNL     1      -7.217  13.764  19.734  0.00  0.00    +0.000 C 
ATOM     18  C   UNL     1      -7.827  13.399  18.377  0.00  0.00    +0.000 C 
ATOM     19  C   UNL     1      -6.814  13.058  17.282  0.00  0.00    +0.000 C 
ATOM     20  C   UNL     1      -6.036  11.772  17.546  0.00  0.00    +0.000 C 
ENDBRANCH   5   7
BRANCH   1  25
ATOM     21  N   UNL     1       2.607   5.239  19.334  0.00  0.00    +0.000 NA
ATOM     22  C   UNL     1       1.809   5.699  20.495  0.00  0.00    +0.000 C 
ATOM     23  C   UNL     1       1.844   7.218  20.812  0.00  0.00    +0.000 C 
ATOM     24  N   UNL     1       1.726   8.067  19.614  0.00  0.00    +0.000 N 
ATOM     25  C   UNL     1       1.097   9.310  19.723  0.00  0.00    +0.000 C 
ATOM     26  O   UNL     1       0.712   9.719  20.819  0.00  0.00    +0.000 OA
ATOM     27  C   UNL     1       2.548   7.625  18.488  0.00  0.00    +0.000 C 
ATOM     28  C   UNL     1       2.312   6.132  18.189  0.00  0.00    +0.000 C 
BRANCH  21  29
ATOM     29  C   UNL     1       4.056   5.169  19.568  0.00  0.00    +0.000 C 
BRANCH  29  31
ATOM     30  C   UNL     1       3.929   2.959  18.275  0.00  0.00    +0.000 C 
ATOM     31  C   UNL     1       4.761   3.868  19.165  0.00  0.00    +0.000 C 
ENDBRANCH  29  31
ENDBRANCH  21  29
ENDBRANCH   1  25
TORSDOF 4
ENDMDL
MODEL 4
REMARK VINA RESULT:      -7.4      4.702      8.039
REMARK  Name = 
REMARK  5 active torsions:
REMARK  status: ('A' for Active; 'I' for Inactive)
REMARK    1  A    between atoms: C_1  and  C_2
REMARK    2  A    between atoms: C_2  and  C_3
REMARK    3  A    between atoms: C_3  and  N_4
REMARK    4  A    between atoms: C_8  and  C_10
REMARK    5  A    between atoms: N_14  and  C_15
REMARK                            x       y       z     vdW  Elec       q    Type
REMARK                         _______ _______ _______ _____ _____    ______ ____
ROOT
ATOM      1  C   UNL     1       2.160  13.227  18.253  0.00  0.00    +0.000 C 
ATOM      2  C   UNL     1       0.853  13.956  17.924  0.00  0.00    +0.000 C 
ATOM      3  C   UNL     1      -0.425  13.354  18.524  0.00  0.00    +0.000 C 
ATOM      4  C   UNL     1      -0.457  11.829  18.674  0.00  0.00    +0.000 C 
ATOM      5  N   UNL     1       0.838  11.339  19.105  0.00  0.00    +0.000 N 
ATOM      6  C   UNL     1       1.983  11.714  18.297  0.00  0.00    +0.000 C 
ENDROOT
BRANCH   5   7
ATOM      7  C   UNL     1       0.998  10.296  20.006  0.00  0.00    +0.000 A 
ATOM      8  N   UNL     1       0.637  10.518  21.313  0.00  0.00    +0.000 NA
ATOM      9  C   UNL     1       0.674   9.517  22.210  0.00  0.00    +0.000 A 
ATOM     10  N   UNL     1       1.079   8.255  22.023  0.00  0.00    +0.000 NA
ATOM     11  C   UNL     1       1.477   8.073  20.755  0.00  0.00    +0.000 A 
ATOM     12  C   UNL     1       1.483   8.996  19.721  0.00  0.00    +0.000 A 
ATOM     13  N   UNL     1       1.994   8.413  18.573  0.00  0.00    +0.000 NA
ATOM     14  C   UNL     1       2.279   7.168  18.895  0.00  0.00    +0.000 A 
ATOM     15  N   UNL     1       1.958   6.916  20.207  0.00  0.00    +0.000 N 
ATOM     16  C   UNL     1       2.099   5.648  20.888  0.00  0.00    +0.000 C 
ATOM     17  C   UNL     1       1.271   4.540  20.243  0.00  0.00    +0.000 C 
ATOM     18  C   UNL     1       1.865   3.983  18.945  0.00  0.00    +0.000 C 
ATOM     19  C   UNL     1       1.899   4.967  17.774  0.00  0.00    +0.000 C 
ATOM     20  C   UNL     1       2.853   6.140  17.986  0.00  0.00    +0.000 C 
ENDBRANCH   5   7
BRANCH   1  25
ATOM     21  N   UNL     1       6.835  15.520  18.961  0.00  0.00    +0.000 NA
ATOM     22  C   UNL     1       6.375  14.941  20.245  0.00  0.00    +0.000 C 
ATOM     23  C   UNL     1       4.842  14.905  20.490  0.00  0.00    +0.000 C 
ATOM     24  N   UNL     1       4.075  14.466  19.313  0.00  0.00    +0.000 N 
ATOM     25  C   UNL     1       2.882  13.765  19.503  0.00  0.00    +0.000 C 
ATOM     26  O   UNL     1       2.444  13.579  20.640  0.00  0.00    +0.000 OA
ATOM     27  C   UNL     1       4.512  15.074  18.056  0.00  0.00    +0.000 C 
ATOM     28  C   UNL     1       6.033  14.916  17.871  0.00  0.00    +0.000 C 
BRANCH  21  29
ATOM     29  C   UNL     1       6.775  16.987  18.887  0.00  0.00    +0.000 C 
BRANCH  29  31
ATOM     30  C   UNL     1       9.239  17.364  18.287  0.00  0.00    +0.000 C 
ATOM     31  C   UNL     1       8.073  17.749  19.183  0.00  0.00    +0.000 C 
ENDBRANCH  29  31
ENDBRANCH  21  29
ENDBRANCH   1  25
TORSDOF 4
ENDMDL
MODEL 5
REMARK VINA RESULT:      -7.2      5.840     10.451
REMARK  Name = 
REMARK  5 active torsions:
REMARK  status: ('A' for Active; 'I' for Inactive)
REMARK    1  A    between atoms: C_1  and  C_2
REMARK    2  A    between atoms: C_2  and  C_3
REMARK    3  A    between atoms: C_3  and  N_4
REMARK    4  A    between atoms: C_8  and  C_10
REMARK    5  A    between atoms: N_14  and  C_15
REMARK                            x       y       z     vdW  Elec       q    Type
REMARK                         _______ _______ _______ _____ _____    ______ ____
ROOT
ATOM      1  C   UNL     1       3.029  15.403  20.413  0.00  0.00    +0.000 C 
ATOM      2  C   UNL     1       3.289  16.810  19.866  0.00  0.00    +0.000 C 
ATOM      3  C   UNL     1       4.750  17.281  19.879  0.00  0.00    +0.000 C 
ATOM      4  C   UNL     1       5.621  16.774  21.035  0.00  0.00    +0.000 C 
ATOM      5  N   UNL     1       5.310  15.389  21.329  0.00  0.00    +0.000 N 
ATOM      6  C   UNL     1       3.921  15.072  21.603  0.00  0.00    +0.000 C 
ENDROOT
BRANCH   5   7
ATOM      7  C   UNL     1       6.268  14.451  21.685  0.00  0.00    +0.000 A 
ATOM      8  N   UNL     1       6.073  13.745  22.847  0.00  0.00    +0.000 NA
ATOM      9  C   UNL     1       6.913  12.754  23.193  0.00  0.00    +0.000 A 
ATOM     10  N   UNL     1       8.017  12.347  22.554  0.00  0.00    +0.000 NA
ATOM     11  C   UNL     1       8.219  13.082  21.451  0.00  0.00    +0.000 A 
ATOM     12  C   UNL     1       7.440  14.119  20.960  0.00  0.00    +0.000 A 
ATOM     13  N   UNL     1       8.010  14.632  19.808  0.00  0.00    +0.000 NA
ATOM     14  C   UNL     1       9.099  13.921  19.595  0.00  0.00    +0.000 A 
ATOM     15  N   UNL     1       9.249  12.955  20.560  0.00  0.00    +0.000 N 
ATOM     16  C   UNL     1      10.307  11.971  20.620  0.00  0.00    +0.000 C 
ATOM     17  C   UNL     1      10.335  11.063  19.393  0.00  0.00    +0.000 C 
ATOM     18  C   UNL     1      10.924  11.715  18.139  0.00  0.00    +0.000 C 
ATOM     19  C   UNL     1      10.101  12.869  17.562  0.00  0.00    +0.000 C 
ATOM     20  C   UNL     1      10.051  14.098  18.466  0.00  0.00    +0.000 C 
ENDBRANCH   5   7
BRANCH   1  25
ATOM     21  N   UNL     1       0.188  11.037  19.724  0.00  0.00    +0.000 NA
ATOM     22  C   UNL     1       1.470  10.905  18.993  0.00  0.00    +0.000 C 
ATOM     23  C   UNL     1       2.092  12.211  18.427  0.00  0.00    +0.000 C 
ATOM     24  N   UNL     1       2.041  13.339  19.372  0.00  0.00    +0.000 N 
ATOM     25  C   UNL     1       3.056  14.297  19.341  0.00  0.00    +0.000 C 
ATOM     26  O   UNL     1       3.943  14.237  18.487  0.00  0.00    +0.000 OA
ATOM     27  C   UNL     1       0.757  13.482  20.058  0.00  0.00    +0.000 C 
ATOM     28  C   UNL     1       0.323  12.148  20.695  0.00  0.00    +0.000 C 
BRANCH  21  29
ATOM     29  C   UNL     1      -0.992  11.245  18.871  0.00  0.00    +0.000 C 
BRANCH  29  31
ATOM     30  C   UNL     1      -2.716   9.874  17.560  0.00  0.00    +0.000 C 
ATOM     31  C   UNL     1      -1.247  10.202  17.776  0.00  0.00    +0.000 C 
ENDBRANCH  29  31
ENDBRANCH  21  29
ENDBRANCH   1  25
TORSDOF 4
ENDMDL
MODEL 6
REMARK VINA RESULT:      -7.2      3.497      8.268
REMARK  Name = 
REMARK  5 active torsions:
REMARK  status: ('A' for Active; 'I' for Inactive)
REMARK    1  A    between atoms: C_1  and  C_2
REMARK    2  A    between atoms: C_2  and  C_3
REMARK    3  A    between atoms: C_3  and  N_4
REMARK    4  A    between atoms: C_8  and  C_10
REMARK    5  A    between atoms: N_14  and  C_15
REMARK                            x       y       z     vdW  Elec       q    Type
REMARK                         _______ _______ _______ _____ _____    ______ ____
ROOT
ATOM      1  C   UNL     1      -0.280  11.382  21.073  0.00  0.00    +0.000 C 
ATOM      2  C   UNL     1      -0.564  11.009  22.532  0.00  0.00    +0.000 C 
ATOM      3  C   UNL     1      -0.012   9.657  23.004  0.00  0.00    +0.000 C 
ATOM      4  C   UNL     1       0.034   8.536  21.959  0.00  0.00    +0.000 C 
ATOM      5  N   UNL     1       0.435   9.065  20.670  0.00  0.00    +0.000 N 
ATOM      6  C   UNL     1      -0.340  10.175  20.146  0.00  0.00    +0.000 C 
ENDROOT
BRANCH   5   7
ATOM      7  C   UNL     1       1.264   8.384  19.790  0.00  0.00    +0.000 A 
ATOM      8  N   UNL     1       1.878   9.109  18.797  0.00  0.00    +0.000 NA
ATOM      9  C   UNL     1       2.769   8.525  17.977  0.00  0.00    +0.000 A 
ATOM     10  N   UNL     1       3.146   7.241  17.949  0.00  0.00    +0.000 NA
ATOM     11  C   UNL     1       2.496   6.540  18.889  0.00  0.00    +0.000 A 
ATOM     12  C   UNL     1       1.568   7.001  19.810  0.00  0.00    +0.000 A 
ATOM     13  N   UNL     1       1.116   5.950  20.590  0.00  0.00    +0.000 NA
ATOM     14  C   UNL     1       1.759   4.881  20.165  0.00  0.00    +0.000 A 
ATOM     15  N   UNL     1       2.622   5.202  19.147  0.00  0.00    +0.000 N 
ATOM     16  C   UNL     1       3.515   4.288  18.469  0.00  0.00    +0.000 C 
ATOM     17  C   UNL     1       4.522   3.640  19.416  0.00  0.00    +0.000 C 
ATOM     18  C   UNL     1       3.939   2.526  20.291  0.00  0.00    +0.000 C 
ATOM     19  C   UNL     1       2.905   2.985  21.321  0.00  0.00    +0.000 C 
ATOM     20  C   UNL     1       1.609   3.501  20.700  0.00  0.00    +0.000 C 
ENDBRANCH   5   7
BRANCH   1  25
ATOM     21  N   UNL     1       0.722  15.875  18.541  0.00  0.00    +0.000 NA
ATOM     22  C   UNL     1       1.983  15.113  18.699  0.00  0.00    +0.000 C 
ATOM     23  C   UNL     1       2.110  14.223  19.965  0.00  0.00    +0.000 C 
ATOM     24  N   UNL     1       0.890  13.455  20.263  0.00  0.00    +0.000 N 
ATOM     25  C   UNL     1       1.007  12.204  20.874  0.00  0.00    +0.000 C 
ATOM     26  O   UNL     1       2.112  11.783  21.221  0.00  0.00    +0.000 OA
ATOM     27  C   UNL     1      -0.346  14.229  20.142  0.00  0.00    +0.000 C 
ATOM     28  C   UNL     1      -0.409  14.950  18.782  0.00  0.00    +0.000 C 
BRANCH  21  29
ATOM     29  C   UNL     1       0.605  17.062  19.402  0.00  0.00    +0.000 C 
BRANCH  29  31
ATOM     30  C   UNL     1      -0.890  18.462  17.861  0.00  0.00    +0.000 C 
ATOM     31  C   UNL     1      -0.671  17.899  19.256  0.00  0.00    +0.000 C 
ENDBRANCH  29  31
ENDBRANCH  21  29
ENDBRANCH   1  25
TORSDOF 4
ENDMDL
MODEL 7
REMARK VINA RESULT:      -7.1      3.658      6.535
REMARK  Name = 
REMARK  5 active torsions:
REMARK  status: ('A' for Active; 'I' for Inactive)
REMARK    1  A    between atoms: C_1  and  C_2
REMARK    2  A    between atoms: C_2  and  C_3
REMARK    3  A    between atoms: C_3  and  N_4
REMARK    4  A    between atoms: C_8  and  C_10
REMARK    5  A    between atoms: N_14  and  C_15
REMARK                            x       y       z     vdW  Elec       q    Type
REMARK                         _______ _______ _______ _____ _____    ______ ____
ROOT
ATOM      1  C   UNL     1       0.941   9.628  18.543  0.00  0.00    +0.000 C 
ATOM      2  C   UNL     1       2.019  10.568  17.992  0.00  0.00    +0.000 C 
ATOM      3  C   UNL     1       2.029  11.993  18.563  0.00  0.00    +0.000 C 
ATOM      4  C   UNL     1       0.667  12.586  18.945  0.00  0.00    +0.000 C 
ATOM      5  N   UNL     1      -0.169  11.572  19.557  0.00  0.00    +0.000 N 
ATOM      6  C   UNL     1      -0.376  10.348  18.805  0.00  0.00    +0.000 C 
ENDROOT
BRANCH   5   7
ATOM      7  C   UNL     1      -1.024  11.829  20.619  0.00  0.00    +0.000 A 
ATOM      8  N   UNL     1      -0.503  11.776  21.889  0.00  0.00    +0.000 NA
ATOM      9  C   UNL     1      -1.256  12.112  22.951  0.00  0.00    +0.000 A 
ATOM     10  N   UNL     1      -2.544  12.478  22.967  0.00  0.00    +0.000 NA
ATOM     11  C   UNL     1      -3.048  12.472  21.725  0.00  0.00    +0.000 A 
ATOM     12  C   UNL     1      -2.399  12.164  20.539  0.00  0.00    +0.000 A 
ATOM     13  N   UNL     1      -3.284  12.255  19.479  0.00  0.00    +0.000 NA
ATOM     14  C   UNL     1      -4.438  12.620  20.002  0.00  0.00    +0.000 A 
ATOM     15  N   UNL     1      -4.330  12.782  21.361  0.00  0.00    +0.000 N 
ATOM     16  C   UNL     1      -5.385  13.213  22.252  0.00  0.00    +0.000 C 
ATOM     17  C   UNL     1      -5.915  14.603  21.905  0.00  0.00    +0.000 C 
ATOM     18  C   UNL     1      -6.841  14.638  20.686  0.00  0.00    +0.000 C 
ATOM     19  C   UNL     1      -6.170  14.300  19.353  0.00  0.00    +0.000 C 
ATOM     20  C   UNL     1      -5.702  12.851  19.252  0.00  0.00    +0.000 C 
ENDBRANCH   5   7
BRANCH   1  25
ATOM     21  N   UNL     1       2.639   4.679  19.021  0.00  0.00    +0.000 NA
ATOM     22  C   UNL     1       2.135   5.150  20.332  0.00  0.00    +0.000 C 
ATOM     23  C   UNL     1       2.294   6.664  20.641  0.00  0.00    +0.000 C 
ATOM     24  N   UNL     1       1.942   7.531  19.503  0.00  0.00    +0.000 N 
ATOM     25  C   UNL     1       1.397   8.792  19.755  0.00  0.00    +0.000 C 
ATOM     26  O   UNL     1       1.279   9.200  20.911  0.00  0.00    +0.000 OA
ATOM     27  C   UNL     1       2.477   7.076  18.220  0.00  0.00    +0.000 C 
ATOM     28  C   UNL     1       2.129   5.595  17.975  0.00  0.00    +0.000 C 
BRANCH  21  29
ATOM     29  C   UNL     1       4.101   4.558  18.927  0.00  0.00    +0.000 C 
BRANCH  29  31
ATOM     30  C   UNL     1       5.960   4.569  17.161  0.00  0.00    +0.000 C 
ATOM     31  C   UNL     1       4.664   3.937  17.643  0.00  0.00    +0.000 C 
ENDBRANCH  29  31
ENDBRANCH  21  29
ENDBRANCH   1  25
TORSDOF 4
ENDMDL
MODEL 8
REMARK VINA RESULT:      -7.0      7.309      9.725
REMARK  Name = 
REMARK  5 active torsions:
REMARK  status: ('A' for Active; 'I' for Inactive)
REMARK    1  A    between atoms: C_1  and  C_2
REMARK    2  A    between atoms: C_2  and  C_3
REMARK    3  A    between atoms: C_3  and  N_4
REMARK    4  A    between atoms: C_8  and  C_10
REMARK    5  A    between atoms: N_14  and  C_15
REMARK                            x       y       z     vdW  Elec       q    Type
REMARK                         _______ _______ _______ _____ _____    ______ ____
ROOT
ATOM      1  C   UNL     1      -1.089  15.218  22.926  0.00  0.00    +0.000 C 
ATOM      2  C   UNL     1      -1.246  15.348  24.445  0.00  0.00    +0.000 C 
ATOM      3  C   UNL     1      -2.579  14.863  25.031  0.00  0.00    +0.000 C 
ATOM      4  C   UNL     1      -3.820  15.049  24.150  0.00  0.00    +0.000 C 
ATOM      5  N   UNL     1      -3.500  14.769  22.764  0.00  0.00    +0.000 N 
ATOM      6  C   UNL     1      -2.390  15.502  22.185  0.00  0.00    +0.000 C 
ENDROOT
BRANCH   5   7
ATOM      7  C   UNL     1      -4.369  14.122  21.896  0.00  0.00    +0.000 A 
ATOM      8  N   UNL     1      -5.711  14.391  22.015  0.00  0.00    +0.000 NA
ATOM      9  C   UNL     1      -6.590  13.873  21.140  0.00  0.00    +0.000 A 
ATOM     10  N   UNL     1      -6.347  13.041  20.120  0.00  0.00    +0.000 NA
ATOM     11  C   UNL     1      -5.040  12.749  20.053  0.00  0.00    +0.000 A 
ATOM     12  C   UNL     1      -4.019  13.212  20.868  0.00  0.00    +0.000 A 
ATOM     13  N   UNL     1      -2.814  12.650  20.479  0.00  0.00    +0.000 NA
ATOM     14  C   UNL     1      -3.092  11.877  19.449  0.00  0.00    +0.000 A 
ATOM     15  N   UNL     1      -4.430  11.927  19.146  0.00  0.00    +0.000 N 
ATOM     16  C   UNL     1      -5.081  11.236  18.055  0.00  0.00    +0.000 C 
ATOM     17  C   UNL     1      -4.531  11.645  16.690  0.00  0.00    +0.000 C 
ATOM     18  C   UNL     1      -3.168  11.034  16.351  0.00  0.00    +0.000 C 
ATOM     19  C   UNL     1      -2.008  11.511  17.227  0.00  0.00    +0.000 C 
ATOM     20  C   UNL     1      -2.114  11.060  18.682  0.00  0.00    +0.000 C 
ENDBRANCH   5   7
BRANCH   1  25
ATOM     21  N   UNL     1       1.750  13.914  18.702  0.00  0.00    +0.000 NA
ATOM     22  C   UNL     1       1.157  12.690  19.288  0.00  0.00    +0.000 C 
ATOM     23  C   UNL     1       0.950  12.678  20.827  0.00  0.00    +0.000 C 
ATOM     24  N   UNL     1       0.392  13.937  21.349  0.00  0.00    +0.000 N 
ATOM     25  C   UNL     1      -0.438  13.898  22.472  0.00  0.00    +0.000 C 
ATOM     26  O   UNL     1      -0.642  12.833  23.058  0.00  0.00    +0.000 OA
ATOM     27  C   UNL     1       1.012  15.139  20.792  0.00  0.00    +0.000 C 
ATOM     28  C   UNL     1       1.028  15.085  19.252  0.00  0.00    +0.000 C 
BRANCH  21  29
ATOM     29  C   UNL     1       3.198  14.062  18.911  0.00  0.00    +0.000 C 
BRANCH  29  31
ATOM     30  C   UNL     1       5.444  14.684  17.844  0.00  0.00    +0.000 C 
ATOM     31  C   UNL     1       3.952  14.963  17.926  0.00  0.00    +0.000 C 
ENDBRANCH  29  31
ENDBRANCH  21  29
ENDBRANCH   1  25
TORSDOF 4
ENDMDL
MODEL 9
REMARK VINA RESULT:      -7.0      4.305      8.165
REMARK  Name = 
REMARK  5 active torsions:
REMARK  status: ('A' for Active; 'I' for Inactive)
REMARK    1  A    between atoms: C_1  and  C_2
REMARK    2  A    between atoms: C_2  and  C_3
REMARK    3  A    between atoms: C_3  and  N_4
REMARK    4  A    between atoms: C_8  and  C_10
REMARK    5  A    between atoms: N_14  and  C_15
REMARK                            x       y       z     vdW  Elec       q    Type
REMARK                         _______ _______ _______ _____ _____    ______ ____
ROOT
ATOM      1  C   UNL     1       1.529  12.654  18.643  0.00  0.00    +0.000 C 
ATOM      2  C   UNL     1       0.085  13.069  18.341  0.00  0.00    +0.000 C 
ATOM      3  C   UNL     1      -0.993  12.010  18.607  0.00  0.00    +0.000 C 
ATOM      4  C   UNL     1      -0.588  10.549  18.371  0.00  0.00    +0.000 C 
ATOM      5  N   UNL     1       0.769  10.324  18.828  0.00  0.00    +0.000 N 
ATOM      6  C   UNL     1       1.797  11.196  18.290  0.00  0.00    +0.000 C 
ENDROOT
BRANCH   5   7
ATOM      7  C   UNL     1       1.178   9.156  19.457  0.00  0.00    +0.000 A 
ATOM      8  N   UNL     1       0.576   8.825  20.647  0.00  0.00    +0.000 NA
ATOM      9  C   UNL     1       0.858   7.658  21.252  0.00  0.00    +0.000 A 
ATOM     10  N   UNL     1       1.730   6.718  20.868  0.00  0.00    +0.000 NA
ATOM     11  C   UNL     1       2.345   7.084  19.734  0.00  0.00    +0.000 A 
ATOM     12  C   UNL     1       2.153   8.239  18.992  0.00  0.00    +0.000 A 
ATOM     13  N   UNL     1       3.004   8.245  17.900  0.00  0.00    +0.000 NA
ATOM     14  C   UNL     1       3.687   7.120  17.968  0.00  0.00    +0.000 A 
ATOM     15  N   UNL     1       3.300   6.377  19.056  0.00  0.00    +0.000 N 
ATOM     16  C   UNL     1       3.808   5.073  19.419  0.00  0.00    +0.000 C 
ATOM     17  C   UNL     1       3.559   4.024  18.338  0.00  0.00    +0.000 C 
ATOM     18  C   UNL     1       4.499   4.127  17.132  0.00  0.00    +0.000 C 
ATOM     19  C   UNL     1       4.328   5.389  16.284  0.00  0.00    +0.000 C 
ATOM     20  C   UNL     1       4.730   6.672  17.007  0.00  0.00    +0.000 C 
ENDBRANCH   5   7
BRANCH   1  25
ATOM     21  N   UNL     1       5.468  15.608  20.479  0.00  0.00    +0.000 NA
ATOM     22  C   UNL     1       5.047  14.649  21.527  0.00  0.00    +0.000 C 
ATOM     23  C   UNL     1       3.549  14.240  21.544  0.00  0.00    +0.000 C 
ATOM     24  N   UNL     1       3.007  13.958  20.204  0.00  0.00    +0.000 N 
ATOM     25  C   UNL     1       1.997  13.002  20.069  0.00  0.00    +0.000 C 
ATOM     26  O   UNL     1       1.519  12.456  21.065  0.00  0.00    +0.000 OA
ATOM     27  C   UNL     1       3.397  14.933  19.186  0.00  0.00    +0.000 C 
ATOM     28  C   UNL     1       4.924  15.140  19.182  0.00  0.00    +0.000 C 
BRANCH  21  29
ATOM     29  C   UNL     1       5.076  17.003  20.724  0.00  0.00    +0.000 C 
BRANCH  29  31
ATOM     30  C   UNL     1       7.560  17.520  20.354  0.00  0.00    +0.000 C 
ATOM     31  C   UNL     1       6.151  18.074  20.498  0.00  0.00    +0.000 C 
ENDBRANCH  29  31
ENDBRANCH  21  29
ENDBRANCH   1  25
TORSDOF 4
ENDMDL
