MODEL 1
REMARK VINA RESULT:      -8.0      0.000      0.000
REMARK  Name = 
REMARK  5 active torsions:
REMARK  status: ('A' for Active; 'I' for Inactive)
REMARK    1  A    between atoms: C_1  and  C_2
REMARK    2  A    between atoms: C_2  and  O_4
REMARK    3  A    between atoms: O_4  and  C_5
REMARK    4  A    between atoms: N_12  and  C_13
REMARK    5  A    between atoms: C_13  and  C_14
REMARK                            x       y       z     vdW  Elec       q    Type
REMARK                         _______ _______ _______ _____ _____    ______ ____
ROOT
ATOM      1  C   UNL     1       6.686   6.158  17.202  0.00  0.00    +0.000 C 
ATOM      2  C   UNL     1       7.671   6.815  18.204  0.00  0.00    +0.000 C 
ATOM      3  C   UNL     1       7.334   5.650  19.134  0.00  0.00    +0.000 C 
ATOM      4  O   UNL     1       7.639   5.299  20.248  0.00  0.00    +0.000 OA
ATOM      5  N   UNL     1       6.497   5.103  18.203  0.00  0.00    +0.000 N 
ATOM      6  C   UNL     1       5.532   4.118  18.281  0.00  0.00    +0.000 C 
ATOM      7  O   UNL     1       4.785   3.854  17.353  0.00  0.00    +0.000 OA
ATOM      8  N   UNL     1       5.501   3.468  19.495  0.00  0.00    +0.000 N 
ATOM      9  H   UNL     1       5.817   3.996  20.302  0.00  0.00    +0.000 HD
ENDROOT
BRANCH   1  10
ATOM     10  O   UNL     1       7.258   5.767  15.934  0.00  0.00    +0.000 OA
BRANCH  10  12
ATOM     11  C   UNL     1       6.702   4.251  14.210  0.00  0.00    +0.000 C 
ATOM     12  C   UNL     1       6.338   5.493  14.966  0.00  0.00    +0.000 C 
ATOM     13  O   UNL     1       5.351   6.186  14.736  0.00  0.00    +0.000 OA
ENDBRANCH  10  12
ENDBRANCH   1  10
BRANCH   8  14
ATOM     14  C   UNL     1       4.573   2.385  19.757  0.00  0.00    +0.000 C 
BRANCH  14  15
ATOM     15  C   UNL     1       3.121   2.819  19.787  0.00  0.00    +0.000 A 
ATOM     16  C   UNL     1       2.194   2.151  18.969  0.00  0.00    +0.000 A 
ATOM     17  C   UNL     1       0.833   2.480  18.993  0.00  0.00    +0.000 A 
ATOM     18  C   UNL     1       0.378   3.478  19.855  0.00  0.00    +0.000 A 
ATOM     19  C   UNL     1       1.274   4.138  20.693  0.00  0.00    +0.000 A 
ATOM     20  C   UNL     1       2.639   3.806  20.663  0.00  0.00    +0.000 A 
ENDBRANCH  14  15
ENDBRANCH   8  14
TORSDOF 4
ENDMDL
MODEL 2
REMARK VINA RESULT:      -7.9      0.263      1.123
REMARK  Name = 
REMARK  5 active torsions:
REMARK  status: ('A' for Active; 'I' for Inactive)
REMARK    1  A    between atoms: C_1  and  C_2
REMARK    2  A    between atoms: C_2  and  O_4
REMARK    3  A    between atoms: O_4  and  C_5
REMARK    4  A    between atoms: N_12  and  C_13
REMARK    5  A    between atoms: C_13  and  C_14
REMARK                            x       y       z     vdW  Elec       q    Type
REMARK                         _______ _______ _______ _____ _____    ______ ____
ROOT
ATOM      1  C   UNL     1       6.736   6.219  17.197  0.00  0.00    +0.000 C 
ATOM      2  C   UNL     1       7.724   6.843  18.217  0.00  0.00    +0.000 C 
ATOM      3  C   UNL     1       7.363   5.666  19.123  0.00  0.00    +0.000 C 
ATOM      4  O   UNL     1       7.655   5.290  20.233  0.00  0.00    +0.000 OA
ATOM      5  N   UNL     1       6.524   5.149  18.176  0.00  0.00    +0.000 N 
ATOM      6  C   UNL     1       5.544   4.177  18.230  0.00  0.00    +0.000 C 
ATOM      7  O   UNL     1       4.799   3.942  17.292  0.00  0.00    +0.000 OA
ATOM      8  N   UNL     1       5.495   3.506  19.432  0.00  0.00    +0.000 N 
ATOM      9  H   UNL     1       5.813   4.014  20.250  0.00  0.00    +0.000 HD
ENDROOT
BRANCH   1  10
ATOM     10  O   UNL     1       7.311   5.842  15.925  0.00  0.00    +0.000 OA
BRANCH  10  12
ATOM     11  C   UNL     1       6.837   4.411  14.107  0.00  0.00    +0.000 C 
ATOM     12  C   UNL     1       6.393   5.562  14.957  0.00  0.00    +0.000 C 
ATOM     13  O   UNL     1       5.348   6.186  14.796  0.00  0.00    +0.000 OA
ENDBRANCH  10  12
ENDBRANCH   1  10
BRANCH   8  14
ATOM     14  C   UNL     1       4.549   2.433  19.668  0.00  0.00    +0.000 C 
BRANCH  14  15
ATOM     15  C   UNL     1       3.122   2.907  19.858  0.00  0.00    +0.000 A 
ATOM     16  C   UNL     1       2.887   4.080  20.595  0.00  0.00    +0.000 A 
ATOM     17  C   UNL     1       1.592   4.588  20.761  0.00  0.00    +0.000 A 
ATOM     18  C   UNL     1       0.512   3.931  20.171  0.00  0.00    +0.000 A 
ATOM     19  C   UNL     1       0.722   2.779  19.416  0.00  0.00    +0.000 A 
ATOM     20  C   UNL     1       2.022   2.273  19.255  0.00  0.00    +0.000 A 
ENDBRANCH  14  15
ENDBRANCH   8  14
TORSDOF 4
ENDMDL
MODEL 3
REMARK VINA RESULT:      -7.3      1.044      1.309
REMARK  Name = 
REMARK  5 active torsions:
REMARK  status: ('A' for Active; 'I' for Inactive)
REMARK    1  A    between atoms: C_1  and  C_2
REMARK    2  A    between atoms: C_2  and  O_4
REMARK    3  A    between atoms: O_4  and  C_5
REMARK    4  A    between atoms: N_12  and  C_13
REMARK    5  A    between atoms: C_13  and  C_14
REMARK                            x       y       z     vdW  Elec       q    Type
REMARK                         _______ _______ _______ _____ _____    ______ ____
ROOT
ATOM      1  C   UNL     1       6.899   5.631  16.492  0.00  0.00    +0.000 C 
ATOM      2  C   UNL     1       7.625   6.622  17.438  0.00  0.00    +0.000 C 
ATOM      3  C   UNL     1       7.195   5.690  18.570  0.00  0.00    +0.000 C 
ATOM      4  O   UNL     1       7.301   5.661  19.772  0.00  0.00    +0.000 OA
ATOM      5  N   UNL     1       6.591   4.839  17.687  0.00  0.00    +0.000 N 
ATOM      6  C   UNL     1       5.698   3.800  17.856  0.00  0.00    +0.000 C 
ATOM      7  O   UNL     1       5.163   3.233  16.917  0.00  0.00    +0.000 OA
ATOM      8  N   UNL     1       5.477   3.468  19.175  0.00  0.00    +0.000 N 
ATOM      9  H   UNL     1       5.594   4.211  19.856  0.00  0.00    +0.000 HD
ENDROOT
BRANCH   1  10
ATOM     10  O   UNL     1       7.730   5.008  15.487  0.00  0.00    +0.000 OA
BRANCH  10  12
ATOM     11  C   UNL     1       6.023   4.160  14.092  0.00  0.00    +0.000 C 
ATOM     12  C   UNL     1       7.215   5.058  14.225  0.00  0.00    +0.000 C 
ATOM     13  O   UNL     1       7.681   5.740  13.316  0.00  0.00    +0.000 OA
ENDBRANCH  10  12
ENDBRANCH   1  10
BRANCH   8  14
ATOM     14  C   UNL     1       4.590   2.384  19.551  0.00  0.00    +0.000 C 
BRANCH  14  15
ATOM     15  C   UNL     1       3.163   2.824  19.812  0.00  0.00    +0.000 A 
ATOM     16  C   UNL     1       2.637   2.694  21.108  0.00  0.00    +0.000 A 
ATOM     17  C   UNL     1       1.342   3.129  21.414  0.00  0.00    +0.000 A 
ATOM     18  C   UNL     1       0.558   3.718  20.421  0.00  0.00    +0.000 A 
ATOM     19  C   UNL     1       1.066   3.879  19.134  0.00  0.00    +0.000 A 
ATOM     20  C   UNL     1       2.365   3.439  18.832  0.00  0.00    +0.000 A 
ENDBRANCH  14  15
ENDBRANCH   8  14
TORSDOF 4
ENDMDL
MODEL 4
REMARK VINA RESULT:      -7.2      1.220      1.726
REMARK  Name = 
REMARK  5 active torsions:
REMARK  status: ('A' for Active; 'I' for Inactive)
REMARK    1  A    between atoms: C_1  and  C_2
REMARK    2  A    between atoms: C_2  and  O_4
REMARK    3  A    between atoms: O_4  and  C_5
REMARK    4  A    between atoms: N_12  and  C_13
REMARK    5  A    between atoms: C_13  and  C_14
REMARK                            x       y       z     vdW  Elec       q    Type
REMARK                         _______ _______ _______ _____ _____    ______ ____
ROOT
ATOM      1  C   UNL     1       5.760   6.170  16.373  0.00  0.00    +0.000 C 
ATOM      2  C   UNL     1       7.089   6.439  17.127  0.00  0.00    +0.000 C 
ATOM      3  C   UNL     1       6.871   5.073  17.778  0.00  0.00    +0.000 C 
ATOM      4  O   UNL     1       7.437   4.390  18.597  0.00  0.00    +0.000 OA
ATOM      5  N   UNL     1       5.720   4.880  17.068  0.00  0.00    +0.000 N 
ATOM      6  C   UNL     1       4.683   3.977  17.201  0.00  0.00    +0.000 C 
ATOM      7  O   UNL     1       3.661   4.047  16.539  0.00  0.00    +0.000 OA
ATOM      8  N   UNL     1       4.917   3.000  18.144  0.00  0.00    +0.000 N 
ATOM      9  H   UNL     1       5.537   3.245  18.909  0.00  0.00    +0.000 HD
ENDROOT
BRANCH   1  10
ATOM     10  O   UNL     1       5.859   6.137  14.931  0.00  0.00    +0.000 OA
BRANCH  10  12
ATOM     11  C   UNL     1       6.058   4.018  13.907  0.00  0.00    +0.000 C 
ATOM     12  C   UNL     1       6.755   5.227  14.452  0.00  0.00    +0.000 C 
ATOM     13  O   UNL     1       7.973   5.377  14.483  0.00  0.00    +0.000 OA
ENDBRANCH  10  12
ENDBRANCH   1  10
BRANCH   8  14
ATOM     14  C   UNL     1       3.955   1.948  18.407  0.00  0.00    +0.000 C 
BRANCH  14  15
ATOM     15  C   UNL     1       2.903   2.324  19.432  0.00  0.00    +0.000 A 
ATOM     16  C   UNL     1       3.282   2.463  20.777  0.00  0.00    +0.000 A 
ATOM     17  C   UNL     1       2.360   2.855  21.756  0.00  0.00    +0.000 A 
ATOM     18  C   UNL     1       1.042   3.130  21.393  0.00  0.00    +0.000 A 
ATOM     19  C   UNL     1       0.647   3.021  20.061  0.00  0.00    +0.000 A 
ATOM     20  C   UNL     1       1.575   2.625  19.084  0.00  0.00    +0.000 A 
ENDBRANCH  14  15
ENDBRANCH   8  14
TORSDOF 4
ENDMDL
MODEL 5
REMARK VINA RESULT:      -7.1      1.618      1.752
REMARK  Name = 
REMARK  5 active torsions:
REMARK  status: ('A' for Active; 'I' for Inactive)
REMARK    1  A    between atoms: C_1  and  C_2
REMARK    2  A    between atoms: C_2  and  O_4
REMARK    3  A    between atoms: O_4  and  C_5
REMARK    4  A    between atoms: N_12  and  C_13
REMARK    5  A    between atoms: C_13  and  C_14
REMARK                            x       y       z     vdW  Elec       q    Type
REMARK                         _______ _______ _______ _____ _____    ______ ____
ROOT
ATOM      1  C   UNL     1       7.008   5.513  16.860  0.00  0.00    +0.000 C 
ATOM      2  C   UNL     1       8.154   5.502  17.906  0.00  0.00    +0.000 C 
ATOM      3  C   UNL     1       7.046   5.464  18.959  0.00  0.00    +0.000 C 
ATOM      4  O   UNL     1       6.981   5.458  20.165  0.00  0.00    +0.000 OA
ATOM      5  N   UNL     1       6.080   5.451  17.993  0.00  0.00    +0.000 N 
ATOM      6  C   UNL     1       4.717   5.669  18.035  0.00  0.00    +0.000 C 
ATOM      7  O   UNL     1       4.031   5.743  17.029  0.00  0.00    +0.000 OA
ATOM      8  N   UNL     1       4.214   5.788  19.313  0.00  0.00    +0.000 N 
ATOM      9  H   UNL     1       4.851   6.138  20.021  0.00  0.00    +0.000 HD
ENDROOT
BRANCH   1  10
ATOM     10  O   UNL     1       6.997   4.400  15.939  0.00  0.00    +0.000 OA
BRANCH  10  12
ATOM     11  C   UNL     1       5.995   4.017  13.834  0.00  0.00    +0.000 C 
ATOM     12  C   UNL     1       7.028   4.761  14.624  0.00  0.00    +0.000 C 
ATOM     13  O   UNL     1       7.815   5.576  14.152  0.00  0.00    +0.000 OA
ENDBRANCH  10  12
ENDBRANCH   1  10
BRANCH   8  14
ATOM     14  C   UNL     1       2.800   5.993  19.560  0.00  0.00    +0.000 C 
BRANCH  14  15
ATOM     15  C   UNL     1       2.017   4.707  19.729  0.00  0.00    +0.000 A 
ATOM     16  C   UNL     1       1.502   4.069  18.588  0.00  0.00    +0.000 A 
ATOM     17  C   UNL     1       0.811   2.854  18.683  0.00  0.00    +0.000 A 
ATOM     18  C   UNL     1       0.643   2.251  19.930  0.00  0.00    +0.000 A 
ATOM     19  C   UNL     1       1.164   2.853  21.073  0.00  0.00    +0.000 A 
ATOM     20  C   UNL     1       1.854   4.072  20.972  0.00  0.00    +0.000 A 
ENDBRANCH  14  15
ENDBRANCH   8  14
TORSDOF 4
ENDMDL
MODEL 6
REMARK VINA RESULT:      -7.1      1.873      3.294
REMARK  Name = 
REMARK  5 active torsions:
REMARK  status: ('A' for Active; 'I' for Inactive)
REMARK    1  A    between atoms: C_1  and  C_2
REMARK    2  A    between atoms: C_2  and  O_4
REMARK    3  A    between atoms: O_4  and  C_5
REMARK    4  A    between atoms: N_12  and  C_13
REMARK    5  A    between atoms: C_13  and  C_14
REMARK                            x       y       z     vdW  Elec       q    Type
REMARK                         _______ _______ _______ _____ _____    ______ ____
ROOT
ATOM      1  C   UNL     1       7.054   5.496  16.804  0.00  0.00    +0.000 C 
ATOM      2  C   UNL     1       7.121   4.611  15.532  0.00  0.00    +0.000 C 
ATOM      3  C   UNL     1       5.594   4.609  15.584  0.00  0.00    +0.000 C 
ATOM      4  O   UNL     1       4.694   4.115  14.947  0.00  0.00    +0.000 OA
ATOM      5  N   UNL     1       5.595   5.410  16.691  0.00  0.00    +0.000 N 
ATOM      6  C   UNL     1       4.614   5.737  17.606  0.00  0.00    +0.000 C 
ATOM      7  O   UNL     1       4.846   6.377  18.619  0.00  0.00    +0.000 OA
ATOM      8  N   UNL     1       3.361   5.277  17.263  0.00  0.00    +0.000 N 
ATOM      9  H   UNL     1       3.325   4.440  16.691  0.00  0.00    +0.000 HD
ENDROOT
BRANCH   1  10
ATOM     10  O   UNL     1       7.647   6.809  16.681  0.00  0.00    +0.000 OA
BRANCH  10  12
ATOM     11  C   UNL     1       7.951   8.896  17.744  0.00  0.00    +0.000 C 
ATOM     12  C   UNL     1       7.944   7.403  17.872  0.00  0.00    +0.000 C 
ATOM     13  O   UNL     1       8.190   6.789  18.906  0.00  0.00    +0.000 OA
ENDBRANCH  10  12
ENDBRANCH   1  10
BRANCH   8  14
ATOM     14  C   UNL     1       2.198   5.545  18.087  0.00  0.00    +0.000 C 
BRANCH  14  15
ATOM     15  C   UNL     1       1.982   4.525  19.188  0.00  0.00    +0.000 A 
ATOM     16  C   UNL     1       1.527   3.241  18.846  0.00  0.00    +0.000 A 
ATOM     17  C   UNL     1       1.356   2.247  19.818  0.00  0.00    +0.000 A 
ATOM     18  C   UNL     1       1.657   2.526  21.152  0.00  0.00    +0.000 A 
ATOM     19  C   UNL     1       2.132   3.785  21.512  0.00  0.00    +0.000 A 
ATOM     20  C   UNL     1       2.299   4.779  20.533  0.00  0.00    +0.000 A 
ENDBRANCH  14  15
ENDBRANCH   8  14
TORSDOF 4
ENDMDL
MODEL 7
REMARK VINA RESULT:      -7.1      1.360      2.903
REMARK  Name = 
REMARK  5 active torsions:
REMARK  status: ('A' for Active; 'I' for Inactive)
REMARK    1  A    between atoms: C_1  and  C_2
REMARK    2  A    between atoms: C_2  and  O_4
REMARK    3  A    between atoms: O_4  and  C_5
REMARK    4  A    between atoms: N_12  and  C_13
REMARK    5  A    between atoms: C_13  and  C_14
REMARK                            x       y       z     vdW  Elec       q    Type
REMARK                         _______ _______ _______ _____ _____    ______ ____
ROOT
ATOM      1  C   UNL     1       7.235   5.806  16.785  0.00  0.00    +0.000 C 
ATOM      2  C   UNL     1       7.244   5.172  15.368  0.00  0.00    +0.000 C 
ATOM      3  C   UNL     1       6.250   4.158  15.933  0.00  0.00    +0.000 C 
ATOM      4  O   UNL     1       5.663   3.184  15.527  0.00  0.00    +0.000 OA
ATOM      5  N   UNL     1       6.263   4.772  17.153  0.00  0.00    +0.000 N 
ATOM      6  C   UNL     1       5.818   4.378  18.400  0.00  0.00    +0.000 C 
ATOM      7  O   UNL     1       6.040   5.023  19.412  0.00  0.00    +0.000 OA
ATOM      8  N   UNL     1       5.105   3.199  18.387  0.00  0.00    +0.000 N 
ATOM      9  H   UNL     1       5.328   2.541  17.647  0.00  0.00    +0.000 HD
ENDROOT
BRANCH   1  10
ATOM     10  O   UNL     1       6.790   7.180  16.848  0.00  0.00    +0.000 OA
BRANCH  10  12
ATOM     11  C   UNL     1       8.302   7.249  18.661  0.00  0.00    +0.000 C 
ATOM     12  C   UNL     1       7.609   8.000  17.565  0.00  0.00    +0.000 C 
ATOM     13  O   UNL     1       7.744   9.201  17.348  0.00  0.00    +0.000 OA
ENDBRANCH  10  12
ENDBRANCH   1  10
BRANCH   8  14
ATOM     14  C   UNL     1       4.535   2.638  19.597  0.00  0.00    +0.000 C 
BRANCH  14  15
ATOM     15  C   UNL     1       3.033   2.811  19.701  0.00  0.00    +0.000 A 
ATOM     16  C   UNL     1       2.515   3.713  20.645  0.00  0.00    +0.000 A 
ATOM     17  C   UNL     1       1.138   3.945  20.750  0.00  0.00    +0.000 A 
ATOM     18  C   UNL     1       0.258   3.283  19.893  0.00  0.00    +0.000 A 
ATOM     19  C   UNL     1       0.750   2.401  18.933  0.00  0.00    +0.000 A 
ATOM     20  C   UNL     1       2.132   2.170  18.834  0.00  0.00    +0.000 A 
ENDBRANCH  14  15
ENDBRANCH   8  14
TORSDOF 4
ENDMDL
MODEL 8
REMARK VINA RESULT:      -7.0      1.979      3.364
REMARK  Name = 
REMARK  5 active torsions:
REMARK  status: ('A' for Active; 'I' for Inactive)
REMARK    1  A    between atoms: C_1  and  C_2
REMARK    2  A    between atoms: C_2  and  O_4
REMARK    3  A    between atoms: O_4  and  C_5
REMARK    4  A    between atoms: N_12  and  C_13
REMARK    5  A    between atoms: C_13  and  C_14
REMARK                            x       y       z     vdW  Elec       q    Type
REMARK                         _______ _______ _______ _____ _____    ______ ____
ROOT
ATOM      1  C   UNL     1       7.058   5.658  16.832  0.00  0.00    +0.000 C 
ATOM      2  C   UNL     1       7.253   4.640  15.678  0.00  0.00    +0.000 C 
ATOM      3  C   UNL     1       5.732   4.492  15.696  0.00  0.00    +0.000 C 
ATOM      4  O   UNL     1       4.906   3.840  15.104  0.00  0.00    +0.000 OA
ATOM      5  N   UNL     1       5.619   5.414  16.698  0.00  0.00    +0.000 N 
ATOM      6  C   UNL     1       4.580   5.747  17.545  0.00  0.00    +0.000 C 
ATOM      7  O   UNL     1       4.715   6.522  18.478  0.00  0.00    +0.000 OA
ATOM      8  N   UNL     1       3.390   5.128  17.233  0.00  0.00    +0.000 N 
ATOM      9  H   UNL     1       3.453   4.230  16.765  0.00  0.00    +0.000 HD
ENDROOT
BRANCH   1  10
ATOM     10  O   UNL     1       7.526   6.999  16.564  0.00  0.00    +0.000 OA
BRANCH  10  12
ATOM     11  C   UNL     1       8.161   6.780  18.829  0.00  0.00    +0.000 C 
ATOM     12  C   UNL     1       7.886   7.699  17.678  0.00  0.00    +0.000 C 
ATOM     13  O   UNL     1       7.956   8.924  17.729  0.00  0.00    +0.000 OA
ENDBRANCH  10  12
ENDBRANCH   1  10
BRANCH   8  14
ATOM     14  C   UNL     1       2.180   5.374  17.993  0.00  0.00    +0.000 C 
BRANCH  14  15
ATOM     15  C   UNL     1       1.954   4.384  19.119  0.00  0.00    +0.000 A 
ATOM     16  C   UNL     1       2.370   4.723  20.417  0.00  0.00    +0.000 A 
ATOM     17  C   UNL     1       2.143   3.866  21.501  0.00  0.00    +0.000 A 
ATOM     18  C   UNL     1       1.476   2.658  21.299  0.00  0.00    +0.000 A 
ATOM     19  C   UNL     1       1.033   2.310  20.025  0.00  0.00    +0.000 A 
ATOM     20  C   UNL     1       1.266   3.172  18.941  0.00  0.00    +0.000 A 
ENDBRANCH  14  15
ENDBRANCH   8  14
TORSDOF 4
ENDMDL
MODEL 9
REMARK VINA RESULT:      -7.0      1.763      2.022
REMARK  Name = 
REMARK  5 active torsions:
REMARK  status: ('A' for Active; 'I' for Inactive)
REMARK    1  A    between atoms: C_1  and  C_2
REMARK    2  A    between atoms: C_2  and  O_4
REMARK    3  A    between atoms: O_4  and  C_5
REMARK    4  A    between atoms: N_12  and  C_13
REMARK    5  A    between atoms: C_13  and  C_14
REMARK                            x       y       z     vdW  Elec       q    Type
REMARK                         _______ _______ _______ _____ _____    ______ ____
ROOT
ATOM      1  C   UNL     1       7.212   6.824  17.210  0.00  0.00    +0.000 C 
ATOM      2  C   UNL     1       8.142   6.330  18.349  0.00  0.00    +0.000 C 
ATOM      3  C   UNL     1       6.869   5.814  19.018  0.00  0.00    +0.000 C 
ATOM      4  O   UNL     1       6.584   5.253  20.049  0.00  0.00    +0.000 OA
ATOM      5  N   UNL     1       6.102   6.249  17.975  0.00  0.00    +0.000 N 
ATOM      6  C   UNL     1       4.740   6.426  17.829  0.00  0.00    +0.000 C 
ATOM      7  O   UNL     1       4.247   6.957  16.847  0.00  0.00    +0.000 OA
ATOM      8  N   UNL     1       4.002   5.945  18.889  0.00  0.00    +0.000 N 
ATOM      9  H   UNL     1       4.463   5.927  19.793  0.00  0.00    +0.000 HD
ENDROOT
BRANCH   1  10
ATOM     10  O   UNL     1       7.474   6.260  15.905  0.00  0.00    +0.000 OA
BRANCH  10  12
ATOM     11  C   UNL     1       6.071   4.663  14.875  0.00  0.00    +0.000 C 
ATOM     12  C   UNL     1       7.212   4.925  15.810  0.00  0.00    +0.000 C 
ATOM     13  O   UNL     1       7.824   4.057  16.427  0.00  0.00    +0.000 OA
ENDBRANCH  10  12
ENDBRANCH   1  10
BRANCH   8  14
ATOM     14  C   UNL     1       2.554   6.016  18.905  0.00  0.00    +0.000 C 
BRANCH  14  15
ATOM     15  C   UNL     1       1.881   4.696  19.227  0.00  0.00    +0.000 A 
ATOM     16  C   UNL     1       1.702   3.756  18.199  0.00  0.00    +0.000 A 
ATOM     17  C   UNL     1       1.129   2.503  18.451  0.00  0.00    +0.000 A 
ATOM     18  C   UNL     1       0.742   2.169  19.749  0.00  0.00    +0.000 A 
ATOM     19  C   UNL     1       0.931   3.076  20.789  0.00  0.00    +0.000 A 
ATOM     20  C   UNL     1       1.504   4.332  20.530  0.00  0.00    +0.000 A 
ENDBRANCH  14  15
ENDBRANCH   8  14
TORSDOF 4
ENDMDL
