MODEL 1
REMARK VINA RESULT:      -6.9      0.000      0.000
REMARK  Name = 
REMARK  20 active torsions:
REMARK  status: ('A' for Active; 'I' for Inactive)
REMARK    1  A    between atoms: C_1  and  C_2
REMARK    2  A    between atoms: C_2  and  C_3
REMARK    3  A    between atoms: C_3  and  C_4
REMARK    4  A    between atoms: C_4  and  C_5
REMARK    5  A    between atoms: C_5  and  C_6
REMARK    6  A    between atoms: C_6  and  C_7
REMARK    7  A    between atoms: C_7  and  C_8
REMARK    8  A    between atoms: C_7  and  S_9
REMARK    9  A    between atoms: C_7  and  C_25
REMARK   10  A    between atoms: S_9  and  C_10
REMARK   11  A    between atoms: C_12  and  C_13
REMARK   12  A    between atoms: C_13  and  C_14
REMARK   13  A    between atoms: C_13  and  C_15
REMARK   14  A    between atoms: C_13  and  C_16
REMARK   15  A    between atoms: C_17  and  O_18
REMARK   16  A    between atoms: C_19  and  C_20
REMARK   17  A    between atoms: C_20  and  C_21
REMARK   18  A    between atoms: C_20  and  C_22
REMARK   19  A    between atoms: C_20  and  C_23
REMARK   20  A    between atoms: C_25  and  O_27
REMARK                            x       y       z     vdW  Elec       q    Type
REMARK                         _______ _______ _______ _____ _____    ______ ____
ROOT
ATOM      1  C   UNL     1       3.903   6.415  17.491  0.00  0.00    +0.000 A 
ATOM      2  C   UNL     1       3.182   7.590  17.673  0.00  0.00    +0.000 A 
ATOM      3  C   UNL     1       2.242   7.787  18.693  0.00  0.00    +0.000 A 
ATOM      4  C   UNL     1       2.023   6.684  19.548  0.00  0.00    +0.000 A 
ATOM      5  C   UNL     1       2.614   5.413  19.341  0.00  0.00    +0.000 A 
ATOM      6  C   UNL     1       3.573   5.323  18.304  0.00  0.00    +0.000 A 
ENDROOT
BRANCH   3   7
ATOM      7  C   UNL     1       1.510   9.151  18.780  0.00  0.00    +0.000 C 
ATOM      8  C   UNL     1       2.314  10.340  18.166  0.00  0.00    +0.000 C 
ATOM      9  C   UNL     1       0.198   9.093  17.969  0.00  0.00    +0.000 C 
ATOM     10  C   UNL     1       1.222   9.556  20.238  0.00  0.00    +0.000 C 
ENDBRANCH   3   7
BRANCH   5  11
ATOM     11  C   UNL     1       2.218   4.167  20.178  0.00  0.00    +0.000 C 
ATOM     12  C   UNL     1       3.086   2.944  19.785  0.00  0.00    +0.000 C 
ATOM     13  C   UNL     1       2.433   4.348  21.704  0.00  0.00    +0.000 C 
ATOM     14  C   UNL     1       0.726   3.817  19.990  0.00  0.00    +0.000 C 
ENDBRANCH   5  11
BRANCH   4  15
ATOM     15  O   UNL     1       1.248   6.854  20.656  0.00  0.00    +0.000 OA
ATOM     16  H   UNL     1       0.351   7.042  20.352  0.00  0.00    +0.000 HD
ENDBRANCH   4  15
BRANCH   1  17
ATOM     17  S   UNL     1       5.205   6.216  16.266  0.00  0.00    +0.000 S 
BRANCH  17  18
ATOM     18  C   UNL     1       6.844   6.127  17.203  0.00  0.00    +0.000 C 
ATOM     19  C   UNL     1       6.495   5.923  18.692  0.00  0.00    +0.000 C 
BRANCH  18  20
ATOM     20  C   UNL     1       7.600   4.837  16.820  0.00  0.00    +0.000 C 
ATOM     21  O   UNL     1       8.212   4.140  17.617  0.00  0.00    +0.000 OA
BRANCH  20  22
ATOM     22  O   UNL     1       7.496   4.487  15.515  0.00  0.00    +0.000 OA
ATOM     23  H   UNL     1       6.557   4.431  15.233  0.00  0.00    +0.000 HD
ENDBRANCH  20  22
ENDBRANCH  18  20
BRANCH  18  24
ATOM     24  C   UNL     1       7.737   7.394  17.031  0.00  0.00    +0.000 C 
BRANCH  24  25
ATOM     25  C   UNL     1       8.113   8.128  18.326  0.00  0.00    +0.000 C 
BRANCH  25  26
ATOM     26  C   UNL     1       8.475   9.601  18.094  0.00  0.00    +0.000 C 
BRANCH  26  27
ATOM     27  C   UNL     1       9.287  10.107  19.288  0.00  0.00    +0.000 C 
BRANCH  27  29
ATOM     28  C   UNL     1      10.309  11.910  17.895  0.00  0.00    +0.000 C 
ATOM     29  C   UNL     1       9.621  11.594  19.216  0.00  0.00    +0.000 C 
ENDBRANCH  27  29
ENDBRANCH  26  27
ENDBRANCH  25  26
ENDBRANCH  24  25
ENDBRANCH  18  24
ENDBRANCH  17  18
ENDBRANCH   1  17
TORSDOF 12
ENDMDL
MODEL 2
REMARK VINA RESULT:      -6.8      0.335      1.384
REMARK  Name = 
REMARK  20 active torsions:
REMARK  status: ('A' for Active; 'I' for Inactive)
REMARK    1  A    between atoms: C_1  and  C_2
REMARK    2  A    between atoms: C_2  and  C_3
REMARK    3  A    between atoms: C_3  and  C_4
REMARK    4  A    between atoms: C_4  and  C_5
REMARK    5  A    between atoms: C_5  and  C_6
REMARK    6  A    between atoms: C_6  and  C_7
REMARK    7  A    between atoms: C_7  and  C_8
REMARK    8  A    between atoms: C_7  and  S_9
REMARK    9  A    between atoms: C_7  and  C_25
REMARK   10  A    between atoms: S_9  and  C_10
REMARK   11  A    between atoms: C_12  and  C_13
REMARK   12  A    between atoms: C_13  and  C_14
REMARK   13  A    between atoms: C_13  and  C_15
REMARK   14  A    between atoms: C_13  and  C_16
REMARK   15  A    between atoms: C_17  and  O_18
REMARK   16  A    between atoms: C_19  and  C_20
REMARK   17  A    between atoms: C_20  and  C_21
REMARK   18  A    between atoms: C_20  and  C_22
REMARK   19  A    between atoms: C_20  and  C_23
REMARK   20  A    between atoms: C_25  and  O_27
REMARK                            x       y       z     vdW  Elec       q    Type
REMARK                         _______ _______ _______ _____ _____    ______ ____
ROOT
ATOM      1  C   UNL     1       3.870   6.438  17.506  0.00  0.00    +0.000 A 
ATOM      2  C   UNL     1       3.166   7.610  17.756  0.00  0.00    +0.000 A 
ATOM      3  C   UNL     1       2.233   7.763  18.789  0.00  0.00    +0.000 A 
ATOM      4  C   UNL     1       2.003   6.618  19.584  0.00  0.00    +0.000 A 
ATOM      5  C   UNL     1       2.577   5.353  19.305  0.00  0.00    +0.000 A 
ATOM      6  C   UNL     1       3.530   5.307  18.260  0.00  0.00    +0.000 A 
ENDROOT
BRANCH   3   7
ATOM      7  C   UNL     1       1.519   9.129  18.955  0.00  0.00    +0.000 C 
ATOM      8  C   UNL     1       0.085   9.171  18.337  0.00  0.00    +0.000 C 
ATOM      9  C   UNL     1       1.317   9.436  20.454  0.00  0.00    +0.000 C 
ATOM     10  C   UNL     1       2.296  10.270  18.274  0.00  0.00    +0.000 C 
ENDBRANCH   3   7
BRANCH   5  11
ATOM     11  C   UNL     1       2.167   4.067  20.073  0.00  0.00    +0.000 C 
ATOM     12  C   UNL     1       0.645   3.805  19.933  0.00  0.00    +0.000 C 
ATOM     13  C   UNL     1       2.853   2.781  19.543  0.00  0.00    +0.000 C 
ATOM     14  C   UNL     1       2.533   4.167  21.569  0.00  0.00    +0.000 C 
ENDBRANCH   5  11
BRANCH   4  15
ATOM     15  O   UNL     1       1.235   6.736  20.703  0.00  0.00    +0.000 OA
ATOM     16  H   UNL     1       1.118   5.849  21.066  0.00  0.00    +0.000 HD
ENDBRANCH   4  15
BRANCH   1  17
ATOM     17  S   UNL     1       5.165   6.290  16.266  0.00  0.00    +0.000 S 
BRANCH  17  18
ATOM     18  C   UNL     1       6.810   6.156  17.189  0.00  0.00    +0.000 C 
ATOM     19  C   UNL     1       6.469   5.977  18.683  0.00  0.00    +0.000 C 
BRANCH  18  20
ATOM     20  C   UNL     1       7.519   4.838  16.811  0.00  0.00    +0.000 C 
ATOM     21  O   UNL     1       7.842   4.538  15.670  0.00  0.00    +0.000 OA
BRANCH  20  22
ATOM     22  O   UNL     1       7.816   4.035  17.861  0.00  0.00    +0.000 OA
ATOM     23  H   UNL     1       7.768   4.524  18.711  0.00  0.00    +0.000 HD
ENDBRANCH  20  22
ENDBRANCH  18  20
BRANCH  18  24
ATOM     24  C   UNL     1       7.742   7.392  16.997  0.00  0.00    +0.000 C 
BRANCH  24  25
ATOM     25  C   UNL     1       8.209   8.083  18.285  0.00  0.00    +0.000 C 
BRANCH  25  26
ATOM     26  C   UNL     1       8.324   9.606  18.137  0.00  0.00    +0.000 C 
BRANCH  26  27
ATOM     27  C   UNL     1       9.235  10.145  19.243  0.00  0.00    +0.000 C 
BRANCH  27  29
ATOM     28  C   UNL     1       9.569  12.547  18.647  0.00  0.00    +0.000 C 
ATOM     29  C   UNL     1      10.240  11.184  18.756  0.00  0.00    +0.000 C 
ENDBRANCH  27  29
ENDBRANCH  26  27
ENDBRANCH  25  26
ENDBRANCH  24  25
ENDBRANCH  18  24
ENDBRANCH  17  18
ENDBRANCH   1  17
TORSDOF 12
ENDMDL
MODEL 3
REMARK VINA RESULT:      -6.8      2.485      4.642
REMARK  Name = 
REMARK  20 active torsions:
REMARK  status: ('A' for Active; 'I' for Inactive)
REMARK    1  A    between atoms: C_1  and  C_2
REMARK    2  A    between atoms: C_2  and  C_3
REMARK    3  A    between atoms: C_3  and  C_4
REMARK    4  A    between atoms: C_4  and  C_5
REMARK    5  A    between atoms: C_5  and  C_6
REMARK    6  A    between atoms: C_6  and  C_7
REMARK    7  A    between atoms: C_7  and  C_8
REMARK    8  A    between atoms: C_7  and  S_9
REMARK    9  A    between atoms: C_7  and  C_25
REMARK   10  A    between atoms: S_9  and  C_10
REMARK   11  A    between atoms: C_12  and  C_13
REMARK   12  A    between atoms: C_13  and  C_14
REMARK   13  A    between atoms: C_13  and  C_15
REMARK   14  A    between atoms: C_13  and  C_16
REMARK   15  A    between atoms: C_17  and  O_18
REMARK   16  A    between atoms: C_19  and  C_20
REMARK   17  A    between atoms: C_20  and  C_21
REMARK   18  A    between atoms: C_20  and  C_22
REMARK   19  A    between atoms: C_20  and  C_23
REMARK   20  A    between atoms: C_25  and  O_27
REMARK                            x       y       z     vdW  Elec       q    Type
REMARK                         _______ _______ _______ _____ _____    ______ ____
ROOT
ATOM      1  C   UNL     1       3.609   6.239  17.977  0.00  0.00    +0.000 A 
ATOM      2  C   UNL     1       2.924   7.194  18.718  0.00  0.00    +0.000 A 
ATOM      3  C   UNL     1       2.012   6.895  19.739  0.00  0.00    +0.000 A 
ATOM      4  C   UNL     1       1.784   5.520  19.974  0.00  0.00    +0.000 A 
ATOM      5  C   UNL     1       2.337   4.494  19.169  0.00  0.00    +0.000 A 
ATOM      6  C   UNL     1       3.269   4.895  18.184  0.00  0.00    +0.000 A 
ENDROOT
BRANCH   3   7
ATOM      7  C   UNL     1       1.317   8.061  20.487  0.00  0.00    +0.000 C 
ATOM      8  C   UNL     1       2.057   8.506  21.789  0.00  0.00    +0.000 C 
ATOM      9  C   UNL     1       1.294   9.317  19.591  0.00  0.00    +0.000 C 
ATOM     10  C   UNL     1      -0.111   7.691  20.929  0.00  0.00    +0.000 C 
ENDBRANCH   3   7
BRANCH   5  11
ATOM     11  C   UNL     1       1.926   3.004  19.324  0.00  0.00    +0.000 C 
ATOM     12  C   UNL     1       2.940   2.078  18.606  0.00  0.00    +0.000 C 
ATOM     13  C   UNL     1       1.900   2.517  20.797  0.00  0.00    +0.000 C 
ATOM     14  C   UNL     1       0.512   2.750  18.760  0.00  0.00    +0.000 C 
ENDBRANCH   5  11
BRANCH   4  15
ATOM     15  O   UNL     1       1.038   5.152  21.053  0.00  0.00    +0.000 OA
ATOM     16  H   UNL     1       0.362   4.538  20.738  0.00  0.00    +0.000 HD
ENDBRANCH   4  15
BRANCH   1  17
ATOM     17  S   UNL     1       4.878   6.631  16.764  0.00  0.00    +0.000 S 
BRANCH  17  18
ATOM     18  C   UNL     1       6.410   5.617  17.212  0.00  0.00    +0.000 C 
ATOM     19  C   UNL     1       7.596   6.603  17.267  0.00  0.00    +0.000 C 
BRANCH  18  20
ATOM     20  C   UNL     1       6.293   5.097  18.660  0.00  0.00    +0.000 C 
ATOM     21  O   UNL     1       6.338   5.814  19.650  0.00  0.00    +0.000 OA
BRANCH  20  22
ATOM     22  O   UNL     1       6.080   3.763  18.767  0.00  0.00    +0.000 OA
ATOM     23  H   UNL     1       6.287   3.299  17.926  0.00  0.00    +0.000 HD
ENDBRANCH  20  22
ENDBRANCH  18  20
BRANCH  18  24
ATOM     24  C   UNL     1       6.719   4.465  16.206  0.00  0.00    +0.000 C 
BRANCH  24  25
ATOM     25  C   UNL     1       6.704   4.853  14.721  0.00  0.00    +0.000 C 
BRANCH  25  26
ATOM     26  C   UNL     1       5.700   4.032  13.900  0.00  0.00    +0.000 C 
BRANCH  26  27
ATOM     27  C   UNL     1       6.340   3.660  12.560  0.00  0.00    +0.000 C 
BRANCH  27  29
ATOM     28  C   UNL     1       4.238   3.165  11.307  0.00  0.00    +0.000 C 
ATOM     29  C   UNL     1       5.567   2.597  11.787  0.00  0.00    +0.000 C 
ENDBRANCH  27  29
ENDBRANCH  26  27
ENDBRANCH  25  26
ENDBRANCH  24  25
ENDBRANCH  18  24
ENDBRANCH  17  18
ENDBRANCH   1  17
TORSDOF 12
ENDMDL
MODEL 4
REMARK VINA RESULT:      -6.7      0.473      1.464
REMARK  Name = 
REMARK  20 active torsions:
REMARK  status: ('A' for Active; 'I' for Inactive)
REMARK    1  A    between atoms: C_1  and  C_2
REMARK    2  A    between atoms: C_2  and  C_3
REMARK    3  A    between atoms: C_3  and  C_4
REMARK    4  A    between atoms: C_4  and  C_5
REMARK    5  A    between atoms: C_5  and  C_6
REMARK    6  A    between atoms: C_6  and  C_7
REMARK    7  A    between atoms: C_7  and  C_8
REMARK    8  A    between atoms: C_7  and  S_9
REMARK    9  A    between atoms: C_7  and  C_25
REMARK   10  A    between atoms: S_9  and  C_10
REMARK   11  A    between atoms: C_12  and  C_13
REMARK   12  A    between atoms: C_13  and  C_14
REMARK   13  A    between atoms: C_13  and  C_15
REMARK   14  A    between atoms: C_13  and  C_16
REMARK   15  A    between atoms: C_17  and  O_18
REMARK   16  A    between atoms: C_19  and  C_20
REMARK   17  A    between atoms: C_20  and  C_21
REMARK   18  A    between atoms: C_20  and  C_22
REMARK   19  A    between atoms: C_20  and  C_23
REMARK   20  A    between atoms: C_25  and  O_27
REMARK                            x       y       z     vdW  Elec       q    Type
REMARK                         _______ _______ _______ _____ _____    ______ ____
ROOT
ATOM      1  C   UNL     1       4.002   6.677  17.601  0.00  0.00    +0.000 A 
ATOM      2  C   UNL     1       3.225   7.816  17.774  0.00  0.00    +0.000 A 
ATOM      3  C   UNL     1       2.197   7.931  18.720  0.00  0.00    +0.000 A 
ATOM      4  C   UNL     1       1.953   6.782  19.504  0.00  0.00    +0.000 A 
ATOM      5  C   UNL     1       2.607   5.544  19.291  0.00  0.00    +0.000 A 
ATOM      6  C   UNL     1       3.650   5.536  18.334  0.00  0.00    +0.000 A 
ENDROOT
BRANCH   3   7
ATOM      7  C   UNL     1       1.408   9.263  18.807  0.00  0.00    +0.000 C 
ATOM      8  C   UNL     1       1.058   9.696  20.266  0.00  0.00    +0.000 C 
ATOM      9  C   UNL     1       2.264  10.416  18.241  0.00  0.00    +0.000 C 
ATOM     10  C   UNL     1       0.061   9.181  18.066  0.00  0.00    +0.000 C 
ENDBRANCH   3   7
BRANCH   5  11
ATOM     11  C   UNL     1       2.192   4.245  20.034  0.00  0.00    +0.000 C 
ATOM     12  C   UNL     1       2.426   4.389  21.560  0.00  0.00    +0.000 C 
ATOM     13  C   UNL     1       0.688   3.897  19.883  0.00  0.00    +0.000 C 
ATOM     14  C   UNL     1       2.975   3.023  19.510  0.00  0.00    +0.000 C 
ENDBRANCH   5  11
BRANCH   4  15
ATOM     15  O   UNL     1       1.084   6.871  20.550  0.00  0.00    +0.000 OA
ATOM     16  H   UNL     1       0.937   7.811  20.721  0.00  0.00    +0.000 HD
ENDBRANCH   4  15
BRANCH   1  17
ATOM     17  S   UNL     1       5.407   6.582  16.481  0.00  0.00    +0.000 S 
BRANCH  17  18
ATOM     18  C   UNL     1       6.897   6.024  17.500  0.00  0.00    +0.000 C 
ATOM     19  C   UNL     1       6.347   5.495  18.841  0.00  0.00    +0.000 C 
BRANCH  18  20
ATOM     20  C   UNL     1       7.544   4.782  16.851  0.00  0.00    +0.000 C 
ATOM     21  O   UNL     1       7.467   4.514  15.660  0.00  0.00    +0.000 OA
BRANCH  20  22
ATOM     22  O   UNL     1       8.267   4.012  17.699  0.00  0.00    +0.000 OA
ATOM     23  H   UNL     1       9.198   4.321  17.759  0.00  0.00    +0.000 HD
ENDBRANCH  20  22
ENDBRANCH  18  20
BRANCH  18  24
ATOM     24  C   UNL     1       7.942   7.153  17.758  0.00  0.00    +0.000 C 
BRANCH  24  25
ATOM     25  C   UNL     1       7.392   8.586  17.755  0.00  0.00    +0.000 C 
BRANCH  25  26
ATOM     26  C   UNL     1       8.496   9.649  17.687  0.00  0.00    +0.000 C 
BRANCH  26  27
ATOM     27  C   UNL     1       8.980   9.954  19.107  0.00  0.00    +0.000 C 
BRANCH  27  29
ATOM     28  C   UNL     1      10.206  11.519  20.618  0.00  0.00    +0.000 C 
ATOM     29  C   UNL     1      10.011  11.077  19.174  0.00  0.00    +0.000 C 
ENDBRANCH  27  29
ENDBRANCH  26  27
ENDBRANCH  25  26
ENDBRANCH  24  25
ENDBRANCH  18  24
ENDBRANCH  17  18
ENDBRANCH   1  17
TORSDOF 12
ENDMDL
MODEL 5
REMARK VINA RESULT:      -6.6      1.123      1.955
REMARK  Name = 
REMARK  20 active torsions:
REMARK  status: ('A' for Active; 'I' for Inactive)
REMARK    1  A    between atoms: C_1  and  C_2
REMARK    2  A    between atoms: C_2  and  C_3
REMARK    3  A    between atoms: C_3  and  C_4
REMARK    4  A    between atoms: C_4  and  C_5
REMARK    5  A    between atoms: C_5  and  C_6
REMARK    6  A    between atoms: C_6  and  C_7
REMARK    7  A    between atoms: C_7  and  C_8
REMARK    8  A    between atoms: C_7  and  S_9
REMARK    9  A    between atoms: C_7  and  C_25
REMARK   10  A    between atoms: S_9  and  C_10
REMARK   11  A    between atoms: C_12  and  C_13
REMARK   12  A    between atoms: C_13  and  C_14
REMARK   13  A    between atoms: C_13  and  C_15
REMARK   14  A    between atoms: C_13  and  C_16
REMARK   15  A    between atoms: C_17  and  O_18
REMARK   16  A    between atoms: C_19  and  C_20
REMARK   17  A    between atoms: C_20  and  C_21
REMARK   18  A    between atoms: C_20  and  C_22
REMARK   19  A    between atoms: C_20  and  C_23
REMARK   20  A    between atoms: C_25  and  O_27
REMARK                            x       y       z     vdW  Elec       q    Type
REMARK                         _______ _______ _______ _____ _____    ______ ____
ROOT
ATOM      1  C   UNL     1       3.897   6.274  18.175  0.00  0.00    +0.000 A 
ATOM      2  C   UNL     1       3.120   7.221  18.832  0.00  0.00    +0.000 A 
ATOM      3  C   UNL     1       2.118   6.911  19.761  0.00  0.00    +0.000 A 
ATOM      4  C   UNL     1       1.900   5.534  19.991  0.00  0.00    +0.000 A 
ATOM      5  C   UNL     1       2.554   4.512  19.260  0.00  0.00    +0.000 A 
ATOM      6  C   UNL     1       3.570   4.925  18.366  0.00  0.00    +0.000 A 
ENDROOT
BRANCH   3   7
ATOM      7  C   UNL     1       1.326   8.068  20.421  0.00  0.00    +0.000 C 
ATOM      8  C   UNL     1      -0.146   7.697  20.789  0.00  0.00    +0.000 C 
ATOM      9  C   UNL     1       1.987   8.458  21.760  0.00  0.00    +0.000 C 
ATOM     10  C   UNL     1       1.224   9.295  19.496  0.00  0.00    +0.000 C 
ENDBRANCH   3   7
BRANCH   5  11
ATOM     11  C   UNL     1       2.165   3.015  19.394  0.00  0.00    +0.000 C 
ATOM     12  C   UNL     1       2.263   2.553  20.871  0.00  0.00    +0.000 C 
ATOM     13  C   UNL     1       0.704   2.712  18.968  0.00  0.00    +0.000 C 
ATOM     14  C   UNL     1       3.067   2.120  18.518  0.00  0.00    +0.000 C 
ENDBRANCH   5  11
BRANCH   4  15
ATOM     15  O   UNL     1       1.060   5.160  20.997  0.00  0.00    +0.000 OA
ATOM     16  H   UNL     1       0.560   5.944  21.260  0.00  0.00    +0.000 HD
ENDBRANCH   4  15
BRANCH   1  17
ATOM     17  S   UNL     1       5.270   6.683  17.088  0.00  0.00    +0.000 S 
BRANCH  17  18
ATOM     18  C   UNL     1       6.846   6.044  17.914  0.00  0.00    +0.000 C 
ATOM     19  C   UNL     1       6.408   5.296  19.190  0.00  0.00    +0.000 C 
BRANCH  18  20
ATOM     20  C   UNL     1       7.489   4.944  17.043  0.00  0.00    +0.000 C 
ATOM     21  O   UNL     1       7.385   4.887  15.826  0.00  0.00    +0.000 OA
BRANCH  20  22
ATOM     22  O   UNL     1       8.239   4.047  17.727  0.00  0.00    +0.000 OA
ATOM     23  H   UNL     1       9.199   4.220  17.611  0.00  0.00    +0.000 HD
ENDBRANCH  20  22
ENDBRANCH  18  20
BRANCH  18  24
ATOM     24  C   UNL     1       7.867   7.167  18.276  0.00  0.00    +0.000 C 
BRANCH  24  25
ATOM     25  C   UNL     1       7.893   8.376  17.330  0.00  0.00    +0.000 C 
BRANCH  25  26
ATOM     26  C   UNL     1       8.048   9.710  18.072  0.00  0.00    +0.000 C 
BRANCH  26  27
ATOM     27  C   UNL     1       9.232   9.607  19.037  0.00  0.00    +0.000 C 
BRANCH  27  29
ATOM     28  C   UNL     1       9.275  11.656  20.464  0.00  0.00    +0.000 C 
ATOM     29  C   UNL     1       9.931  10.939  19.292  0.00  0.00    +0.000 C 
ENDBRANCH  27  29
ENDBRANCH  26  27
ENDBRANCH  25  26
ENDBRANCH  24  25
ENDBRANCH  18  24
ENDBRANCH  17  18
ENDBRANCH   1  17
TORSDOF 12
ENDMDL
MODEL 6
REMARK VINA RESULT:      -6.5      2.540      7.391
REMARK  Name = 
REMARK  20 active torsions:
REMARK  status: ('A' for Active; 'I' for Inactive)
REMARK    1  A    between atoms: C_1  and  C_2
REMARK    2  A    between atoms: C_2  and  C_3
REMARK    3  A    between atoms: C_3  and  C_4
REMARK    4  A    between atoms: C_4  and  C_5
REMARK    5  A    between atoms: C_5  and  C_6
REMARK    6  A    between atoms: C_6  and  C_7
REMARK    7  A    between atoms: C_7  and  C_8
REMARK    8  A    between atoms: C_7  and  S_9
REMARK    9  A    between atoms: C_7  and  C_25
REMARK   10  A    between atoms: S_9  and  C_10
REMARK   11  A    between atoms: C_12  and  C_13
REMARK   12  A    between atoms: C_13  and  C_14
REMARK   13  A    between atoms: C_13  and  C_15
REMARK   14  A    between atoms: C_13  and  C_16
REMARK   15  A    between atoms: C_17  and  O_18
REMARK   16  A    between atoms: C_19  and  C_20
REMARK   17  A    between atoms: C_20  and  C_21
REMARK   18  A    between atoms: C_20  and  C_22
REMARK   19  A    between atoms: C_20  and  C_23
REMARK   20  A    between atoms: C_25  and  O_27
REMARK                            x       y       z     vdW  Elec       q    Type
REMARK                         _______ _______ _______ _____ _____    ______ ____
ROOT
ATOM      1  C   UNL     1       2.825   7.466  18.100  0.00  0.00    +0.000 A 
ATOM      2  C   UNL     1       4.192   7.336  17.884  0.00  0.00    +0.000 A 
ATOM      3  C   UNL     1       4.902   6.137  18.032  0.00  0.00    +0.000 A 
ATOM      4  C   UNL     1       4.144   5.023  18.457  0.00  0.00    +0.000 A 
ATOM      5  C   UNL     1       2.780   5.110  18.830  0.00  0.00    +0.000 A 
ATOM      6  C   UNL     1       2.144   6.356  18.617  0.00  0.00    +0.000 A 
ENDROOT
BRANCH   3   7
ATOM      7  C   UNL     1       6.428   6.133  17.758  0.00  0.00    +0.000 C 
ATOM      8  C   UNL     1       6.858   5.185  16.593  0.00  0.00    +0.000 C 
ATOM      9  C   UNL     1       6.883   7.541  17.317  0.00  0.00    +0.000 C 
ATOM     10  C   UNL     1       7.231   5.670  18.987  0.00  0.00    +0.000 C 
ENDBRANCH   3   7
BRANCH   5  11
ATOM     11  C   UNL     1       2.017   3.920  19.473  0.00  0.00    +0.000 C 
ATOM     12  C   UNL     1       2.955   3.100  20.395  0.00  0.00    +0.000 C 
ATOM     13  C   UNL     1       0.834   4.356  20.377  0.00  0.00    +0.000 C 
ATOM     14  C   UNL     1       1.419   2.990  18.396  0.00  0.00    +0.000 C 
ENDBRANCH   5  11
BRANCH   4  15
ATOM     15  O   UNL     1       4.730   3.793  18.466  0.00  0.00    +0.000 OA
ATOM     16  H   UNL     1       4.053   3.154  18.724  0.00  0.00    +0.000 HD
ENDBRANCH   4  15
BRANCH   1  17
ATOM     17  S   UNL     1       1.897   8.973  17.777  0.00  0.00    +0.000 S 
BRANCH  17  18
ATOM     18  C   UNL     1       1.031   9.452  19.387  0.00  0.00    +0.000 C 
ATOM     19  C   UNL     1       1.649   8.581  20.501  0.00  0.00    +0.000 C 
BRANCH  18  20
ATOM     20  C   UNL     1       1.420  10.892  19.786  0.00  0.00    +0.000 C 
ATOM     21  O   UNL     1       1.832  11.732  18.999  0.00  0.00    +0.000 OA
BRANCH  20  22
ATOM     22  O   UNL     1       1.223  11.189  21.093  0.00  0.00    +0.000 OA
ATOM     23  H   UNL     1       1.324  10.394  21.661  0.00  0.00    +0.000 HD
ENDBRANCH  20  22
ENDBRANCH  18  20
BRANCH  18  24
ATOM     24  C   UNL     1      -0.516   9.258  19.352  0.00  0.00    +0.000 C 
BRANCH  24  25
ATOM     25  C   UNL     1      -1.317  10.397  18.705  0.00  0.00    +0.000 C 
BRANCH  25  26
ATOM     26  C   UNL     1      -1.938   9.999  17.359  0.00  0.00    +0.000 C 
BRANCH  26  27
ATOM     27  C   UNL     1      -3.383  10.502  17.311  0.00  0.00    +0.000 C 
BRANCH  27  29
ATOM     28  C   UNL     1      -2.905  10.215  14.877  0.00  0.00    +0.000 C 
ATOM     29  C   UNL     1      -3.894  10.762  15.897  0.00  0.00    +0.000 C 
ENDBRANCH  27  29
ENDBRANCH  26  27
ENDBRANCH  25  26
ENDBRANCH  24  25
ENDBRANCH  18  24
ENDBRANCH  17  18
ENDBRANCH   1  17
TORSDOF 12
ENDMDL
MODEL 7
REMARK VINA RESULT:      -6.5      2.331      4.648
REMARK  Name = 
REMARK  20 active torsions:
REMARK  status: ('A' for Active; 'I' for Inactive)
REMARK    1  A    between atoms: C_1  and  C_2
REMARK    2  A    between atoms: C_2  and  C_3
REMARK    3  A    between atoms: C_3  and  C_4
REMARK    4  A    between atoms: C_4  and  C_5
REMARK    5  A    between atoms: C_5  and  C_6
REMARK    6  A    between atoms: C_6  and  C_7
REMARK    7  A    between atoms: C_7  and  C_8
REMARK    8  A    between atoms: C_7  and  S_9
REMARK    9  A    between atoms: C_7  and  C_25
REMARK   10  A    between atoms: S_9  and  C_10
REMARK   11  A    between atoms: C_12  and  C_13
REMARK   12  A    between atoms: C_13  and  C_14
REMARK   13  A    between atoms: C_13  and  C_15
REMARK   14  A    between atoms: C_13  and  C_16
REMARK   15  A    between atoms: C_17  and  O_18
REMARK   16  A    between atoms: C_19  and  C_20
REMARK   17  A    between atoms: C_20  and  C_21
REMARK   18  A    between atoms: C_20  and  C_22
REMARK   19  A    between atoms: C_20  and  C_23
REMARK   20  A    between atoms: C_25  and  O_27
REMARK                            x       y       z     vdW  Elec       q    Type
REMARK                         _______ _______ _______ _____ _____    ______ ____
ROOT
ATOM      1  C   UNL     1       3.676   6.228  17.932  0.00  0.00    +0.000 A 
ATOM      2  C   UNL     1       2.972   7.189  18.648  0.00  0.00    +0.000 A 
ATOM      3  C   UNL     1       2.085   6.901  19.693  0.00  0.00    +0.000 A 
ATOM      4  C   UNL     1       1.902   5.530  19.982  0.00  0.00    +0.000 A 
ATOM      5  C   UNL     1       2.475   4.491  19.207  0.00  0.00    +0.000 A 
ATOM      6  C   UNL     1       3.380   4.883  18.193  0.00  0.00    +0.000 A 
ENDROOT
BRANCH   3   7
ATOM      7  C   UNL     1       1.366   8.073  20.408  0.00  0.00    +0.000 C 
ATOM      8  C   UNL     1      -0.103   7.749  20.831  0.00  0.00    +0.000 C 
ATOM      9  C   UNL     1       2.097   8.410  21.725  0.00  0.00    +0.000 C 
ATOM     10  C   UNL     1       1.272   9.322  19.512  0.00  0.00    +0.000 C 
ENDBRANCH   3   7
BRANCH   5  11
ATOM     11  C   UNL     1       2.112   2.997  19.424  0.00  0.00    +0.000 C 
ATOM     12  C   UNL     1       0.661   2.711  18.960  0.00  0.00    +0.000 C 
ATOM     13  C   UNL     1       3.001   2.018  18.611  0.00  0.00    +0.000 C 
ATOM     14  C   UNL     1       2.265   2.592  20.905  0.00  0.00    +0.000 C 
ENDBRANCH   5  11
BRANCH   4  15
ATOM     15  O   UNL     1       1.184   5.180  21.085  0.00  0.00    +0.000 OA
ATOM     16  H   UNL     1       1.809   4.847  21.742  0.00  0.00    +0.000 HD
ENDBRANCH   4  15
BRANCH   1  17
ATOM     17  S   UNL     1       4.914   6.612  16.685  0.00  0.00    +0.000 S 
BRANCH  17  18
ATOM     18  C   UNL     1       6.556   5.897  17.291  0.00  0.00    +0.000 C 
ATOM     19  C   UNL     1       7.447   7.095  17.681  0.00  0.00    +0.000 C 
BRANCH  18  20
ATOM     20  C   UNL     1       6.344   5.145  18.622  0.00  0.00    +0.000 C 
ATOM     21  O   UNL     1       6.280   5.691  19.714  0.00  0.00    +0.000 OA
BRANCH  20  22
ATOM     22  O   UNL     1       6.177   3.806  18.494  0.00  0.00    +0.000 OA
ATOM     23  H   UNL     1       7.027   3.356  18.297  0.00  0.00    +0.000 HD
ENDBRANCH  20  22
ENDBRANCH  18  20
BRANCH  18  24
ATOM     24  C   UNL     1       7.285   5.010  16.234  0.00  0.00    +0.000 C 
BRANCH  24  25
ATOM     25  C   UNL     1       6.688   5.031  14.820  0.00  0.00    +0.000 C 
BRANCH  25  26
ATOM     26  C   UNL     1       5.967   3.726  14.457  0.00  0.00    +0.000 C 
BRANCH  26  27
ATOM     27  C   UNL     1       5.479   3.814  13.009  0.00  0.00    +0.000 C 
BRANCH  27  29
ATOM     28  C   UNL     1       5.814   1.890  11.452  0.00  0.00    +0.000 C 
ATOM     29  C   UNL     1       6.428   3.170  12.003  0.00  0.00    +0.000 C 
ENDBRANCH  27  29
ENDBRANCH  26  27
ENDBRANCH  25  26
ENDBRANCH  24  25
ENDBRANCH  18  24
ENDBRANCH  17  18
ENDBRANCH   1  17
TORSDOF 12
ENDMDL
MODEL 8
REMARK VINA RESULT:      -6.5      2.651      4.767
REMARK  Name = 
REMARK  20 active torsions:
REMARK  status: ('A' for Active; 'I' for Inactive)
REMARK    1  A    between atoms: C_1  and  C_2
REMARK    2  A    between atoms: C_2  and  C_3
REMARK    3  A    between atoms: C_3  and  C_4
REMARK    4  A    between atoms: C_4  and  C_5
REMARK    5  A    between atoms: C_5  and  C_6
REMARK    6  A    between atoms: C_6  and  C_7
REMARK    7  A    between atoms: C_7  and  C_8
REMARK    8  A    between atoms: C_7  and  S_9
REMARK    9  A    between atoms: C_7  and  C_25
REMARK   10  A    between atoms: S_9  and  C_10
REMARK   11  A    between atoms: C_12  and  C_13
REMARK   12  A    between atoms: C_13  and  C_14
REMARK   13  A    between atoms: C_13  and  C_15
REMARK   14  A    between atoms: C_13  and  C_16
REMARK   15  A    between atoms: C_17  and  O_18
REMARK   16  A    between atoms: C_19  and  C_20
REMARK   17  A    between atoms: C_20  and  C_21
REMARK   18  A    between atoms: C_20  and  C_22
REMARK   19  A    between atoms: C_20  and  C_23
REMARK   20  A    between atoms: C_25  and  O_27
REMARK                            x       y       z     vdW  Elec       q    Type
REMARK                         _______ _______ _______ _____ _____    ______ ____
ROOT
ATOM      1  C   UNL     1       3.546   6.413  18.109  0.00  0.00    +0.000 A 
ATOM      2  C   UNL     1       2.820   7.379  18.796  0.00  0.00    +0.000 A 
ATOM      3  C   UNL     1       1.956   7.103  19.864  0.00  0.00    +0.000 A 
ATOM      4  C   UNL     1       1.822   5.740  20.208  0.00  0.00    +0.000 A 
ATOM      5  C   UNL     1       2.419   4.690  19.467  0.00  0.00    +0.000 A 
ATOM      6  C   UNL     1       3.298   5.072  18.426  0.00  0.00    +0.000 A 
ENDROOT
BRANCH   3   7
ATOM      7  C   UNL     1       1.207   8.279  20.543  0.00  0.00    +0.000 C 
ATOM      8  C   UNL     1      -0.248   7.928  20.989  0.00  0.00    +0.000 C 
ATOM      9  C   UNL     1       1.937   8.683  21.841  0.00  0.00    +0.000 C 
ATOM     10  C   UNL     1       1.071   9.491  19.604  0.00  0.00    +0.000 C 
ENDBRANCH   3   7
BRANCH   5  11
ATOM     11  C   UNL     1       2.108   3.194  19.747  0.00  0.00    +0.000 C 
ATOM     12  C   UNL     1       3.029   2.276  18.902  0.00  0.00    +0.000 C 
ATOM     13  C   UNL     1       2.353   2.774  21.220  0.00  0.00    +0.000 C 
ATOM     14  C   UNL     1       0.633   2.861  19.440  0.00  0.00    +0.000 C 
ENDBRANCH   5  11
BRANCH   4  15
ATOM     15  O   UNL     1       1.129   5.410  21.334  0.00  0.00    +0.000 OA
ATOM     16  H   UNL     1       1.426   6.002  22.038  0.00  0.00    +0.000 HD
ENDBRANCH   4  15
BRANCH   1  17
ATOM     17  S   UNL     1       4.756   6.788  16.832  0.00  0.00    +0.000 S 
BRANCH  17  18
ATOM     18  C   UNL     1       6.059   5.419  16.877  0.00  0.00    +0.000 C 
ATOM     19  C   UNL     1       7.372   6.036  16.353  0.00  0.00    +0.000 C 
BRANCH  18  20
ATOM     20  C   UNL     1       6.382   5.049  18.340  0.00  0.00    +0.000 C 
ATOM     21  O   UNL     1       6.737   5.856  19.188  0.00  0.00    +0.000 OA
BRANCH  20  22
ATOM     22  O   UNL     1       6.195   3.743  18.648  0.00  0.00    +0.000 OA
ATOM     23  H   UNL     1       6.950   3.192  18.348  0.00  0.00    +0.000 HD
ENDBRANCH  20  22
ENDBRANCH  18  20
BRANCH  18  24
ATOM     24  C   UNL     1       5.682   4.163  16.032  0.00  0.00    +0.000 C 
BRANCH  24  25
ATOM     25  C   UNL     1       5.464   4.408  14.533  0.00  0.00    +0.000 C 
BRANCH  25  26
ATOM     26  C   UNL     1       6.553   3.772  13.659  0.00  0.00    +0.000 C 
BRANCH  26  27
ATOM     27  C   UNL     1       6.099   3.802  12.198  0.00  0.00    +0.000 C 
BRANCH  27  29
ATOM     28  C   UNL     1       3.948   3.295  11.035  0.00  0.00    +0.000 C 
ATOM     29  C   UNL     1       5.097   2.708  11.844  0.00  0.00    +0.000 C 
ENDBRANCH  27  29
ENDBRANCH  26  27
ENDBRANCH  25  26
ENDBRANCH  24  25
ENDBRANCH  18  24
ENDBRANCH  17  18
ENDBRANCH   1  17
TORSDOF 12
ENDMDL
MODEL 9
REMARK VINA RESULT:      -6.4      2.526      7.491
REMARK  Name = 
REMARK  20 active torsions:
REMARK  status: ('A' for Active; 'I' for Inactive)
REMARK    1  A    between atoms: C_1  and  C_2
REMARK    2  A    between atoms: C_2  and  C_3
REMARK    3  A    between atoms: C_3  and  C_4
REMARK    4  A    between atoms: C_4  and  C_5
REMARK    5  A    between atoms: C_5  and  C_6
REMARK    6  A    between atoms: C_6  and  C_7
REMARK    7  A    between atoms: C_7  and  C_8
REMARK    8  A    between atoms: C_7  and  S_9
REMARK    9  A    between atoms: C_7  and  C_25
REMARK   10  A    between atoms: S_9  and  C_10
REMARK   11  A    between atoms: C_12  and  C_13
REMARK   12  A    between atoms: C_13  and  C_14
REMARK   13  A    between atoms: C_13  and  C_15
REMARK   14  A    between atoms: C_13  and  C_16
REMARK   15  A    between atoms: C_17  and  O_18
REMARK   16  A    between atoms: C_19  and  C_20
REMARK   17  A    between atoms: C_20  and  C_21
REMARK   18  A    between atoms: C_20  and  C_22
REMARK   19  A    between atoms: C_20  and  C_23
REMARK   20  A    between atoms: C_25  and  O_27
REMARK                            x       y       z     vdW  Elec       q    Type
REMARK                         _______ _______ _______ _____ _____    ______ ____
ROOT
ATOM      1  C   UNL     1       2.875   7.704  18.056  0.00  0.00    +0.000 A 
ATOM      2  C   UNL     1       4.218   7.513  17.750  0.00  0.00    +0.000 A 
ATOM      3  C   UNL     1       4.877   6.280  17.836  0.00  0.00    +0.000 A 
ATOM      4  C   UNL     1       4.096   5.196  18.294  0.00  0.00    +0.000 A 
ATOM      5  C   UNL     1       2.764   5.341  18.756  0.00  0.00    +0.000 A 
ATOM      6  C   UNL     1       2.176   6.619  18.600  0.00  0.00    +0.000 A 
ENDROOT
BRANCH   3   7
ATOM      7  C   UNL     1       6.381   6.209  17.463  0.00  0.00    +0.000 C 
ATOM      8  C   UNL     1       7.065   7.606  17.331  0.00  0.00    +0.000 C 
ATOM      9  C   UNL     1       7.162   5.484  18.579  0.00  0.00    +0.000 C 
ATOM     10  C   UNL     1       6.605   5.509  16.110  0.00  0.00    +0.000 C 
ENDBRANCH   3   7
BRANCH   5  11
ATOM     11  C   UNL     1       1.987   4.178  19.430  0.00  0.00    +0.000 C 
ATOM     12  C   UNL     1       0.840   4.726  20.318  0.00  0.00    +0.000 C 
ATOM     13  C   UNL     1       1.300   3.221  18.420  0.00  0.00    +0.000 C 
ATOM     14  C   UNL     1       2.923   3.301  20.289  0.00  0.00    +0.000 C 
ENDBRANCH   5  11
BRANCH   4  15
ATOM     15  O   UNL     1       4.621   3.940  18.249  0.00  0.00    +0.000 OA
ATOM     16  H   UNL     1       3.881   3.320  18.212  0.00  0.00    +0.000 HD
ENDBRANCH   4  15
BRANCH   1  17
ATOM     17  S   UNL     1       2.003   9.258  17.813  0.00  0.00    +0.000 S 
BRANCH  17  18
ATOM     18  C   UNL     1       0.992   9.581  19.378  0.00  0.00    +0.000 C 
ATOM     19  C   UNL     1       1.458   8.552  20.429  0.00  0.00    +0.000 C 
BRANCH  18  20
ATOM     20  C   UNL     1       1.391  10.941  19.990  0.00  0.00    +0.000 C 
ATOM     21  O   UNL     1       1.742  11.911  19.333  0.00  0.00    +0.000 OA
BRANCH  20  22
ATOM     22  O   UNL     1       1.273  11.010  21.338  0.00  0.00    +0.000 OA
ATOM     23  H   UNL     1       0.337  10.919  21.622  0.00  0.00    +0.000 HD
ENDBRANCH  20  22
ENDBRANCH  18  20
BRANCH  18  24
ATOM     24  C   UNL     1      -0.549   9.470  19.166  0.00  0.00    +0.000 C 
BRANCH  24  25
ATOM     25  C   UNL     1      -1.099  10.137  17.897  0.00  0.00    +0.000 C 
BRANCH  25  26
ATOM     26  C   UNL     1      -2.624  10.299  17.922  0.00  0.00    +0.000 C 
BRANCH  26  27
ATOM     27  C   UNL     1      -3.201   9.775  16.604  0.00  0.00    +0.000 C 
BRANCH  27  29
ATOM     28  C   UNL     1      -3.505  10.076  14.144  0.00  0.00    +0.000 C 
ATOM     29  C   UNL     1      -2.810  10.611  15.389  0.00  0.00    +0.000 C 
ENDBRANCH  27  29
ENDBRANCH  26  27
ENDBRANCH  25  26
ENDBRANCH  24  25
ENDBRANCH  18  24
ENDBRANCH  17  18
ENDBRANCH   1  17
TORSDOF 12
ENDMDL
