MODEL 1
REMARK VINA RESULT:      -7.5      0.000      0.000
REMARK  Name = 
REMARK  9 active torsions:
REMARK  status: ('A' for Active; 'I' for Inactive)
REMARK    1  A    between atoms: C_1  and  C_2
REMARK    2  A    between atoms: C_2  and  O_3
REMARK    3  A    between atoms: O_3  and  C_4
REMARK    4  A    between atoms: C_4  and  C_6
REMARK    5  A    between atoms: N_10  and  C_11
REMARK    6  A    between atoms: C_11  and  C_12
REMARK    7  A    between atoms: C_12  and  O_14
REMARK    8  A    between atoms: O_14  and  C_15
REMARK    9  A    between atoms: C_15  and  C_16
REMARK                            x       y       z     vdW  Elec       q    Type
REMARK                         _______ _______ _______ _____ _____    ______ ____
ROOT
ATOM      1  C   UNL     1       3.483   7.786  17.798  0.00  0.00    +0.000 C 
ATOM      2  C   UNL     1       3.915   6.575  17.411  0.00  0.00    +0.000 C 
ATOM      3  C   UNL     1       5.218   6.463  16.668  0.00  0.00    +0.000 C 
ATOM      4  O   UNL     1       5.902   7.384  16.264  0.00  0.00    +0.000 OA
ATOM      5  N   UNL     1       5.478   5.094  16.605  0.00  0.00    +0.000 N 
ATOM      6  C   UNL     1       4.425   4.352  17.171  0.00  0.00    +0.000 A 
ATOM      7  C   UNL     1       4.307   2.974  17.269  0.00  0.00    +0.000 A 
ATOM      8  C   UNL     1       3.136   2.454  17.825  0.00  0.00    +0.000 A 
ATOM      9  C   UNL     1       2.113   3.312  18.253  0.00  0.00    +0.000 A 
ATOM     10 BR   UNL     1       0.529   2.581  18.986  0.00  0.00    +0.000 Br
ATOM     11  C   UNL     1       2.242   4.698  18.152  0.00  0.00    +0.000 A 
ATOM     12  C   UNL     1       3.421   5.213  17.639  0.00  0.00    +0.000 A 
ENDROOT
BRANCH   1  13
ATOM     13  C   UNL     1       2.318   7.988  18.669  0.00  0.00    +0.000 C 
ATOM     14  O   UNL     1       2.245   7.622  19.829  0.00  0.00    +0.000 OA
BRANCH  13  15
ATOM     15  O   UNL     1       1.333   8.563  17.939  0.00  0.00    +0.000 OA
BRANCH  15  17
ATOM     16  C   UNL     1       0.001  10.166  19.110  0.00  0.00    +0.000 C 
ATOM     17  C   UNL     1       1.170   9.972  18.158  0.00  0.00    +0.000 C 
ENDBRANCH  15  17
ENDBRANCH  13  15
ENDBRANCH   1  13
BRANCH   5  18
ATOM     18  C   UNL     1       6.704   4.527  16.078  0.00  0.00    +0.000 C 
BRANCH  18  19
ATOM     19  C   UNL     1       6.939   4.575  14.572  0.00  0.00    +0.000 C 
ATOM     20  O   UNL     1       7.752   5.335  14.054  0.00  0.00    +0.000 OA
BRANCH  19  21
ATOM     21  O   UNL     1       6.137   3.718  13.885  0.00  0.00    +0.000 OA
BRANCH  21  22
ATOM     22  C   UNL     1       6.407   3.603  12.480  0.00  0.00    +0.000 C 
ATOM     23  C   UNL     1       5.133   3.136  11.802  0.00  0.00    +0.000 C 
ENDBRANCH  21  22
ENDBRANCH  19  21
ENDBRANCH  18  19
ENDBRANCH   5  18
TORSDOF 7
ENDMDL
MODEL 2
REMARK VINA RESULT:      -7.1      0.832      1.213
REMARK  Name = 
REMARK  9 active torsions:
REMARK  status: ('A' for Active; 'I' for Inactive)
REMARK    1  A    between atoms: C_1  and  C_2
REMARK    2  A    between atoms: C_2  and  O_3
REMARK    3  A    between atoms: O_3  and  C_4
REMARK    4  A    between atoms: C_4  and  C_6
REMARK    5  A    between atoms: N_10  and  C_11
REMARK    6  A    between atoms: C_11  and  C_12
REMARK    7  A    between atoms: C_12  and  O_14
REMARK    8  A    between atoms: O_14  and  C_15
REMARK    9  A    between atoms: C_15  and  C_16
REMARK                            x       y       z     vdW  Elec       q    Type
REMARK                         _______ _______ _______ _____ _____    ______ ____
ROOT
ATOM      1  C   UNL     1       3.407   7.804  17.738  0.00  0.00    +0.000 C 
ATOM      2  C   UNL     1       3.861   6.591  17.388  0.00  0.00    +0.000 C 
ATOM      3  C   UNL     1       5.183   6.477  16.681  0.00  0.00    +0.000 C 
ATOM      4  O   UNL     1       5.868   7.397  16.275  0.00  0.00    +0.000 OA
ATOM      5  N   UNL     1       5.459   5.110  16.652  0.00  0.00    +0.000 N 
ATOM      6  C   UNL     1       4.400   4.368  17.207  0.00  0.00    +0.000 A 
ATOM      7  C   UNL     1       4.295   2.992  17.331  0.00  0.00    +0.000 A 
ATOM      8  C   UNL     1       3.115   2.470  17.868  0.00  0.00    +0.000 A 
ATOM      9  C   UNL     1       2.073   3.326  18.252  0.00  0.00    +0.000 A 
ATOM     10 BR   UNL     1       0.478   2.592  18.960  0.00  0.00    +0.000 Br
ATOM     11  C   UNL     1       2.190   4.711  18.125  0.00  0.00    +0.000 A 
ATOM     12  C   UNL     1       3.376   5.228  17.632  0.00  0.00    +0.000 A 
ENDROOT
BRANCH   1  13
ATOM     13  C   UNL     1       2.218   8.010  18.576  0.00  0.00    +0.000 C 
ATOM     14  O   UNL     1       1.188   8.544  18.203  0.00  0.00    +0.000 OA
BRANCH  13  15
ATOM     15  O   UNL     1       2.500   7.588  19.831  0.00  0.00    +0.000 OA
BRANCH  15  17
ATOM     16  C   UNL     1       1.297   8.661  21.597  0.00  0.00    +0.000 C 
ATOM     17  C   UNL     1       1.356   7.445  20.687  0.00  0.00    +0.000 C 
ENDBRANCH  15  17
ENDBRANCH  13  15
ENDBRANCH   1  13
BRANCH   5  18
ATOM     18  C   UNL     1       6.704   4.546  16.168  0.00  0.00    +0.000 C 
BRANCH  18  19
ATOM     19  C   UNL     1       7.004   4.621  14.675  0.00  0.00    +0.000 C 
ATOM     20  O   UNL     1       7.860   5.369  14.210  0.00  0.00    +0.000 OA
BRANCH  19  21
ATOM     21  O   UNL     1       6.210   3.803  13.935  0.00  0.00    +0.000 OA
BRANCH  21  22
ATOM     22  C   UNL     1       6.554   3.689  12.546  0.00  0.00    +0.000 C 
ATOM     23  C   UNL     1       5.494   2.835  11.876  0.00  0.00    +0.000 C 
ENDBRANCH  21  22
ENDBRANCH  19  21
ENDBRANCH  18  19
ENDBRANCH   5  18
TORSDOF 7
ENDMDL
MODEL 3
REMARK VINA RESULT:      -7.1      3.234      6.099
REMARK  Name = 
REMARK  9 active torsions:
REMARK  status: ('A' for Active; 'I' for Inactive)
REMARK    1  A    between atoms: C_1  and  C_2
REMARK    2  A    between atoms: C_2  and  O_3
REMARK    3  A    between atoms: O_3  and  C_4
REMARK    4  A    between atoms: C_4  and  C_6
REMARK    5  A    between atoms: N_10  and  C_11
REMARK    6  A    between atoms: C_11  and  C_12
REMARK    7  A    between atoms: C_12  and  O_14
REMARK    8  A    between atoms: O_14  and  C_15
REMARK    9  A    between atoms: C_15  and  C_16
REMARK                            x       y       z     vdW  Elec       q    Type
REMARK                         _______ _______ _______ _____ _____    ______ ____
ROOT
ATOM      1  C   UNL     1       5.698   4.994  17.262  0.00  0.00    +0.000 C 
ATOM      2  C   UNL     1       4.704   5.040  18.162  0.00  0.00    +0.000 C 
ATOM      3  C   UNL     1       4.520   3.891  19.114  0.00  0.00    +0.000 C 
ATOM      4  O   UNL     1       5.121   2.833  19.096  0.00  0.00    +0.000 OA
ATOM      5  N   UNL     1       3.567   4.333  20.032  0.00  0.00    +0.000 N 
ATOM      6  C   UNL     1       3.094   5.614  19.693  0.00  0.00    +0.000 A 
ATOM      7  C   UNL     1       2.131   6.369  20.344  0.00  0.00    +0.000 A 
ATOM      8  C   UNL     1       1.777   7.601  19.789  0.00  0.00    +0.000 A 
ATOM      9  C   UNL     1       2.377   8.040  18.600  0.00  0.00    +0.000 A 
ATOM     10 BR   UNL     1       1.867   9.705  17.859  0.00  0.00    +0.000 Br
ATOM     11  C   UNL     1       3.348   7.274  17.953  0.00  0.00    +0.000 A 
ATOM     12  C   UNL     1       3.727   6.072  18.527  0.00  0.00    +0.000 A 
ENDROOT
BRANCH   1  13
ATOM     13  C   UNL     1       6.066   6.129  16.406  0.00  0.00    +0.000 C 
ATOM     14  O   UNL     1       5.326   6.657  15.595  0.00  0.00    +0.000 OA
BRANCH  13  15
ATOM     15  O   UNL     1       7.373   6.418  16.617  0.00  0.00    +0.000 OA
BRANCH  15  17
ATOM     16  C   UNL     1       7.825   8.517  17.667  0.00  0.00    +0.000 C 
ATOM     17  C   UNL     1       7.655   7.024  17.887  0.00  0.00    +0.000 C 
ENDBRANCH  15  17
ENDBRANCH  13  15
ENDBRANCH   1  13
BRANCH   5  18
ATOM     18  C   UNL     1       3.172   3.587  21.211  0.00  0.00    +0.000 C 
BRANCH  18  19
ATOM     19  C   UNL     1       1.922   2.716  21.135  0.00  0.00    +0.000 C 
ATOM     20  O   UNL     1       1.176   2.548  22.095  0.00  0.00    +0.000 OA
BRANCH  19  21
ATOM     21  O   UNL     1       1.754   2.139  19.916  0.00  0.00    +0.000 OA
BRANCH  21  22
ATOM     22  C   UNL     1       0.646   2.623  19.143  0.00  0.00    +0.000 C 
ATOM     23  C   UNL     1       1.206   3.312  17.913  0.00  0.00    +0.000 C 
ENDBRANCH  21  22
ENDBRANCH  19  21
ENDBRANCH  18  19
ENDBRANCH   5  18
TORSDOF 7
ENDMDL
MODEL 4
REMARK VINA RESULT:      -7.0      3.062      6.275
REMARK  Name = 
REMARK  9 active torsions:
REMARK  status: ('A' for Active; 'I' for Inactive)
REMARK    1  A    between atoms: C_1  and  C_2
REMARK    2  A    between atoms: C_2  and  O_3
REMARK    3  A    between atoms: O_3  and  C_4
REMARK    4  A    between atoms: C_4  and  C_6
REMARK    5  A    between atoms: N_10  and  C_11
REMARK    6  A    between atoms: C_11  and  C_12
REMARK    7  A    between atoms: C_12  and  O_14
REMARK    8  A    between atoms: O_14  and  C_15
REMARK    9  A    between atoms: C_15  and  C_16
REMARK                            x       y       z     vdW  Elec       q    Type
REMARK                         _______ _______ _______ _____ _____    ______ ____
ROOT
ATOM      1  C   UNL     1       5.806   5.030  17.454  0.00  0.00    +0.000 C 
ATOM      2  C   UNL     1       4.768   5.057  18.304  0.00  0.00    +0.000 C 
ATOM      3  C   UNL     1       4.567   3.907  19.253  0.00  0.00    +0.000 C 
ATOM      4  O   UNL     1       5.192   2.864  19.269  0.00  0.00    +0.000 OA
ATOM      5  N   UNL     1       3.560   4.331  20.121  0.00  0.00    +0.000 N 
ATOM      6  C   UNL     1       3.074   5.599  19.752  0.00  0.00    +0.000 A 
ATOM      7  C   UNL     1       2.063   6.333  20.351  0.00  0.00    +0.000 A 
ATOM      8  C   UNL     1       1.707   7.554  19.772  0.00  0.00    +0.000 A 
ATOM      9  C   UNL     1       2.354   8.002  18.612  0.00  0.00    +0.000 A 
ATOM     10 BR   UNL     1       1.841   9.651  17.837  0.00  0.00    +0.000 Br
ATOM     11  C   UNL     1       3.372   7.257  18.017  0.00  0.00    +0.000 A 
ATOM     12  C   UNL     1       3.752   6.067  18.616  0.00  0.00    +0.000 A 
ENDROOT
BRANCH   1  13
ATOM     13  C   UNL     1       6.188   6.170  16.609  0.00  0.00    +0.000 C 
ATOM     14  O   UNL     1       6.601   7.237  17.027  0.00  0.00    +0.000 OA
BRANCH  13  15
ATOM     15  O   UNL     1       5.922   5.854  15.319  0.00  0.00    +0.000 OA
BRANCH  15  17
ATOM     16  C   UNL     1       6.030   3.936  13.896  0.00  0.00    +0.000 C 
ATOM     17  C   UNL     1       6.836   4.917  14.731  0.00  0.00    +0.000 C 
ENDBRANCH  15  17
ENDBRANCH  13  15
ENDBRANCH   1  13
BRANCH   5  18
ATOM     18  C   UNL     1       3.126   3.581  21.283  0.00  0.00    +0.000 C 
BRANCH  18  19
ATOM     19  C   UNL     1       1.887   2.701  21.159  0.00  0.00    +0.000 C 
ATOM     20  O   UNL     1       1.109   2.520  22.092  0.00  0.00    +0.000 OA
BRANCH  19  21
ATOM     21  O   UNL     1       1.767   2.128  19.932  0.00  0.00    +0.000 OA
BRANCH  21  22
ATOM     22  C   UNL     1       0.659   2.579  19.139  0.00  0.00    +0.000 C 
ATOM     23  C   UNL     1       1.220   3.306  17.932  0.00  0.00    +0.000 C 
ENDBRANCH  21  22
ENDBRANCH  19  21
ENDBRANCH  18  19
ENDBRANCH   5  18
TORSDOF 7
ENDMDL
MODEL 5
REMARK VINA RESULT:      -7.0      2.823      4.783
REMARK  Name = 
REMARK  9 active torsions:
REMARK  status: ('A' for Active; 'I' for Inactive)
REMARK    1  A    between atoms: C_1  and  C_2
REMARK    2  A    between atoms: C_2  and  O_3
REMARK    3  A    between atoms: O_3  and  C_4
REMARK    4  A    between atoms: C_4  and  C_6
REMARK    5  A    between atoms: N_10  and  C_11
REMARK    6  A    between atoms: C_11  and  C_12
REMARK    7  A    between atoms: C_12  and  O_14
REMARK    8  A    between atoms: O_14  and  C_15
REMARK    9  A    between atoms: C_15  and  C_16
REMARK                            x       y       z     vdW  Elec       q    Type
REMARK                         _______ _______ _______ _____ _____    ______ ____
ROOT
ATOM      1  C   UNL     1       2.808   2.523  17.970  0.00  0.00    +0.000 C 
ATOM      2  C   UNL     1       3.385   3.715  17.752  0.00  0.00    +0.000 C 
ATOM      3  C   UNL     1       4.524   3.812  16.775  0.00  0.00    +0.000 C 
ATOM      4  O   UNL     1       5.080   2.885  16.217  0.00  0.00    +0.000 OA
ATOM      5  N   UNL     1       4.749   5.180  16.621  0.00  0.00    +0.000 N 
ATOM      6  C   UNL     1       3.908   5.930  17.464  0.00  0.00    +0.000 A 
ATOM      7  C   UNL     1       3.856   7.307  17.613  0.00  0.00    +0.000 A 
ATOM      8  C   UNL     1       2.972   7.831  18.560  0.00  0.00    +0.000 A 
ATOM      9  C   UNL     1       2.180   6.976  19.339  0.00  0.00    +0.000 A 
ATOM     10 BR   UNL     1       1.005   7.711  20.628  0.00  0.00    +0.000 Br
ATOM     11  C   UNL     1       2.238   5.590  19.180  0.00  0.00    +0.000 A 
ATOM     12  C   UNL     1       3.084   5.075  18.212  0.00  0.00    +0.000 A 
ENDROOT
BRANCH   1  13
ATOM     13  C   UNL     1       1.589   2.350  18.770  0.00  0.00    +0.000 C 
ATOM     14  O   UNL     1       0.460   2.586  18.378  0.00  0.00    +0.000 OA
BRANCH  13  15
ATOM     15  O   UNL     1       1.948   1.972  20.020  0.00  0.00    +0.000 OA
BRANCH  15  17
ATOM     16  C   UNL     1       2.299   3.458  21.859  0.00  0.00    +0.000 C 
ATOM     17  C   UNL     1       1.266   2.667  21.075  0.00  0.00    +0.000 C 
ENDBRANCH  15  17
ENDBRANCH  13  15
ENDBRANCH   1  13
BRANCH   5  18
ATOM     18  C   UNL     1       5.685   5.744  15.668  0.00  0.00    +0.000 C 
BRANCH  18  19
ATOM     19  C   UNL     1       7.178   5.607  15.948  0.00  0.00    +0.000 C 
ATOM     20  O   UNL     1       7.777   4.541  15.835  0.00  0.00    +0.000 OA
BRANCH  19  21
ATOM     21  O   UNL     1       7.747   6.772  16.359  0.00  0.00    +0.000 OA
BRANCH  21  22
ATOM     22  C   UNL     1       7.349   7.238  17.656  0.00  0.00    +0.000 C 
ATOM     23  C   UNL     1       7.776   6.197  18.673  0.00  0.00    +0.000 C 
ENDBRANCH  21  22
ENDBRANCH  19  21
ENDBRANCH  18  19
ENDBRANCH   5  18
TORSDOF 7
ENDMDL
MODEL 6
REMARK VINA RESULT:      -7.0      1.530      2.342
REMARK  Name = 
REMARK  9 active torsions:
REMARK  status: ('A' for Active; 'I' for Inactive)
REMARK    1  A    between atoms: C_1  and  C_2
REMARK    2  A    between atoms: C_2  and  O_3
REMARK    3  A    between atoms: O_3  and  C_4
REMARK    4  A    between atoms: C_4  and  C_6
REMARK    5  A    between atoms: N_10  and  C_11
REMARK    6  A    between atoms: C_11  and  C_12
REMARK    7  A    between atoms: C_12  and  O_14
REMARK    8  A    between atoms: O_14  and  C_15
REMARK    9  A    between atoms: C_15  and  C_16
REMARK                            x       y       z     vdW  Elec       q    Type
REMARK                         _______ _______ _______ _____ _____    ______ ____
ROOT
ATOM      1  C   UNL     1       3.102   7.680  17.689  0.00  0.00    +0.000 C 
ATOM      2  C   UNL     1       3.495   6.414  17.478  0.00  0.00    +0.000 C 
ATOM      3  C   UNL     1       4.541   6.134  16.435  0.00  0.00    +0.000 C 
ATOM      4  O   UNL     1       5.016   6.936  15.653  0.00  0.00    +0.000 OA
ATOM      5  N   UNL     1       4.872   4.790  16.609  0.00  0.00    +0.000 N 
ATOM      6  C   UNL     1       4.076   4.199  17.608  0.00  0.00    +0.000 A 
ATOM      7  C   UNL     1       4.091   2.883  18.044  0.00  0.00    +0.000 A 
ATOM      8  C   UNL     1       3.164   2.505  19.018  0.00  0.00    +0.000 A 
ATOM      9  C   UNL     1       2.242   3.436  19.518  0.00  0.00    +0.000 A 
ATOM     10 BR   UNL     1       0.984   2.892  20.824  0.00  0.00    +0.000 Br
ATOM     11  C   UNL     1       2.237   4.759  19.075  0.00  0.00    +0.000 A 
ATOM     12  C   UNL     1       3.184   5.142  18.140  0.00  0.00    +0.000 A 
ENDROOT
BRANCH   1  13
ATOM     13  C   UNL     1       2.217   8.077  18.792  0.00  0.00    +0.000 C 
ATOM     14  O   UNL     1       2.321   7.690  19.942  0.00  0.00    +0.000 OA
BRANCH  13  15
ATOM     15  O   UNL     1       1.235   8.864  18.290  0.00  0.00    +0.000 OA
BRANCH  15  17
ATOM     16  C   UNL     1       0.749  10.878  19.482  0.00  0.00    +0.000 C 
ATOM     17  C   UNL     1       1.520  10.271  18.322  0.00  0.00    +0.000 C 
ENDBRANCH  15  17
ENDBRANCH  13  15
ENDBRANCH   1  13
BRANCH   5  18
ATOM     18  C   UNL     1       5.938   4.120  15.892  0.00  0.00    +0.000 C 
BRANCH  18  19
ATOM     19  C   UNL     1       7.332   4.738  15.917  0.00  0.00    +0.000 C 
ATOM     20  O   UNL     1       7.762   5.436  15.003  0.00  0.00    +0.000 OA
BRANCH  19  21
ATOM     21  O   UNL     1       8.036   4.407  17.032  0.00  0.00    +0.000 OA
BRANCH  21  22
ATOM     22  C   UNL     1       7.572   4.988  18.260  0.00  0.00    +0.000 C 
ATOM     23  C   UNL     1       7.741   6.491  18.153  0.00  0.00    +0.000 C 
ENDBRANCH  21  22
ENDBRANCH  19  21
ENDBRANCH  18  19
ENDBRANCH   5  18
TORSDOF 7
ENDMDL
MODEL 7
REMARK VINA RESULT:      -6.9      2.959      4.966
REMARK  Name = 
REMARK  9 active torsions:
REMARK  status: ('A' for Active; 'I' for Inactive)
REMARK    1  A    between atoms: C_1  and  C_2
REMARK    2  A    between atoms: C_2  and  O_3
REMARK    3  A    between atoms: O_3  and  C_4
REMARK    4  A    between atoms: C_4  and  C_6
REMARK    5  A    between atoms: N_10  and  C_11
REMARK    6  A    between atoms: C_11  and  C_12
REMARK    7  A    between atoms: C_12  and  O_14
REMARK    8  A    between atoms: O_14  and  C_15
REMARK    9  A    between atoms: C_15  and  C_16
REMARK                            x       y       z     vdW  Elec       q    Type
REMARK                         _______ _______ _______ _____ _____    ______ ____
ROOT
ATOM      1  C   UNL     1       3.458   3.289  20.192  0.00  0.00    +0.000 C 
ATOM      2  C   UNL     1       3.633   4.392  19.450  0.00  0.00    +0.000 C 
ATOM      3  C   UNL     1       4.563   4.343  18.269  0.00  0.00    +0.000 C 
ATOM      4  O   UNL     1       5.289   3.418  17.957  0.00  0.00    +0.000 OA
ATOM      5  N   UNL     1       4.361   5.552  17.602  0.00  0.00    +0.000 N 
ATOM      6  C   UNL     1       3.452   6.369  18.299  0.00  0.00    +0.000 A 
ATOM      7  C   UNL     1       3.022   7.644  17.968  0.00  0.00    +0.000 A 
ATOM      8  C   UNL     1       2.150   8.292  18.847  0.00  0.00    +0.000 A 
ATOM      9  C   UNL     1       1.744   7.663  20.033  0.00  0.00    +0.000 A 
ATOM     10 BR   UNL     1       0.578   8.569  21.216  0.00  0.00    +0.000 Br
ATOM     11  C   UNL     1       2.181   6.377  20.356  0.00  0.00    +0.000 A 
ATOM     12  C   UNL     1       3.011   5.721  19.463  0.00  0.00    +0.000 A 
ENDROOT
BRANCH   1  13
ATOM     13  C   UNL     1       2.451   3.182  21.257  0.00  0.00    +0.000 C 
ATOM     14  O   UNL     1       2.561   3.665  22.369  0.00  0.00    +0.000 OA
BRANCH  13  15
ATOM     15  O   UNL     1       1.442   2.395  20.813  0.00  0.00    +0.000 OA
BRANCH  15  17
ATOM     16  C   UNL     1       0.631   2.261  18.569  0.00  0.00    +0.000 C 
ATOM     17  C   UNL     1       0.555   3.027  19.878  0.00  0.00    +0.000 C 
ENDBRANCH  15  17
ENDBRANCH  13  15
ENDBRANCH   1  13
BRANCH   5  18
ATOM     18  C   UNL     1       4.967   5.884  16.328  0.00  0.00    +0.000 C 
BRANCH  18  19
ATOM     19  C   UNL     1       6.429   6.317  16.308  0.00  0.00    +0.000 C 
ATOM     20  O   UNL     1       7.288   5.712  15.673  0.00  0.00    +0.000 OA
BRANCH  19  21
ATOM     21  O   UNL     1       6.668   7.407  17.084  0.00  0.00    +0.000 OA
BRANCH  21  22
ATOM     22  C   UNL     1       7.864   7.361  17.875  0.00  0.00    +0.000 C 
ATOM     23  C   UNL     1       7.735   6.199  18.841  0.00  0.00    +0.000 C 
ENDBRANCH  21  22
ENDBRANCH  19  21
ENDBRANCH  18  19
ENDBRANCH   5  18
TORSDOF 7
ENDMDL
MODEL 8
REMARK VINA RESULT:      -6.7      2.108      2.849
REMARK  Name = 
REMARK  9 active torsions:
REMARK  status: ('A' for Active; 'I' for Inactive)
REMARK    1  A    between atoms: C_1  and  C_2
REMARK    2  A    between atoms: C_2  and  O_3
REMARK    3  A    between atoms: O_3  and  C_4
REMARK    4  A    between atoms: C_4  and  C_6
REMARK    5  A    between atoms: N_10  and  C_11
REMARK    6  A    between atoms: C_11  and  C_12
REMARK    7  A    between atoms: C_12  and  O_14
REMARK    8  A    between atoms: O_14  and  C_15
REMARK    9  A    between atoms: C_15  and  C_16
REMARK                            x       y       z     vdW  Elec       q    Type
REMARK                         _______ _______ _______ _____ _____    ______ ____
ROOT
ATOM      1  C   UNL     1       2.734   7.852  18.276  0.00  0.00    +0.000 C 
ATOM      2  C   UNL     1       3.280   6.646  18.057  0.00  0.00    +0.000 C 
ATOM      3  C   UNL     1       4.296   6.488  16.960  0.00  0.00    +0.000 C 
ATOM      4  O   UNL     1       4.616   7.331  16.143  0.00  0.00    +0.000 OA
ATOM      5  N   UNL     1       4.811   5.203  17.130  0.00  0.00    +0.000 N 
ATOM      6  C   UNL     1       4.158   4.530  18.179  0.00  0.00    +0.000 A 
ATOM      7  C   UNL     1       4.372   3.237  18.628  0.00  0.00    +0.000 A 
ATOM      8  C   UNL     1       3.558   2.757  19.657  0.00  0.00    +0.000 A 
ATOM      9  C   UNL     1       2.550   3.567  20.199  0.00  0.00    +0.000 A 
ATOM     10 BR   UNL     1       1.449   2.886  21.579  0.00  0.00    +0.000 Br
ATOM     11  C   UNL     1       2.343   4.869  19.741  0.00  0.00    +0.000 A 
ATOM     12  C   UNL     1       3.178   5.357  18.750  0.00  0.00    +0.000 A 
ENDROOT
BRANCH   1  13
ATOM     13  C   UNL     1       1.865   8.149  19.422  0.00  0.00    +0.000 C 
ATOM     14  O   UNL     1       1.883   7.550  20.483  0.00  0.00    +0.000 OA
BRANCH  13  15
ATOM     15  O   UNL     1       1.002   9.130  19.062  0.00  0.00    +0.000 OA
BRANCH  15  17
ATOM     16  C   UNL     1       0.812  11.136  20.348  0.00  0.00    +0.000 C 
ATOM     17  C   UNL     1       0.283   9.725  20.153  0.00  0.00    +0.000 C 
ENDBRANCH  15  17
ENDBRANCH  13  15
ENDBRANCH   1  13
BRANCH   5  18
ATOM     18  C   UNL     1       5.917   4.667  16.361  0.00  0.00    +0.000 C 
BRANCH  18  19
ATOM     19  C   UNL     1       7.338   5.008  16.797  0.00  0.00    +0.000 C 
ATOM     20  O   UNL     1       8.125   4.159  17.208  0.00  0.00    +0.000 OA
BRANCH  19  21
ATOM     21  O   UNL     1       7.614   6.336  16.708  0.00  0.00    +0.000 OA
BRANCH  21  22
ATOM     22  C   UNL     1       7.759   7.029  17.956  0.00  0.00    +0.000 C 
ATOM     23  C   UNL     1       7.824   8.514  17.656  0.00  0.00    +0.000 C 
ENDBRANCH  21  22
ENDBRANCH  19  21
ENDBRANCH  18  19
ENDBRANCH   5  18
TORSDOF 7
ENDMDL
MODEL 9
REMARK VINA RESULT:      -6.7      3.658      5.758
REMARK  Name = 
REMARK  9 active torsions:
REMARK  status: ('A' for Active; 'I' for Inactive)
REMARK    1  A    between atoms: C_1  and  C_2
REMARK    2  A    between atoms: C_2  and  O_3
REMARK    3  A    between atoms: O_3  and  C_4
REMARK    4  A    between atoms: C_4  and  C_6
REMARK    5  A    between atoms: N_10  and  C_11
REMARK    6  A    between atoms: C_11  and  C_12
REMARK    7  A    between atoms: C_12  and  O_14
REMARK    8  A    between atoms: O_14  and  C_15
REMARK    9  A    between atoms: C_15  and  C_16
REMARK                            x       y       z     vdW  Elec       q    Type
REMARK                         _______ _______ _______ _____ _____    ______ ____
ROOT
ATOM      1  C   UNL     1       4.084   3.463  18.407  0.00  0.00    +0.000 C 
ATOM      2  C   UNL     1       5.020   4.211  17.802  0.00  0.00    +0.000 C 
ATOM      3  C   UNL     1       5.852   5.154  18.626  0.00  0.00    +0.000 C 
ATOM      4  O   UNL     1       5.701   5.411  19.805  0.00  0.00    +0.000 OA
ATOM      5  N   UNL     1       6.845   5.608  17.758  0.00  0.00    +0.000 N 
ATOM      6  C   UNL     1       6.660   5.093  16.462  0.00  0.00    +0.000 A 
ATOM      7  C   UNL     1       7.421   5.335  15.329  0.00  0.00    +0.000 A 
ATOM      8  C   UNL     1       7.011   4.754  14.127  0.00  0.00    +0.000 A 
ATOM      9  C   UNL     1       5.854   3.963  14.081  0.00  0.00    +0.000 A 
ATOM     10 BR   UNL     1       5.311   3.202  12.436  0.00  0.00    +0.000 Br
ATOM     11  C   UNL     1       5.095   3.723  15.227  0.00  0.00    +0.000 A 
ATOM     12  C   UNL     1       5.526   4.266  16.426  0.00  0.00    +0.000 A 
ENDROOT
BRANCH   1  13
ATOM     13  C   UNL     1       3.338   2.396  17.726  0.00  0.00    +0.000 C 
ATOM     14  O   UNL     1       3.793   1.303  17.439  0.00  0.00    +0.000 OA
BRANCH  13  15
ATOM     15  O   UNL     1       2.110   2.869  17.407  0.00  0.00    +0.000 OA
BRANCH  15  17
ATOM     16  C   UNL     1       0.590   3.009  19.247  0.00  0.00    +0.000 C 
ATOM     17  C   UNL     1       1.553   3.784  18.363  0.00  0.00    +0.000 C 
ENDBRANCH  15  17
ENDBRANCH  13  15
ENDBRANCH   1  13
BRANCH   5  18
ATOM     18  C   UNL     1       7.953   6.450  18.166  0.00  0.00    +0.000 C 
BRANCH  18  19
ATOM     19  C   UNL     1       7.864   7.949  17.899  0.00  0.00    +0.000 C 
ATOM     20  O   UNL     1       7.106   8.426  17.058  0.00  0.00    +0.000 OA
BRANCH  19  21
ATOM     21  O   UNL     1       8.725   8.674  18.661  0.00  0.00    +0.000 OA
BRANCH  21  22
ATOM     22  C   UNL     1       8.825  10.068  18.336  0.00  0.00    +0.000 C 
ATOM     23  C   UNL     1       9.612  10.745  19.441  0.00  0.00    +0.000 C 
ENDBRANCH  21  22
ENDBRANCH  19  21
ENDBRANCH  18  19
ENDBRANCH   5  18
TORSDOF 7
ENDMDL
