MODEL 1
REMARK VINA RESULT:      -7.2      0.000      0.000
REMARK  Name = 
REMARK  8 active torsions:
REMARK  status: ('A' for Active; 'I' for Inactive)
REMARK    1  A    between atoms: C_1  and  O_2
REMARK    2  A    between atoms: O_2  and  C_3
REMARK    3  A    between atoms: C_3  and  C_4
REMARK    4  A    between atoms: C_4  and  O_5
REMARK    5  A    between atoms: O_5  and  C_6
REMARK    6  A    between atoms: C_9  and  C_10
REMARK    7  A    between atoms: C_10  and  N_11
REMARK    8  A    between atoms: C_12  and  C_14
REMARK                            x       y       z     vdW  Elec       q    Type
REMARK                         _______ _______ _______ _____ _____    ______ ____
ROOT
ATOM      1  N   UNL     1       7.314   8.015  17.211  0.00  0.00    +0.000 N 
ATOM      2  C   UNL     1       8.200   8.285  18.234  0.00  0.00    +0.000 C 
ATOM      3  O   UNL     1       8.594   7.398  18.989  0.00  0.00    +0.000 OA
ATOM      4  H   UNL     1       7.090   8.751  16.553  0.00  0.00    +0.000 HD
ENDROOT
BRANCH   2   5
ATOM      5  C   UNL     1       8.649   9.660  18.352  0.00  0.00    +0.000 A 
ATOM      6  C   UNL     1       8.304  10.761  17.580  0.00  0.00    +0.000 A 
ATOM      7  C   UNL     1       9.011  11.871  18.099  0.00  0.00    +0.000 A 
ATOM      8  C   UNL     1       9.093  13.240  17.783  0.00  0.00    +0.000 A 
ATOM      9  C   UNL     1       9.946  14.062  18.536  0.00  0.00    +0.000 A 
ATOM     10  C   UNL     1      10.704  13.535  19.581  0.00  0.00    +0.000 A 
ATOM     11  C   UNL     1      10.625  12.179  19.907  0.00  0.00    +0.000 A 
ATOM     12  F   UNL     1      11.359  11.686  20.912  0.00  0.00    +0.000 F 
ATOM     13  C   UNL     1       9.771  11.376  19.154  0.00  0.00    +0.000 A 
ATOM     14  O   UNL     1       9.545  10.035  19.316  0.00  0.00    +0.000 OA
ENDBRANCH   2   5
BRANCH   1  15
ATOM     15  C   UNL     1       6.889   6.652  16.989  0.00  0.00    +0.000 C 
BRANCH  15  19
ATOM     16  C   UNL     1       3.355   5.538  19.058  0.00  0.00    +0.000 A 
ATOM     17  C   UNL     1       3.219   6.389  17.974  0.00  0.00    +0.000 A 
ATOM     18  C   UNL     1       4.373   6.784  17.295  0.00  0.00    +0.000 A 
ATOM     19  C   UNL     1       5.619   6.295  17.699  0.00  0.00    +0.000 A 
ATOM     20  C   UNL     1       5.638   5.425  18.783  0.00  0.00    +0.000 A 
ATOM     21  N   UNL     1       4.539   5.040  19.467  0.00  0.00    +0.000 NA
BRANCH  16  22
ATOM     22  O   UNL     1       2.204   5.173  19.728  0.00  0.00    +0.000 OA
BRANCH  22  23
ATOM     23  C   UNL     1       1.494   4.147  19.023  0.00  0.00    +0.000 C 
BRANCH  23  24
ATOM     24  C   UNL     1       1.284   2.945  19.937  0.00  0.00    +0.000 C 
BRANCH  24  26
ATOM     25  C   UNL     1       2.572   2.044  18.174  0.00  0.00    +0.000 C 
ATOM     26  O   UNL     1       1.677   1.760  19.241  0.00  0.00    +0.000 OA
ENDBRANCH  24  26
ENDBRANCH  23  24
ENDBRANCH  22  23
ENDBRANCH  16  22
ENDBRANCH  15  19
ENDBRANCH   1  15
TORSDOF 7
ENDMDL
MODEL 2
REMARK VINA RESULT:      -7.1      1.125      1.392
REMARK  Name = 
REMARK  8 active torsions:
REMARK  status: ('A' for Active; 'I' for Inactive)
REMARK    1  A    between atoms: C_1  and  O_2
REMARK    2  A    between atoms: O_2  and  C_3
REMARK    3  A    between atoms: C_3  and  C_4
REMARK    4  A    between atoms: C_4  and  O_5
REMARK    5  A    between atoms: O_5  and  C_6
REMARK    6  A    between atoms: C_9  and  C_10
REMARK    7  A    between atoms: C_10  and  N_11
REMARK    8  A    between atoms: C_12  and  C_14
REMARK                            x       y       z     vdW  Elec       q    Type
REMARK                         _______ _______ _______ _____ _____    ______ ____
ROOT
ATOM      1  N   UNL     1       7.386   7.525  16.941  0.00  0.00    +0.000 N 
ATOM      2  C   UNL     1       8.081   7.869  18.084  0.00  0.00    +0.000 C 
ATOM      3  O   UNL     1       8.390   7.023  18.921  0.00  0.00    +0.000 OA
ATOM      4  H   UNL     1       7.237   8.232  16.231  0.00  0.00    +0.000 HD
ENDROOT
BRANCH   2   5
ATOM      5  C   UNL     1       8.436   9.269  18.226  0.00  0.00    +0.000 A 
ATOM      6  C   UNL     1       8.071  10.347  17.433  0.00  0.00    +0.000 A 
ATOM      7  C   UNL     1       8.677  11.497  17.991  0.00  0.00    +0.000 A 
ATOM      8  C   UNL     1       8.694  12.870  17.678  0.00  0.00    +0.000 A 
ATOM      9  C   UNL     1       9.447  13.741  18.480  0.00  0.00    +0.000 A 
ATOM     10  C   UNL     1      10.173  13.260  19.569  0.00  0.00    +0.000 A 
ATOM     11  C   UNL     1      10.157  11.900  19.892  0.00  0.00    +0.000 A 
ATOM     12  F   UNL     1      10.858  11.452  20.941  0.00  0.00    +0.000 F 
ATOM     13  C   UNL     1       9.401  11.048  19.091  0.00  0.00    +0.000 A 
ATOM     14  O   UNL     1       9.248   9.695  19.242  0.00  0.00    +0.000 OA
ENDBRANCH   2   5
BRANCH   1  15
ATOM     15  C   UNL     1       7.071   6.136  16.699  0.00  0.00    +0.000 C 
BRANCH  15  19
ATOM     16  C   UNL     1       3.153   5.157  18.004  0.00  0.00    +0.000 A 
ATOM     17  C   UNL     1       4.058   4.118  17.863  0.00  0.00    +0.000 A 
ATOM     18  C   UNL     1       5.345   4.419  17.412  0.00  0.00    +0.000 A 
ATOM     19  C   UNL     1       5.696   5.746  17.148  0.00  0.00    +0.000 A 
ATOM     20  C   UNL     1       4.718   6.713  17.349  0.00  0.00    +0.000 A 
ATOM     21  N   UNL     1       3.462   6.448  17.768  0.00  0.00    +0.000 NA
BRANCH  16  22
ATOM     22  O   UNL     1       1.879   4.837  18.433  0.00  0.00    +0.000 OA
BRANCH  22  23
ATOM     23  C   UNL     1       1.810   3.483  18.896  0.00  0.00    +0.000 C 
BRANCH  23  24
ATOM     24  C   UNL     1       0.732   3.358  19.965  0.00  0.00    +0.000 C 
BRANCH  24  26
ATOM     25  C   UNL     1       2.627   2.749  21.236  0.00  0.00    +0.000 C 
ATOM     26  O   UNL     1       1.352   3.376  21.253  0.00  0.00    +0.000 OA
ENDBRANCH  24  26
ENDBRANCH  23  24
ENDBRANCH  22  23
ENDBRANCH  16  22
ENDBRANCH  15  19
ENDBRANCH   1  15
TORSDOF 7
ENDMDL
MODEL 3
REMARK VINA RESULT:      -7.0      0.708      1.047
REMARK  Name = 
REMARK  8 active torsions:
REMARK  status: ('A' for Active; 'I' for Inactive)
REMARK    1  A    between atoms: C_1  and  O_2
REMARK    2  A    between atoms: O_2  and  C_3
REMARK    3  A    between atoms: C_3  and  C_4
REMARK    4  A    between atoms: C_4  and  O_5
REMARK    5  A    between atoms: O_5  and  C_6
REMARK    6  A    between atoms: C_9  and  C_10
REMARK    7  A    between atoms: C_10  and  N_11
REMARK    8  A    between atoms: C_12  and  C_14
REMARK                            x       y       z     vdW  Elec       q    Type
REMARK                         _______ _______ _______ _____ _____    ______ ____
ROOT
ATOM      1  N   UNL     1       7.402   8.011  17.167  0.00  0.00    +0.000 N 
ATOM      2  C   UNL     1       8.235   8.297  18.230  0.00  0.00    +0.000 C 
ATOM      3  O   UNL     1       8.589   7.422  19.018  0.00  0.00    +0.000 OA
ATOM      4  H   UNL     1       7.213   8.737  16.487  0.00  0.00    +0.000 HD
ENDROOT
BRANCH   2   5
ATOM      5  C   UNL     1       8.679   9.674  18.349  0.00  0.00    +0.000 A 
ATOM      6  C   UNL     1       8.296  10.782  17.607  0.00  0.00    +0.000 A 
ATOM      7  C   UNL     1       9.017  11.890  18.112  0.00  0.00    +0.000 A 
ATOM      8  C   UNL     1       9.077  13.264  17.813  0.00  0.00    +0.000 A 
ATOM      9  C   UNL     1       9.953  14.082  18.542  0.00  0.00    +0.000 A 
ATOM     10  C   UNL     1      10.757  13.546  19.548  0.00  0.00    +0.000 A 
ATOM     11  C   UNL     1      10.700  12.184  19.858  0.00  0.00    +0.000 A 
ATOM     12  F   UNL     1      11.477  11.684  20.826  0.00  0.00    +0.000 F 
ATOM     13  C   UNL     1       9.821  11.386  19.130  0.00  0.00    +0.000 A 
ATOM     14  O   UNL     1       9.611  10.041  19.282  0.00  0.00    +0.000 OA
ENDBRANCH   2   5
BRANCH   1  15
ATOM     15  C   UNL     1       6.987   6.645  16.945  0.00  0.00    +0.000 C 
BRANCH  15  19
ATOM     16  C   UNL     1       3.314   5.731  18.864  0.00  0.00    +0.000 A 
ATOM     17  C   UNL     1       4.454   5.098  19.331  0.00  0.00    +0.000 A 
ATOM     18  C   UNL     1       5.667   5.369  18.697  0.00  0.00    +0.000 A 
ATOM     19  C   UNL     1       5.710   6.284  17.641  0.00  0.00    +0.000 A 
ATOM     20  C   UNL     1       4.511   6.883  17.271  0.00  0.00    +0.000 A 
ATOM     21  N   UNL     1       3.322   6.627  17.856  0.00  0.00    +0.000 NA
BRANCH  16  22
ATOM     22  O   UNL     1       2.120   5.436  19.493  0.00  0.00    +0.000 OA
BRANCH  22  23
ATOM     23  C   UNL     1       2.199   4.195  20.205  0.00  0.00    +0.000 C 
BRANCH  23  24
ATOM     24  C   UNL     1       0.840   3.505  20.189  0.00  0.00    +0.000 C 
BRANCH  24  26
ATOM     25  C   UNL     1       2.205   2.129  18.840  0.00  0.00    +0.000 C 
ATOM     26  O   UNL     1       0.878   2.430  19.247  0.00  0.00    +0.000 OA
ENDBRANCH  24  26
ENDBRANCH  23  24
ENDBRANCH  22  23
ENDBRANCH  16  22
ENDBRANCH  15  19
ENDBRANCH   1  15
TORSDOF 7
ENDMDL
MODEL 4
REMARK VINA RESULT:      -7.0      1.094      1.297
REMARK  Name = 
REMARK  8 active torsions:
REMARK  status: ('A' for Active; 'I' for Inactive)
REMARK    1  A    between atoms: C_1  and  O_2
REMARK    2  A    between atoms: O_2  and  C_3
REMARK    3  A    between atoms: C_3  and  C_4
REMARK    4  A    between atoms: C_4  and  O_5
REMARK    5  A    between atoms: O_5  and  C_6
REMARK    6  A    between atoms: C_9  and  C_10
REMARK    7  A    between atoms: C_10  and  N_11
REMARK    8  A    between atoms: C_12  and  C_14
REMARK                            x       y       z     vdW  Elec       q    Type
REMARK                         _______ _______ _______ _____ _____    ______ ____
ROOT
ATOM      1  N   UNL     1       7.421   7.536  16.980  0.00  0.00    +0.000 N 
ATOM      2  C   UNL     1       8.116   7.890  18.120  0.00  0.00    +0.000 C 
ATOM      3  O   UNL     1       8.435   7.049  18.959  0.00  0.00    +0.000 OA
ATOM      4  H   UNL     1       7.262   8.240  16.269  0.00  0.00    +0.000 HD
ENDROOT
BRANCH   2   5
ATOM      5  C   UNL     1       8.459   9.293  18.257  0.00  0.00    +0.000 A 
ATOM      6  C   UNL     1       8.083  10.366  17.461  0.00  0.00    +0.000 A 
ATOM      7  C   UNL     1       8.679  11.523  18.014  0.00  0.00    +0.000 A 
ATOM      8  C   UNL     1       8.683  12.895  17.697  0.00  0.00    +0.000 A 
ATOM      9  C   UNL     1       9.430  13.775  18.495  0.00  0.00    +0.000 A 
ATOM     10  C   UNL     1      10.160  13.304  19.586  0.00  0.00    +0.000 A 
ATOM     11  C   UNL     1      10.157  11.945  19.913  0.00  0.00    +0.000 A 
ATOM     12  F   UNL     1      10.863  11.507  20.963  0.00  0.00    +0.000 F 
ATOM     13  C   UNL     1       9.408  11.084  19.116  0.00  0.00    +0.000 A 
ATOM     14  O   UNL     1       9.268   9.730  19.271  0.00  0.00    +0.000 OA
ENDBRANCH   2   5
BRANCH   1  15
ATOM     15  C   UNL     1       7.117   6.144  16.743  0.00  0.00    +0.000 C 
BRANCH  15  19
ATOM     16  C   UNL     1       3.117   4.992  17.571  0.00  0.00    +0.000 A 
ATOM     17  C   UNL     1       3.481   6.295  17.868  0.00  0.00    +0.000 A 
ATOM     18  C   UNL     1       4.799   6.685  17.623  0.00  0.00    +0.000 A 
ATOM     19  C   UNL     1       5.701   5.775  17.063  0.00  0.00    +0.000 A 
ATOM     20  C   UNL     1       5.223   4.501  16.780  0.00  0.00    +0.000 A 
ATOM     21  N   UNL     1       3.958   4.093  17.022  0.00  0.00    +0.000 NA
BRANCH  16  22
ATOM     22  O   UNL     1       1.814   4.619  17.837  0.00  0.00    +0.000 OA
BRANCH  22  23
ATOM     23  C   UNL     1       1.728   3.229  18.176  0.00  0.00    +0.000 C 
BRANCH  23  24
ATOM     24  C   UNL     1       2.412   2.983  19.516  0.00  0.00    +0.000 C 
BRANCH  24  26
ATOM     25  C   UNL     1       1.487   2.766  21.678  0.00  0.00    +0.000 C 
ATOM     26  O   UNL     1       1.527   2.241  20.358  0.00  0.00    +0.000 OA
ENDBRANCH  24  26
ENDBRANCH  23  24
ENDBRANCH  22  23
ENDBRANCH  16  22
ENDBRANCH  15  19
ENDBRANCH   1  15
TORSDOF 7
ENDMDL
MODEL 5
REMARK VINA RESULT:      -6.9      5.336      8.081
REMARK  Name = 
REMARK  8 active torsions:
REMARK  status: ('A' for Active; 'I' for Inactive)
REMARK    1  A    between atoms: C_1  and  O_2
REMARK    2  A    between atoms: O_2  and  C_3
REMARK    3  A    between atoms: C_3  and  C_4
REMARK    4  A    between atoms: C_4  and  O_5
REMARK    5  A    between atoms: O_5  and  C_6
REMARK    6  A    between atoms: C_9  and  C_10
REMARK    7  A    between atoms: C_10  and  N_11
REMARK    8  A    between atoms: C_12  and  C_14
REMARK                            x       y       z     vdW  Elec       q    Type
REMARK                         _______ _______ _______ _____ _____    ______ ____
ROOT
ATOM      1  N   UNL     1       2.478   7.306  20.325  0.00  0.00    +0.000 N 
ATOM      2  C   UNL     1       2.404   5.992  19.907  0.00  0.00    +0.000 C 
ATOM      3  O   UNL     1       1.513   5.245  20.306  0.00  0.00    +0.000 OA
ATOM      4  H   UNL     1       3.167   7.914  19.900  0.00  0.00    +0.000 HD
ENDROOT
BRANCH   2   5
ATOM      5  C   UNL     1       3.419   5.557  18.966  0.00  0.00    +0.000 A 
ATOM      6  C   UNL     1       3.260   5.019  17.697  0.00  0.00    +0.000 A 
ATOM      7  C   UNL     1       4.555   4.760  17.190  0.00  0.00    +0.000 A 
ATOM      8  C   UNL     1       5.073   4.240  15.988  0.00  0.00    +0.000 A 
ATOM      9  C   UNL     1       6.463   4.111  15.846  0.00  0.00    +0.000 A 
ATOM     10  C   UNL     1       7.323   4.488  16.877  0.00  0.00    +0.000 A 
ATOM     11  C   UNL     1       6.820   5.011  18.071  0.00  0.00    +0.000 A 
ATOM     12  F   UNL     1       7.657   5.369  19.052  0.00  0.00    +0.000 F 
ATOM     13  C   UNL     1       5.439   5.139  18.196  0.00  0.00    +0.000 A 
ATOM     14  O   UNL     1       4.751   5.632  19.273  0.00  0.00    +0.000 OA
ENDBRANCH   2   5
BRANCH   1  15
ATOM     15  C   UNL     1       1.453   7.826  21.200  0.00  0.00    +0.000 C 
BRANCH  15  19
ATOM     16  C   UNL     1      -0.730  11.136  19.687  0.00  0.00    +0.000 A 
ATOM     17  C   UNL     1       0.073  10.441  18.798  0.00  0.00    +0.000 A 
ATOM     18  C   UNL     1       0.816   9.363  19.284  0.00  0.00    +0.000 A 
ATOM     19  C   UNL     1       0.710   8.995  20.628  0.00  0.00    +0.000 A 
ATOM     20  C   UNL     1      -0.147   9.745  21.426  0.00  0.00    +0.000 A 
ATOM     21  N   UNL     1      -0.863  10.802  20.986  0.00  0.00    +0.000 NA
BRANCH  16  22
ATOM     22  O   UNL     1      -1.444  12.211  19.192  0.00  0.00    +0.000 OA
BRANCH  22  23
ATOM     23  C   UNL     1      -1.912  11.957  17.861  0.00  0.00    +0.000 C 
BRANCH  23  24
ATOM     24  C   UNL     1      -3.378  11.544  17.902  0.00  0.00    +0.000 C 
BRANCH  24  26
ATOM     25  C   UNL     1      -2.713  10.600  15.842  0.00  0.00    +0.000 C 
ATOM     26  O   UNL     1      -3.787  11.157  16.588  0.00  0.00    +0.000 OA
ENDBRANCH  24  26
ENDBRANCH  23  24
ENDBRANCH  22  23
ENDBRANCH  16  22
ENDBRANCH  15  19
ENDBRANCH   1  15
TORSDOF 7
ENDMDL
MODEL 6
REMARK VINA RESULT:      -6.9      6.872      9.528
REMARK  Name = 
REMARK  8 active torsions:
REMARK  status: ('A' for Active; 'I' for Inactive)
REMARK    1  A    between atoms: C_1  and  O_2
REMARK    2  A    between atoms: O_2  and  C_3
REMARK    3  A    between atoms: C_3  and  C_4
REMARK    4  A    between atoms: C_4  and  O_5
REMARK    5  A    between atoms: O_5  and  C_6
REMARK    6  A    between atoms: C_9  and  C_10
REMARK    7  A    between atoms: C_10  and  N_11
REMARK    8  A    between atoms: C_12  and  C_14
REMARK                            x       y       z     vdW  Elec       q    Type
REMARK                         _______ _______ _______ _____ _____    ______ ____
ROOT
ATOM      1  N   UNL     1       0.876   9.185  18.946  0.00  0.00    +0.000 N 
ATOM      2  C   UNL     1       1.940   9.094  18.071  0.00  0.00    +0.000 C 
ATOM      3  O   UNL     1       2.356  10.080  17.466  0.00  0.00    +0.000 OA
ATOM      4  H   UNL     1       0.627   8.372  19.496  0.00  0.00    +0.000 HD
ENDROOT
BRANCH   2   5
ATOM      5  C   UNL     1       2.543   7.782  17.923  0.00  0.00    +0.000 A 
ATOM      6  C   UNL     1       3.834   7.452  17.538  0.00  0.00    +0.000 A 
ATOM      7  C   UNL     1       3.924   6.040  17.549  0.00  0.00    +0.000 A 
ATOM      8  C   UNL     1       4.936   5.101  17.276  0.00  0.00    +0.000 A 
ATOM      9  C   UNL     1       4.641   3.733  17.382  0.00  0.00    +0.000 A 
ATOM     10  C   UNL     1       3.365   3.305  17.749  0.00  0.00    +0.000 A 
ATOM     11  C   UNL     1       2.356   4.230  18.029  0.00  0.00    +0.000 A 
ATOM     12  F   UNL     1       1.136   3.805  18.380  0.00  0.00    +0.000 F 
ATOM     13  C   UNL     1       2.664   5.584  17.925  0.00  0.00    +0.000 A 
ATOM     14  O   UNL     1       1.826   6.640  18.162  0.00  0.00    +0.000 OA
ENDBRANCH   2   5
BRANCH   1  15
ATOM     15  C   UNL     1       0.281  10.477  19.200  0.00  0.00    +0.000 C 
BRANCH  15  19
ATOM     16  C   UNL     1      -3.558  11.050  17.482  0.00  0.00    +0.000 A 
ATOM     17  C   UNL     1      -2.721  10.123  16.882  0.00  0.00    +0.000 A 
ATOM     18  C   UNL     1      -1.446   9.938  17.420  0.00  0.00    +0.000 A 
ATOM     19  C   UNL     1      -1.059  10.658  18.554  0.00  0.00    +0.000 A 
ATOM     20  C   UNL     1      -1.987  11.543  19.092  0.00  0.00    +0.000 A 
ATOM     21  N   UNL     1      -3.220  11.753  18.582  0.00  0.00    +0.000 NA
BRANCH  16  22
ATOM     22  O   UNL     1      -4.808  11.233  16.924  0.00  0.00    +0.000 OA
BRANCH  22  23
ATOM     23  C   UNL     1      -5.593  12.152  17.695  0.00  0.00    +0.000 C 
BRANCH  23  24
ATOM     24  C   UNL     1      -6.875  11.471  18.160  0.00  0.00    +0.000 C 
BRANCH  24  26
ATOM     25  C   UNL     1      -6.921   9.476  19.423  0.00  0.00    +0.000 C 
ATOM     26  O   UNL     1      -6.644  10.870  19.436  0.00  0.00    +0.000 OA
ENDBRANCH  24  26
ENDBRANCH  23  24
ENDBRANCH  22  23
ENDBRANCH  16  22
ENDBRANCH  15  19
ENDBRANCH   1  15
TORSDOF 7
ENDMDL
MODEL 7
REMARK VINA RESULT:      -6.9      5.592      7.747
REMARK  Name = 
REMARK  8 active torsions:
REMARK  status: ('A' for Active; 'I' for Inactive)
REMARK    1  A    between atoms: C_1  and  O_2
REMARK    2  A    between atoms: O_2  and  C_3
REMARK    3  A    between atoms: C_3  and  C_4
REMARK    4  A    between atoms: C_4  and  O_5
REMARK    5  A    between atoms: O_5  and  C_6
REMARK    6  A    between atoms: C_9  and  C_10
REMARK    7  A    between atoms: C_10  and  N_11
REMARK    8  A    between atoms: C_12  and  C_14
REMARK                            x       y       z     vdW  Elec       q    Type
REMARK                         _______ _______ _______ _____ _____    ______ ____
ROOT
ATOM      1  N   UNL     1       3.985   5.720  17.581  0.00  0.00    +0.000 N 
ATOM      2  C   UNL     1       5.311   5.797  17.205  0.00  0.00    +0.000 C 
ATOM      3  O   UNL     1       6.158   6.289  17.949  0.00  0.00    +0.000 OA
ATOM      4  H   UNL     1       3.337   5.221  16.983  0.00  0.00    +0.000 HD
ENDROOT
BRANCH   2   5
ATOM      5  C   UNL     1       5.645   5.252  15.902  0.00  0.00    +0.000 A 
ATOM      6  C   UNL     1       4.985   4.276  15.169  0.00  0.00    +0.000 A 
ATOM      7  C   UNL     1       5.709   4.099  13.966  0.00  0.00    +0.000 A 
ATOM      8  C   UNL     1       5.565   3.291  12.823  0.00  0.00    +0.000 A 
ATOM      9  C   UNL     1       6.523   3.381  11.802  0.00  0.00    +0.000 A 
ATOM     10  C   UNL     1       7.604   4.255  11.913  0.00  0.00    +0.000 A 
ATOM     11  C   UNL     1       7.751   5.067  13.041  0.00  0.00    +0.000 A 
ATOM     12  F   UNL     1       8.794   5.902  13.134  0.00  0.00    +0.000 F 
ATOM     13  C   UNL     1       6.791   4.971  14.044  0.00  0.00    +0.000 A 
ATOM     14  O   UNL     1       6.749   5.679  15.216  0.00  0.00    +0.000 OA
ENDBRANCH   2   5
BRANCH   1  15
ATOM     15  C   UNL     1       3.598   6.172  18.898  0.00  0.00    +0.000 C 
BRANCH  15  19
ATOM     16  C   UNL     1       1.151   9.637  18.746  0.00  0.00    +0.000 A 
ATOM     17  C   UNL     1       1.149   8.904  19.921  0.00  0.00    +0.000 A 
ATOM     18  C   UNL     1       1.930   7.748  19.981  0.00  0.00    +0.000 A 
ATOM     19  C   UNL     1       2.711   7.379  18.882  0.00  0.00    +0.000 A 
ATOM     20  C   UNL     1       2.659   8.202  17.762  0.00  0.00    +0.000 A 
ATOM     21  N   UNL     1       1.900   9.315  17.672  0.00  0.00    +0.000 NA
BRANCH  16  22
ATOM     22  O   UNL     1       0.358  10.767  18.699  0.00  0.00    +0.000 OA
BRANCH  22  23
ATOM     23  C   UNL     1      -0.953  10.504  19.216  0.00  0.00    +0.000 C 
BRANCH  23  24
ATOM     24  C   UNL     1      -1.895  11.637  18.829  0.00  0.00    +0.000 C 
BRANCH  24  26
ATOM     25  C   UNL     1      -2.719   9.820  17.565  0.00  0.00    +0.000 C 
ATOM     26  O   UNL     1      -3.016  11.090  18.130  0.00  0.00    +0.000 OA
ENDBRANCH  24  26
ENDBRANCH  23  24
ENDBRANCH  22  23
ENDBRANCH  16  22
ENDBRANCH  15  19
ENDBRANCH   1  15
TORSDOF 7
ENDMDL
MODEL 8
REMARK VINA RESULT:      -6.9      5.609      7.789
REMARK  Name = 
REMARK  8 active torsions:
REMARK  status: ('A' for Active; 'I' for Inactive)
REMARK    1  A    between atoms: C_1  and  O_2
REMARK    2  A    between atoms: O_2  and  C_3
REMARK    3  A    between atoms: C_3  and  C_4
REMARK    4  A    between atoms: C_4  and  O_5
REMARK    5  A    between atoms: O_5  and  C_6
REMARK    6  A    between atoms: C_9  and  C_10
REMARK    7  A    between atoms: C_10  and  N_11
REMARK    8  A    between atoms: C_12  and  C_14
REMARK                            x       y       z     vdW  Elec       q    Type
REMARK                         _______ _______ _______ _____ _____    ______ ____
ROOT
ATOM      1  N   UNL     1       4.043   5.490  17.739  0.00  0.00    +0.000 N 
ATOM      2  C   UNL     1       5.313   5.761  17.270  0.00  0.00    +0.000 C 
ATOM      3  O   UNL     1       6.116   6.409  17.939  0.00  0.00    +0.000 OA
ATOM      4  H   UNL     1       3.447   4.872  17.202  0.00  0.00    +0.000 HD
ENDROOT
BRANCH   2   5
ATOM      5  C   UNL     1       5.646   5.225  15.963  0.00  0.00    +0.000 A 
ATOM      6  C   UNL     1       5.005   4.232  15.237  0.00  0.00    +0.000 A 
ATOM      7  C   UNL     1       5.718   4.075  14.026  0.00  0.00    +0.000 A 
ATOM      8  C   UNL     1       5.584   3.262  12.884  0.00  0.00    +0.000 A 
ATOM      9  C   UNL     1       6.527   3.379  11.852  0.00  0.00    +0.000 A 
ATOM     10  C   UNL     1       7.584   4.283  11.950  0.00  0.00    +0.000 A 
ATOM     11  C   UNL     1       7.723   5.098  13.076  0.00  0.00    +0.000 A 
ATOM     12  F   UNL     1       8.743   5.961  13.158  0.00  0.00    +0.000 F 
ATOM     13  C   UNL     1       6.777   4.976  14.091  0.00  0.00    +0.000 A 
ATOM     14  O   UNL     1       6.730   5.683  15.263  0.00  0.00    +0.000 OA
ENDBRANCH   2   5
BRANCH   1  15
ATOM     15  C   UNL     1       3.674   5.926  19.066  0.00  0.00    +0.000 C 
BRANCH  15  19
ATOM     16  C   UNL     1       1.085   9.286  19.208  0.00  0.00    +0.000 A 
ATOM     17  C   UNL     1       1.699   9.003  17.999  0.00  0.00    +0.000 A 
ATOM     18  C   UNL     1       2.571   7.915  17.939  0.00  0.00    +0.000 A 
ATOM     19  C   UNL     1       2.779   7.128  19.076  0.00  0.00    +0.000 A 
ATOM     20  C   UNL     1       2.091   7.485  20.230  0.00  0.00    +0.000 A 
ATOM     21  N   UNL     1       1.255   8.542  20.319  0.00  0.00    +0.000 NA
BRANCH  16  22
ATOM     22  O   UNL     1       0.239  10.377  19.251  0.00  0.00    +0.000 OA
BRANCH  22  23
ATOM     23  C   UNL     1      -0.668  10.378  18.142  0.00  0.00    +0.000 C 
BRANCH  23  24
ATOM     24  C   UNL     1      -1.525  11.638  18.178  0.00  0.00    +0.000 C 
BRANCH  24  26
ATOM     25  C   UNL     1      -3.876  11.445  18.067  0.00  0.00    +0.000 C 
ATOM     26  O   UNL     1      -2.661  11.451  17.331  0.00  0.00    +0.000 OA
ENDBRANCH  24  26
ENDBRANCH  23  24
ENDBRANCH  22  23
ENDBRANCH  16  22
ENDBRANCH  15  19
ENDBRANCH   1  15
TORSDOF 7
ENDMDL
MODEL 9
REMARK VINA RESULT:      -6.8      1.753      2.096
REMARK  Name = 
REMARK  8 active torsions:
REMARK  status: ('A' for Active; 'I' for Inactive)
REMARK    1  A    between atoms: C_1  and  O_2
REMARK    2  A    between atoms: O_2  and  C_3
REMARK    3  A    between atoms: C_3  and  C_4
REMARK    4  A    between atoms: C_4  and  O_5
REMARK    5  A    between atoms: O_5  and  C_6
REMARK    6  A    between atoms: C_9  and  C_10
REMARK    7  A    between atoms: C_10  and  N_11
REMARK    8  A    between atoms: C_12  and  C_14
REMARK                            x       y       z     vdW  Elec       q    Type
REMARK                         _______ _______ _______ _____ _____    ______ ____
ROOT
ATOM      1  N   UNL     1       6.848   7.409  16.735  0.00  0.00    +0.000 N 
ATOM      2  C   UNL     1       7.683   7.481  17.833  0.00  0.00    +0.000 C 
ATOM      3  O   UNL     1       7.963   6.480  18.489  0.00  0.00    +0.000 OA
ATOM      4  H   UNL     1       6.720   8.237  16.166  0.00  0.00    +0.000 HD
ENDROOT
BRANCH   2   5
ATOM      5  C   UNL     1       8.219   8.792  18.151  0.00  0.00    +0.000 A 
ATOM      6  C   UNL     1       9.133   9.148  19.132  0.00  0.00    +0.000 A 
ATOM      7  C   UNL     1       9.327  10.546  19.032  0.00  0.00    +0.000 A 
ATOM      8  C   UNL     1      10.113  11.497  19.711  0.00  0.00    +0.000 A 
ATOM      9  C   UNL     1      10.028  12.845  19.331  0.00  0.00    +0.000 A 
ATOM     10  C   UNL     1       9.177  13.243  18.299  0.00  0.00    +0.000 A 
ATOM     11  C   UNL     1       8.398  12.306  17.616  0.00  0.00    +0.000 A 
ATOM     12  F   UNL     1       7.586  12.702  16.628  0.00  0.00    +0.000 F 
ATOM     13  C   UNL     1       8.497  10.971  18.000  0.00  0.00    +0.000 A 
ATOM     14  O   UNL     1       7.829   9.906  17.456  0.00  0.00    +0.000 OA
ENDBRANCH   2   5
BRANCH   1  15
ATOM     15  C   UNL     1       6.344   6.122  16.317  0.00  0.00    +0.000 C 
BRANCH  15  19
ATOM     16  C   UNL     1       2.778   4.852  18.237  0.00  0.00    +0.000 A 
ATOM     17  C   UNL     1       2.979   6.215  18.100  0.00  0.00    +0.000 A 
ATOM     18  C   UNL     1       4.158   6.652  17.491  0.00  0.00    +0.000 A 
ATOM     19  C   UNL     1       5.080   5.717  17.012  0.00  0.00    +0.000 A 
ATOM     20  C   UNL     1       4.766   4.373  17.177  0.00  0.00    +0.000 A 
ATOM     21  N   UNL     1       3.642   3.924  17.777  0.00  0.00    +0.000 NA
BRANCH  16  22
ATOM     22  O   UNL     1       1.615   4.439  18.858  0.00  0.00    +0.000 OA
BRANCH  22  23
ATOM     23  C   UNL     1       1.556   4.903  20.213  0.00  0.00    +0.000 C 
BRANCH  23  24
ATOM     24  C   UNL     1       1.563   3.712  21.165  0.00  0.00    +0.000 C 
BRANCH  24  26
ATOM     25  C   UNL     1       3.412   2.264  20.921  0.00  0.00    +0.000 C 
ATOM     26  O   UNL     1       2.097   2.576  20.482  0.00  0.00    +0.000 OA
ENDBRANCH  24  26
ENDBRANCH  23  24
ENDBRANCH  22  23
ENDBRANCH  16  22
ENDBRANCH  15  19
ENDBRANCH   1  15
TORSDOF 7
ENDMDL
