MODEL 1
REMARK VINA RESULT:      -7.9      0.000      0.000
REMARK  Name = 
REMARK  8 active torsions:
REMARK  status: ('A' for Active; 'I' for Inactive)
REMARK    1  A    between atoms: C_1  and  C_2
REMARK    2  A    between atoms: C_2  and  C_3
REMARK    3  A    between atoms: C_8  and  C_10
REMARK    4  A    between atoms: C_10  and  S_11
REMARK    5  A    between atoms: S_11  and  C_12
REMARK    6  A    between atoms: C_15  and  C_16
REMARK    7  A    between atoms: C_21  and  O_22
REMARK    8  A    between atoms: O_22  and  C_23
REMARK                            x       y       z     vdW  Elec       q    Type
REMARK                         _______ _______ _______ _____ _____    ______ ____
ROOT
ATOM      1  C   UNL     1       2.161   7.006  19.665  0.00  0.00    +0.000 A 
ATOM      2  C   UNL     1       2.303   7.522  18.392  0.00  0.00    +0.000 A 
ATOM      3  C   UNL     1       1.873   8.821  18.130  0.00  0.00    +0.000 A 
ATOM      4  C   UNL     1       1.268   9.584  19.128  0.00  0.00    +0.000 A 
ATOM      5  N   UNL     1       1.150   9.050  20.365  0.00  0.00    +0.000 NA
ATOM      6  N   UNL     1       1.611   7.751  20.641  0.00  0.00    +0.000 NA
ENDROOT
BRANCH   4   7
ATOM      7  C   UNL     1       0.671  10.914  18.833  0.00  0.00    +0.000 A 
ATOM      8  C   UNL     1       1.497  12.063  18.947  0.00  0.00    +0.000 A 
ATOM      9  C   UNL     1       1.021  13.359  18.741  0.00  0.00    +0.000 A 
ATOM     10  C   UNL     1      -0.304  13.552  18.396  0.00  0.00    +0.000 A 
ATOM     11  C   UNL     1      -1.144  12.448  18.247  0.00  0.00    +0.000 A 
ATOM     12  C   UNL     1      -0.673  11.134  18.449  0.00  0.00    +0.000 A 
BRANCH  12  13
ATOM     13  O   UNL     1      -1.508  10.047  18.355  0.00  0.00    +0.000 OA
ATOM     14  C   UNL     1      -2.268   9.946  17.151  0.00  0.00    +0.000 C 
ENDBRANCH  12  13
ENDBRANCH   4   7
BRANCH   1  15
ATOM     15  S   UNL     1       2.734   5.344  19.941  0.00  0.00    +0.000 S 
BRANCH  15  16
ATOM     16  C   UNL     1       4.504   5.474  19.536  0.00  0.00    +0.000 C 
BRANCH  16  22
ATOM     17  C   UNL     1       6.716   4.381  14.045  0.00  0.00    +0.000 A 
ATOM     18  N   UNL     1       7.536   5.350  14.396  0.00  0.00    +0.000 NA
ATOM     19  N   UNL     1       7.328   5.751  15.708  0.00  0.00    +0.000 NA
ATOM     20  C   UNL     1       6.344   5.094  16.275  0.00  0.00    +0.000 A 
ATOM     21  N   UNL     1       5.911   5.364  17.554  0.00  0.00    +0.000 N 
ATOM     22  C   UNL     1       4.738   4.916  18.134  0.00  0.00    +0.000 C 
ATOM     23  O   UNL     1       3.932   4.135  17.635  0.00  0.00    +0.000 OA
ATOM     24  S   UNL     1       5.673   3.864  15.308  0.00  0.00    +0.000 S 
ATOM     25  H   UNL     1       6.415   6.120  18.000  0.00  0.00    +0.000 HD
BRANCH  17  27
ATOM     26  C   UNL     1       7.329   4.624  11.643  0.00  0.00    +0.000 C 
ATOM     27  C   UNL     1       6.645   3.758  12.691  0.00  0.00    +0.000 C 
ENDBRANCH  17  27
ENDBRANCH  16  22
ENDBRANCH  15  16
ENDBRANCH   1  15
TORSDOF 6
ENDMDL
MODEL 2
REMARK VINA RESULT:      -7.3      1.134      1.358
REMARK  Name = 
REMARK  8 active torsions:
REMARK  status: ('A' for Active; 'I' for Inactive)
REMARK    1  A    between atoms: C_1  and  C_2
REMARK    2  A    between atoms: C_2  and  C_3
REMARK    3  A    between atoms: C_8  and  C_10
REMARK    4  A    between atoms: C_10  and  S_11
REMARK    5  A    between atoms: S_11  and  C_12
REMARK    6  A    between atoms: C_15  and  C_16
REMARK    7  A    between atoms: C_21  and  O_22
REMARK    8  A    between atoms: O_22  and  C_23
REMARK                            x       y       z     vdW  Elec       q    Type
REMARK                         _______ _______ _______ _____ _____    ______ ____
ROOT
ATOM      1  C   UNL     1       2.142   7.614  19.269  0.00  0.00    +0.000 A 
ATOM      2  C   UNL     1       1.364   8.216  20.238  0.00  0.00    +0.000 A 
ATOM      3  C   UNL     1       0.966   9.541  20.069  0.00  0.00    +0.000 A 
ATOM      4  C   UNL     1       1.380  10.270  18.954  0.00  0.00    +0.000 A 
ATOM      5  N   UNL     1       2.137   9.647  18.022  0.00  0.00    +0.000 NA
ATOM      6  N   UNL     1       2.514   8.301  18.174  0.00  0.00    +0.000 NA
ENDROOT
BRANCH   4   7
ATOM      7  C   UNL     1       1.091  11.723  18.827  0.00  0.00    +0.000 A 
ATOM      8  C   UNL     1       2.186  12.621  18.725  0.00  0.00    +0.000 A 
ATOM      9  C   UNL     1       2.025  14.005  18.653  0.00  0.00    +0.000 A 
ATOM     10  C   UNL     1       0.751  14.544  18.664  0.00  0.00    +0.000 A 
ATOM     11  C   UNL     1      -0.354  13.696  18.736  0.00  0.00    +0.000 A 
ATOM     12  C   UNL     1      -0.202  12.296  18.806  0.00  0.00    +0.000 A 
BRANCH  12  13
ATOM     13  O   UNL     1      -1.285  11.458  18.930  0.00  0.00    +0.000 OA
ATOM     14  C   UNL     1      -2.223  11.488  17.854  0.00  0.00    +0.000 C 
ENDBRANCH  12  13
ENDBRANCH   4   7
BRANCH   1  15
ATOM     15  S   UNL     1       2.613   5.919  19.537  0.00  0.00    +0.000 S 
BRANCH  15  16
ATOM     16  C   UNL     1       4.399   5.954  19.183  0.00  0.00    +0.000 C 
BRANCH  16  22
ATOM     17  C   UNL     1       6.771   4.491  13.848  0.00  0.00    +0.000 A 
ATOM     18  N   UNL     1       7.667   5.382  14.222  0.00  0.00    +0.000 NA
ATOM     19  N   UNL     1       7.432   5.838  15.511  0.00  0.00    +0.000 NA
ATOM     20  C   UNL     1       6.358   5.300  16.037  0.00  0.00    +0.000 A 
ATOM     21  N   UNL     1       5.888   5.648  17.285  0.00  0.00    +0.000 N 
ATOM     22  C   UNL     1       4.648   5.336  17.810  0.00  0.00    +0.000 C 
ATOM     23  O   UNL     1       3.793   4.627  17.285  0.00  0.00    +0.000 OA
ATOM     24  S   UNL     1       5.617   4.117  15.063  0.00  0.00    +0.000 S 
ATOM     25  H   UNL     1       6.443   6.361  17.740  0.00  0.00    +0.000 HD
BRANCH  17  27
ATOM     26  C   UNL     1       5.333   3.244  12.242  0.00  0.00    +0.000 C 
ATOM     27  C   UNL     1       6.708   3.840  12.506  0.00  0.00    +0.000 C 
ENDBRANCH  17  27
ENDBRANCH  16  22
ENDBRANCH  15  16
ENDBRANCH   1  15
TORSDOF 6
ENDMDL
MODEL 3
REMARK VINA RESULT:      -7.3      1.678      2.096
REMARK  Name = 
REMARK  8 active torsions:
REMARK  status: ('A' for Active; 'I' for Inactive)
REMARK    1  A    between atoms: C_1  and  C_2
REMARK    2  A    between atoms: C_2  and  C_3
REMARK    3  A    between atoms: C_8  and  C_10
REMARK    4  A    between atoms: C_10  and  S_11
REMARK    5  A    between atoms: S_11  and  C_12
REMARK    6  A    between atoms: C_15  and  C_16
REMARK    7  A    between atoms: C_21  and  O_22
REMARK    8  A    between atoms: O_22  and  C_23
REMARK                            x       y       z     vdW  Elec       q    Type
REMARK                         _______ _______ _______ _____ _____    ______ ____
ROOT
ATOM      1  C   UNL     1       2.306   5.695  19.600  0.00  0.00    +0.000 A 
ATOM      2  C   UNL     1       2.484   6.547  18.528  0.00  0.00    +0.000 A 
ATOM      3  C   UNL     1       2.134   7.890  18.658  0.00  0.00    +0.000 A 
ATOM      4  C   UNL     1       1.572   8.366  19.843  0.00  0.00    +0.000 A 
ATOM      5  N   UNL     1       1.418   7.504  20.874  0.00  0.00    +0.000 NA
ATOM      6  N   UNL     1       1.799   6.157  20.757  0.00  0.00    +0.000 NA
ENDROOT
BRANCH   4   7
ATOM      7  C   UNL     1       1.057   9.757  19.953  0.00  0.00    +0.000 A 
ATOM      8  C   UNL     1       1.071  10.573  18.791  0.00  0.00    +0.000 A 
ATOM      9  C   UNL     1       0.658  11.906  18.799  0.00  0.00    +0.000 A 
ATOM     10  C   UNL     1       0.197  12.469  19.976  0.00  0.00    +0.000 A 
ATOM     11  C   UNL     1       0.142  11.695  21.134  0.00  0.00    +0.000 A 
ATOM     12  C   UNL     1       0.554  10.346  21.136  0.00  0.00    +0.000 A 
BRANCH  12  13
ATOM     13  O   UNL     1       0.551   9.593  22.286  0.00  0.00    +0.000 OA
ATOM     14  C   UNL     1      -0.534   9.827  23.183  0.00  0.00    +0.000 C 
ENDBRANCH  12  13
ENDBRANCH   4   7
BRANCH   1  15
ATOM     15  S   UNL     1       2.777   3.993  19.376  0.00  0.00    +0.000 S 
BRANCH  15  16
ATOM     16  C   UNL     1       4.576   4.120  19.129  0.00  0.00    +0.000 C 
BRANCH  16  22
ATOM     17  C   UNL     1       7.057   4.670  13.672  0.00  0.00    +0.000 A 
ATOM     18  N   UNL     1       7.839   5.504  14.326  0.00  0.00    +0.000 NA
ATOM     19  N   UNL     1       7.563   5.510  15.685  0.00  0.00    +0.000 NA
ATOM     20  C   UNL     1       6.570   4.709  15.991  0.00  0.00    +0.000 A 
ATOM     21  N   UNL     1       6.073   4.597  17.271  0.00  0.00    +0.000 N 
ATOM     22  C   UNL     1       4.886   3.990  17.639  0.00  0.00    +0.000 C 
ATOM     23  O   UNL     1       4.121   3.378  16.898  0.00  0.00    +0.000 OA
ATOM     24  S   UNL     1       5.971   3.802  14.680  0.00  0.00    +0.000 S 
ATOM     25  H   UNL     1       6.540   5.197  17.938  0.00  0.00    +0.000 HD
BRANCH  17  27
ATOM     26  C   UNL     1       6.651   3.041  11.832  0.00  0.00    +0.000 C 
ATOM     27  C   UNL     1       7.062   4.460  12.193  0.00  0.00    +0.000 C 
ENDBRANCH  17  27
ENDBRANCH  16  22
ENDBRANCH  15  16
ENDBRANCH   1  15
TORSDOF 6
ENDMDL
MODEL 4
REMARK VINA RESULT:      -7.1      4.310     10.678
REMARK  Name = 
REMARK  8 active torsions:
REMARK  status: ('A' for Active; 'I' for Inactive)
REMARK    1  A    between atoms: C_1  and  C_2
REMARK    2  A    between atoms: C_2  and  C_3
REMARK    3  A    between atoms: C_8  and  C_10
REMARK    4  A    between atoms: C_10  and  S_11
REMARK    5  A    between atoms: S_11  and  C_12
REMARK    6  A    between atoms: C_15  and  C_16
REMARK    7  A    between atoms: C_21  and  O_22
REMARK    8  A    between atoms: O_22  and  C_23
REMARK                            x       y       z     vdW  Elec       q    Type
REMARK                         _______ _______ _______ _____ _____    ______ ____
ROOT
ATOM      1  C   UNL     1       1.197   8.927  20.088  0.00  0.00    +0.000 A 
ATOM      2  C   UNL     1       1.438   9.258  18.770  0.00  0.00    +0.000 A 
ATOM      3  C   UNL     1       2.150   8.374  17.962  0.00  0.00    +0.000 A 
ATOM      4  C   UNL     1       2.653   7.183  18.485  0.00  0.00    +0.000 A 
ATOM      5  N   UNL     1       2.394   6.887  19.779  0.00  0.00    +0.000 NA
ATOM      6  N   UNL     1       1.649   7.762  20.588  0.00  0.00    +0.000 NA
ENDROOT
BRANCH   4   7
ATOM      7  C   UNL     1       3.539   6.297  17.683  0.00  0.00    +0.000 A 
ATOM      8  C   UNL     1       4.481   6.901  16.808  0.00  0.00    +0.000 A 
ATOM      9  C   UNL     1       5.322   6.161  15.976  0.00  0.00    +0.000 A 
ATOM     10  C   UNL     1       5.262   4.780  16.002  0.00  0.00    +0.000 A 
ATOM     11  C   UNL     1       4.370   4.146  16.866  0.00  0.00    +0.000 A 
ATOM     12  C   UNL     1       3.518   4.884  17.713  0.00  0.00    +0.000 A 
BRANCH  12  13
ATOM     13  O   UNL     1       2.601   4.265  18.529  0.00  0.00    +0.000 OA
ATOM     14  C   UNL     1       1.763   3.294  17.903  0.00  0.00    +0.000 C 
ENDBRANCH  12  13
ENDBRANCH   4   7
BRANCH   1  15
ATOM     15  S   UNL     1       0.277  10.092  21.069  0.00  0.00    +0.000 S 
BRANCH  15  16
ATOM     16  C   UNL     1      -0.201  11.342  19.834  0.00  0.00    +0.000 C 
BRANCH  16  22
ATOM     17  C   UNL     1      -5.013  13.142  22.970  0.00  0.00    +0.000 A 
ATOM     18  N   UNL     1      -4.416  12.444  23.914  0.00  0.00    +0.000 NA
ATOM     19  N   UNL     1      -3.178  11.973  23.501  0.00  0.00    +0.000 NA
ATOM     20  C   UNL     1      -2.913  12.306  22.260  0.00  0.00    +0.000 A 
ATOM     21  N   UNL     1      -1.770  11.895  21.609  0.00  0.00    +0.000 N 
ATOM     22  C   UNL     1      -1.527  11.974  20.250  0.00  0.00    +0.000 C 
ATOM     23  O   UNL     1      -2.255  12.498  19.410  0.00  0.00    +0.000 OA
ATOM     24  S   UNL     1      -4.082  13.309  21.537  0.00  0.00    +0.000 S 
ATOM     25  H   UNL     1      -1.172  11.308  22.176  0.00  0.00    +0.000 HD
BRANCH  17  27
ATOM     26  C   UNL     1      -7.236  13.008  24.087  0.00  0.00    +0.000 C 
ATOM     27  C   UNL     1      -6.375  13.747  23.074  0.00  0.00    +0.000 C 
ENDBRANCH  17  27
ENDBRANCH  16  22
ENDBRANCH  15  16
ENDBRANCH   1  15
TORSDOF 6
ENDMDL
MODEL 5
REMARK VINA RESULT:      -7.1      3.129      3.994
REMARK  Name = 
REMARK  8 active torsions:
REMARK  status: ('A' for Active; 'I' for Inactive)
REMARK    1  A    between atoms: C_1  and  C_2
REMARK    2  A    between atoms: C_2  and  C_3
REMARK    3  A    between atoms: C_8  and  C_10
REMARK    4  A    between atoms: C_10  and  S_11
REMARK    5  A    between atoms: S_11  and  C_12
REMARK    6  A    between atoms: C_15  and  C_16
REMARK    7  A    between atoms: C_21  and  O_22
REMARK    8  A    between atoms: O_22  and  C_23
REMARK                            x       y       z     vdW  Elec       q    Type
REMARK                         _______ _______ _______ _____ _____    ______ ____
ROOT
ATOM      1  C   UNL     1       2.745   4.185  20.046  0.00  0.00    +0.000 A 
ATOM      2  C   UNL     1       1.406   4.339  20.346  0.00  0.00    +0.000 A 
ATOM      3  C   UNL     1       0.885   5.622  20.505  0.00  0.00    +0.000 A 
ATOM      4  C   UNL     1       1.710   6.742  20.403  0.00  0.00    +0.000 A 
ATOM      5  N   UNL     1       3.015   6.554  20.103  0.00  0.00    +0.000 NA
ATOM      6  N   UNL     1       3.538   5.264  19.911  0.00  0.00    +0.000 NA
ENDROOT
BRANCH   4   7
ATOM      7  C   UNL     1       1.207   8.107  20.714  0.00  0.00    +0.000 A 
ATOM      8  C   UNL     1       0.877   8.412  22.060  0.00  0.00    +0.000 A 
ATOM      9  C   UNL     1       0.350   9.644  22.448  0.00  0.00    +0.000 A 
ATOM     10  C   UNL     1       0.149  10.629  21.498  0.00  0.00    +0.000 A 
ATOM     11  C   UNL     1       0.485  10.380  20.167  0.00  0.00    +0.000 A 
ATOM     12  C   UNL     1       1.021   9.139  19.765  0.00  0.00    +0.000 A 
BRANCH  12  13
ATOM     13  O   UNL     1       1.306   8.870  18.448  0.00  0.00    +0.000 OA
ATOM     14  C   UNL     1       2.181   9.791  17.797  0.00  0.00    +0.000 C 
ENDBRANCH  12  13
ENDBRANCH   4   7
BRANCH   1  15
ATOM     15  S   UNL     1       3.351   2.524  19.849  0.00  0.00    +0.000 S 
BRANCH  15  16
ATOM     16  C   UNL     1       3.766   2.473  18.077  0.00  0.00    +0.000 C 
BRANCH  16  22
ATOM     17  C   UNL     1       7.632   7.084  17.919  0.00  0.00    +0.000 A 
ATOM     18  N   UNL     1       8.094   6.480  18.995  0.00  0.00    +0.000 NA
ATOM     19  N   UNL     1       7.440   5.279  19.232  0.00  0.00    +0.000 NA
ATOM     20  C   UNL     1       6.498   5.048  18.349  0.00  0.00    +0.000 A 
ATOM     21  N   UNL     1       5.670   3.949  18.417  0.00  0.00    +0.000 N 
ATOM     22  C   UNL     1       4.504   3.755  17.699  0.00  0.00    +0.000 C 
ATOM     23  O   UNL     1       4.058   4.492  16.823  0.00  0.00    +0.000 OA
ATOM     24  S   UNL     1       6.407   6.202  17.100  0.00  0.00    +0.000 S 
ATOM     25  H   UNL     1       5.854   3.354  19.214  0.00  0.00    +0.000 HD
BRANCH  17  27
ATOM     26  C   UNL     1       8.624   9.282  18.541  0.00  0.00    +0.000 C 
ATOM     27  C   UNL     1       8.085   8.414  17.414  0.00  0.00    +0.000 C 
ENDBRANCH  17  27
ENDBRANCH  16  22
ENDBRANCH  15  16
ENDBRANCH   1  15
TORSDOF 6
ENDMDL
MODEL 6
REMARK VINA RESULT:      -7.1      1.350      2.127
REMARK  Name = 
REMARK  8 active torsions:
REMARK  status: ('A' for Active; 'I' for Inactive)
REMARK    1  A    between atoms: C_1  and  C_2
REMARK    2  A    between atoms: C_2  and  C_3
REMARK    3  A    between atoms: C_8  and  C_10
REMARK    4  A    between atoms: C_10  and  S_11
REMARK    5  A    between atoms: S_11  and  C_12
REMARK    6  A    between atoms: C_15  and  C_16
REMARK    7  A    between atoms: C_21  and  O_22
REMARK    8  A    between atoms: O_22  and  C_23
REMARK                            x       y       z     vdW  Elec       q    Type
REMARK                         _______ _______ _______ _____ _____    ______ ____
ROOT
ATOM      1  C   UNL     1       2.883   6.969  19.135  0.00  0.00    +0.000 A 
ATOM      2  C   UNL     1       2.925   7.655  17.937  0.00  0.00    +0.000 A 
ATOM      3  C   UNL     1       2.162   8.811  17.785  0.00  0.00    +0.000 A 
ATOM      4  C   UNL     1       1.331   9.254  18.814  0.00  0.00    +0.000 A 
ATOM      5  N   UNL     1       1.318   8.561  19.975  0.00  0.00    +0.000 NA
ATOM      6  N   UNL     1       2.110   7.412  20.143  0.00  0.00    +0.000 NA
ENDROOT
BRANCH   4   7
ATOM      7  C   UNL     1       0.400  10.398  18.620  0.00  0.00    +0.000 A 
ATOM      8  C   UNL     1      -0.898  10.131  18.112  0.00  0.00    +0.000 A 
ATOM      9  C   UNL     1      -1.828  11.137  17.846  0.00  0.00    +0.000 A 
ATOM     10  C   UNL     1      -1.495  12.456  18.098  0.00  0.00    +0.000 A 
ATOM     11  C   UNL     1      -0.240  12.760  18.623  0.00  0.00    +0.000 A 
ATOM     12  C   UNL     1       0.706  11.751  18.898  0.00  0.00    +0.000 A 
BRANCH  12  13
ATOM     13  O   UNL     1       1.963  12.049  19.367  0.00  0.00    +0.000 OA
ATOM     14  C   UNL     1       2.061  13.205  20.198  0.00  0.00    +0.000 C 
ENDBRANCH  12  13
ENDBRANCH   4   7
BRANCH   1  15
ATOM     15  S   UNL     1       3.883   5.504  19.272  0.00  0.00    +0.000 S 
BRANCH  15  16
ATOM     16  C   UNL     1       5.351   5.945  18.290  0.00  0.00    +0.000 C 
BRANCH  16  22
ATOM     17  C   UNL     1       6.595   3.875  12.776  0.00  0.00    +0.000 A 
ATOM     18  N   UNL     1       7.549   4.779  12.865  0.00  0.00    +0.000 NA
ATOM     19  N   UNL     1       7.581   5.373  14.118  0.00  0.00    +0.000 NA
ATOM     20  C   UNL     1       6.634   4.919  14.904  0.00  0.00    +0.000 A 
ATOM     21  N   UNL     1       6.426   5.407  16.175  0.00  0.00    +0.000 N 
ATOM     22  C   UNL     1       5.316   5.181  16.969  0.00  0.00    +0.000 C 
ATOM     23  O   UNL     1       4.372   4.441  16.705  0.00  0.00    +0.000 OA
ATOM     24  S   UNL     1       5.709   3.658  14.231  0.00  0.00    +0.000 S 
ATOM     25  H   UNL     1       7.063   6.150  16.431  0.00  0.00    +0.000 HD
BRANCH  17  27
ATOM     26  C   UNL     1       7.361   2.094  11.213  0.00  0.00    +0.000 C 
ATOM     27  C   UNL     1       6.261   3.088  11.552  0.00  0.00    +0.000 C 
ENDBRANCH  17  27
ENDBRANCH  16  22
ENDBRANCH  15  16
ENDBRANCH   1  15
TORSDOF 6
ENDMDL
MODEL 7
REMARK VINA RESULT:      -7.1      4.657     11.045
REMARK  Name = 
REMARK  8 active torsions:
REMARK  status: ('A' for Active; 'I' for Inactive)
REMARK    1  A    between atoms: C_1  and  C_2
REMARK    2  A    between atoms: C_2  and  C_3
REMARK    3  A    between atoms: C_8  and  C_10
REMARK    4  A    between atoms: C_10  and  S_11
REMARK    5  A    between atoms: S_11  and  C_12
REMARK    6  A    between atoms: C_15  and  C_16
REMARK    7  A    between atoms: C_21  and  O_22
REMARK    8  A    between atoms: O_22  and  C_23
REMARK                            x       y       z     vdW  Elec       q    Type
REMARK                         _______ _______ _______ _____ _____    ______ ____
ROOT
ATOM      1  C   UNL     1       1.310   9.758  19.465  0.00  0.00    +0.000 A 
ATOM      2  C   UNL     1       1.531   9.598  18.112  0.00  0.00    +0.000 A 
ATOM      3  C   UNL     1       1.967   8.364  17.632  0.00  0.00    +0.000 A 
ATOM      4  C   UNL     1       2.219   7.310  18.510  0.00  0.00    +0.000 A 
ATOM      5  N   UNL     1       1.987   7.500  19.828  0.00  0.00    +0.000 NA
ATOM      6  N   UNL     1       1.517   8.733  20.312  0.00  0.00    +0.000 NA
ENDROOT
BRANCH   4   7
ATOM      7  C   UNL     1       2.824   6.036  18.037  0.00  0.00    +0.000 A 
ATOM      8  C   UNL     1       2.031   4.859  18.075  0.00  0.00    +0.000 A 
ATOM      9  C   UNL     1       2.519   3.606  17.703  0.00  0.00    +0.000 A 
ATOM     10  C   UNL     1       3.824   3.488  17.260  0.00  0.00    +0.000 A 
ATOM     11  C   UNL     1       4.630   4.623  17.181  0.00  0.00    +0.000 A 
ATOM     12  C   UNL     1       4.145   5.895  17.552  0.00  0.00    +0.000 A 
BRANCH  12  13
ATOM     13  O   UNL     1       4.950   7.009  17.526  0.00  0.00    +0.000 OA
ATOM     14  C   UNL     1       6.333   6.774  17.261  0.00  0.00    +0.000 C 
ENDBRANCH  12  13
ENDBRANCH   4   7
BRANCH   1  15
ATOM     15  S   UNL     1       0.747  11.353  20.017  0.00  0.00    +0.000 S 
BRANCH  15  16
ATOM     16  C   UNL     1      -0.077  10.949  21.590  0.00  0.00    +0.000 C 
BRANCH  16  22
ATOM     17  C   UNL     1      -5.298  13.270  23.481  0.00  0.00    +0.000 A 
ATOM     18  N   UNL     1      -5.084  12.437  24.478  0.00  0.00    +0.000 NA
ATOM     19  N   UNL     1      -3.852  11.808  24.367  0.00  0.00    +0.000 NA
ATOM     20  C   UNL     1      -3.209  12.169  23.282  0.00  0.00    +0.000 A 
ATOM     21  N   UNL     1      -1.994  11.628  22.924  0.00  0.00    +0.000 N 
ATOM     22  C   UNL     1      -1.373  11.748  21.694  0.00  0.00    +0.000 C 
ATOM     23  O   UNL     1      -1.762  12.425  20.746  0.00  0.00    +0.000 OA
ATOM     24  S   UNL     1      -3.990  13.378  22.373  0.00  0.00    +0.000 S 
ATOM     25  H   UNL     1      -1.659  10.926  23.571  0.00  0.00    +0.000 HD
BRANCH  17  27
ATOM     26  C   UNL     1      -6.393  15.484  23.809  0.00  0.00    +0.000 C 
ATOM     27  C   UNL     1      -6.544  14.068  23.274  0.00  0.00    +0.000 C 
ENDBRANCH  17  27
ENDBRANCH  16  22
ENDBRANCH  15  16
ENDBRANCH   1  15
TORSDOF 6
ENDMDL
MODEL 8
REMARK VINA RESULT:      -7.1      1.232      1.469
REMARK  Name = 
REMARK  8 active torsions:
REMARK  status: ('A' for Active; 'I' for Inactive)
REMARK    1  A    between atoms: C_1  and  C_2
REMARK    2  A    between atoms: C_2  and  C_3
REMARK    3  A    between atoms: C_8  and  C_10
REMARK    4  A    between atoms: C_10  and  S_11
REMARK    5  A    between atoms: S_11  and  C_12
REMARK    6  A    between atoms: C_15  and  C_16
REMARK    7  A    between atoms: C_21  and  O_22
REMARK    8  A    between atoms: O_22  and  C_23
REMARK                            x       y       z     vdW  Elec       q    Type
REMARK                         _______ _______ _______ _____ _____    ______ ____
ROOT
ATOM      1  C   UNL     1       2.218   6.955  19.756  0.00  0.00    +0.000 A 
ATOM      2  C   UNL     1       1.534   7.556  20.794  0.00  0.00    +0.000 A 
ATOM      3  C   UNL     1       0.938   8.799  20.590  0.00  0.00    +0.000 A 
ATOM      4  C   UNL     1       1.063   9.454  19.365  0.00  0.00    +0.000 A 
ATOM      5  N   UNL     1       1.735   8.834  18.369  0.00  0.00    +0.000 NA
ATOM      6  N   UNL     1       2.310   7.566  18.561  0.00  0.00    +0.000 NA
ENDROOT
BRANCH   4   7
ATOM      7  C   UNL     1       0.563  10.842  19.173  0.00  0.00    +0.000 A 
ATOM      8  C   UNL     1       1.224  11.896  19.857  0.00  0.00    +0.000 A 
ATOM      9  C   UNL     1       0.803  13.225  19.785  0.00  0.00    +0.000 A 
ATOM     10  C   UNL     1      -0.293  13.551  19.007  0.00  0.00    +0.000 A 
ATOM     11  C   UNL     1      -0.955  12.549  18.297  0.00  0.00    +0.000 A 
ATOM     12  C   UNL     1      -0.536  11.204  18.360  0.00  0.00    +0.000 A 
BRANCH  12  13
ATOM     13  O   UNL     1      -1.217  10.206  17.705  0.00  0.00    +0.000 OA
ATOM     14  C   UNL     1      -2.442  10.590  17.082  0.00  0.00    +0.000 C 
ENDBRANCH  12  13
ENDBRANCH   4   7
BRANCH   1  15
ATOM     15  S   UNL     1       2.952   5.365  20.074  0.00  0.00    +0.000 S 
BRANCH  15  16
ATOM     16  C   UNL     1       2.132   4.309  18.839  0.00  0.00    +0.000 C 
BRANCH  16  22
ATOM     17  C   UNL     1       6.610   4.943  14.867  0.00  0.00    +0.000 A 
ATOM     18  N   UNL     1       7.000   5.845  15.744  0.00  0.00    +0.000 NA
ATOM     19  N   UNL     1       6.186   5.854  16.868  0.00  0.00    +0.000 NA
ATOM     20  C   UNL     1       5.206   4.988  16.775  0.00  0.00    +0.000 A 
ATOM     21  N   UNL     1       4.232   4.862  17.741  0.00  0.00    +0.000 N 
ATOM     22  C   UNL     1       3.038   4.175  17.616  0.00  0.00    +0.000 C 
ATOM     23  O   UNL     1       2.686   3.496  16.656  0.00  0.00    +0.000 OA
ATOM     24  S   UNL     1       5.259   4.016  15.378  0.00  0.00    +0.000 S 
ATOM     25  H   UNL     1       4.343   5.506  18.513  0.00  0.00    +0.000 HD
BRANCH  17  27
ATOM     26  C   UNL     1       6.445   3.701  12.714  0.00  0.00    +0.000 C 
ATOM     27  C   UNL     1       7.238   4.709  13.533  0.00  0.00    +0.000 C 
ENDBRANCH  17  27
ENDBRANCH  16  22
ENDBRANCH  15  16
ENDBRANCH   1  15
TORSDOF 6
ENDMDL
MODEL 9
REMARK VINA RESULT:      -7.1      4.076      9.988
REMARK  Name = 
REMARK  8 active torsions:
REMARK  status: ('A' for Active; 'I' for Inactive)
REMARK    1  A    between atoms: C_1  and  C_2
REMARK    2  A    between atoms: C_2  and  C_3
REMARK    3  A    between atoms: C_8  and  C_10
REMARK    4  A    between atoms: C_10  and  S_11
REMARK    5  A    between atoms: S_11  and  C_12
REMARK    6  A    between atoms: C_15  and  C_16
REMARK    7  A    between atoms: C_21  and  O_22
REMARK    8  A    between atoms: O_22  and  C_23
REMARK                            x       y       z     vdW  Elec       q    Type
REMARK                         _______ _______ _______ _____ _____    ______ ____
ROOT
ATOM      1  C   UNL     1       1.427   8.731  20.056  0.00  0.00    +0.000 A 
ATOM      2  C   UNL     1       1.911   8.623  18.768  0.00  0.00    +0.000 A 
ATOM      3  C   UNL     1       2.311   7.377  18.290  0.00  0.00    +0.000 A 
ATOM      4  C   UNL     1       2.264   6.252  19.114  0.00  0.00    +0.000 A 
ATOM      5  N   UNL     1       1.780   6.393  20.369  0.00  0.00    +0.000 NA
ATOM      6  N   UNL     1       1.345   7.643  20.843  0.00  0.00    +0.000 NA
ENDROOT
BRANCH   4   7
ATOM      7  C   UNL     1       2.823   4.946  18.675  0.00  0.00    +0.000 A 
ATOM      8  C   UNL     1       1.963   4.037  18.003  0.00  0.00    +0.000 A 
ATOM      9  C   UNL     1       2.374   2.768  17.596  0.00  0.00    +0.000 A 
ATOM     10  C   UNL     1       3.676   2.364  17.833  0.00  0.00    +0.000 A 
ATOM     11  C   UNL     1       4.562   3.236  18.467  0.00  0.00    +0.000 A 
ATOM     12  C   UNL     1       4.157   4.522  18.880  0.00  0.00    +0.000 A 
BRANCH  12  13
ATOM     13  O   UNL     1       5.010   5.366  19.551  0.00  0.00    +0.000 OA
ATOM     14  C   UNL     1       6.363   5.376  19.096  0.00  0.00    +0.000 C 
ENDBRANCH  12  13
ENDBRANCH   4   7
BRANCH   1  15
ATOM     15  S   UNL     1       0.925  10.347  20.607  0.00  0.00    +0.000 S 
BRANCH  15  16
ATOM     16  C   UNL     1       0.695  11.236  19.035  0.00  0.00    +0.000 C 
BRANCH  16  22
ATOM     17  C   UNL     1      -5.282  11.860  18.694  0.00  0.00    +0.000 A 
ATOM     18  N   UNL     1      -5.074  12.575  19.780  0.00  0.00    +0.000 NA
ATOM     19  N   UNL     1      -3.721  12.704  20.059  0.00  0.00    +0.000 NA
ATOM     20  C   UNL     1      -2.975  12.057  19.197  0.00  0.00    +0.000 A 
ATOM     21  N   UNL     1      -1.604  11.986  19.307  0.00  0.00    +0.000 N 
ATOM     22  C   UNL     1      -0.768  11.131  18.612  0.00  0.00    +0.000 C 
ATOM     23  O   UNL     1      -1.101  10.353  17.721  0.00  0.00    +0.000 OA
ATOM     24  S   UNL     1      -3.841  11.342  17.917  0.00  0.00    +0.000 S 
ATOM     25  H   UNL     1      -1.239  12.468  20.119  0.00  0.00    +0.000 HD
BRANCH  17  27
ATOM     26  C   UNL     1      -7.536  12.705  18.053  0.00  0.00    +0.000 C 
ATOM     27  C   UNL     1      -6.622  11.492  18.145  0.00  0.00    +0.000 C 
ENDBRANCH  17  27
ENDBRANCH  16  22
ENDBRANCH  15  16
ENDBRANCH   1  15
TORSDOF 6
ENDMDL
