MODEL 1
REMARK VINA RESULT:      -8.9      0.000      0.000
REMARK  Name = 
REMARK  5 active torsions:
REMARK  status: ('A' for Active; 'I' for Inactive)
REMARK    1  A    between atoms: C_1  and  C_2
REMARK    2  A    between atoms: C_5  and  C_6
REMARK    3  A    between atoms: C_8  and  C_9
REMARK    4  A    between atoms: C_10  and  C_11
REMARK    5  A    between atoms: C_19  and  C_20
REMARK                            x       y       z     vdW  Elec       q    Type
REMARK                         _______ _______ _______ _____ _____    ______ ____
ROOT
ATOM      1  C   UNL     1       7.969   7.947  18.148  0.00  0.00    +0.000 A 
ATOM      2  C   UNL     1       7.215   7.392  17.136  0.00  0.00    +0.000 A 
ATOM      3  C   UNL     1       7.034   6.031  17.180  0.00  0.00    +0.000 A 
ATOM      4  N   UNL     1       7.487   5.272  18.190  0.00  0.00    +0.000 NA
ATOM      5  C   UNL     1       8.154   5.893  19.159  0.00  0.00    +0.000 A 
ATOM      6  N   UNL     1       8.543   5.143  20.249  0.00  0.00    +0.000 N 
ATOM      7  N   UNL     1       8.424   7.198  19.177  0.00  0.00    +0.000 NA
ATOM      8  H   UNL     1       7.928   4.344  20.341  0.00  0.00    +0.000 HD
ATOM      9  H   UNL     1       8.645   5.741  21.057  0.00  0.00    +0.000 HD
ENDROOT
BRANCH   3  10
ATOM     10  C   UNL     1       6.311   5.304  16.140  0.00  0.00    +0.000 A 
ATOM     11  C   UNL     1       5.096   4.625  16.170  0.00  0.00    +0.000 A 
ATOM     12  N   UNL     1       4.834   4.012  14.963  0.00  0.00    +0.000 NA
ATOM     13  C   UNL     1       5.849   4.312  14.181  0.00  0.00    +0.000 A 
ATOM     14  C   UNL     1       6.113   3.948  12.811  0.00  0.00    +0.000 A 
ATOM     15  C   UNL     1       5.224   3.037  12.008  0.00  0.00    +0.000 C 
ATOM     16  C   UNL     1       7.234   4.435  12.227  0.00  0.00    +0.000 A 
ATOM     17  C   UNL     1       8.183   5.269  12.936  0.00  0.00    +0.000 A 
ATOM     18  C   UNL     1       7.954   5.560  14.223  0.00  0.00    +0.000 A 
ATOM     19  N   UNL     1       6.786   5.099  14.846  0.00  0.00    +0.000 N 
BRANCH  11  20
ATOM     20  C   UNL     1       4.183   4.514  17.304  0.00  0.00    +0.000 A 
ATOM     21  C   UNL     1       4.061   3.329  18.043  0.00  0.00    +0.000 A 
ATOM     22  C   UNL     1       3.118   3.217  19.069  0.00  0.00    +0.000 A 
ATOM     23  C   UNL     1       2.314   4.304  19.395  0.00  0.00    +0.000 A 
ATOM     24  C   UNL     1       2.464   5.508  18.707  0.00  0.00    +0.000 A 
ATOM     25  C   UNL     1       3.394   5.612  17.668  0.00  0.00    +0.000 A 
ENDBRANCH  11  20
ENDBRANCH   3  10
BRANCH   1  30
ATOM     26  C   UNL     1       9.457  13.570  18.124  0.00  0.00    +0.000 C 
ATOM     27  C   UNL     1       9.076  12.121  18.152  0.00  0.00    +0.000 A 
ATOM     28  C   UNL     1       9.758  11.214  18.964  0.00  0.00    +0.000 A 
ATOM     29  C   UNL     1       9.413   9.858  18.956  0.00  0.00    +0.000 A 
ATOM     30  C   UNL     1       8.372   9.368  18.145  0.00  0.00    +0.000 A 
ATOM     31  C   UNL     1       7.692  10.301  17.341  0.00  0.00    +0.000 A 
ATOM     32  C   UNL     1       8.036  11.656  17.343  0.00  0.00    +0.000 A 
ENDBRANCH   1  30
TORSDOF 3
ENDMDL
MODEL 2
REMARK VINA RESULT:      -8.7      6.872     10.189
REMARK  Name = 
REMARK  5 active torsions:
REMARK  status: ('A' for Active; 'I' for Inactive)
REMARK    1  A    between atoms: C_1  and  C_2
REMARK    2  A    between atoms: C_5  and  C_6
REMARK    3  A    between atoms: C_8  and  C_9
REMARK    4  A    between atoms: C_10  and  C_11
REMARK    5  A    between atoms: C_19  and  C_20
REMARK                            x       y       z     vdW  Elec       q    Type
REMARK                         _______ _______ _______ _____ _____    ______ ____
ROOT
ATOM      1  C   UNL     1       1.331   8.573  20.480  0.00  0.00    +0.000 A 
ATOM      2  C   UNL     1       1.232   9.774  19.810  0.00  0.00    +0.000 A 
ATOM      3  C   UNL     1       0.538  10.776  20.444  0.00  0.00    +0.000 A 
ATOM      4  N   UNL     1       0.045  10.643  21.686  0.00  0.00    +0.000 NA
ATOM      5  C   UNL     1       0.236   9.472  22.287  0.00  0.00    +0.000 A 
ATOM      6  N   UNL     1      -0.180   9.351  23.597  0.00  0.00    +0.000 N 
ATOM      7  N   UNL     1       0.849   8.426  21.734  0.00  0.00    +0.000 NA
ATOM      8  H   UNL     1      -0.197  10.267  24.027  0.00  0.00    +0.000 HD
ATOM      9  H   UNL     1       0.358   8.634  24.063  0.00  0.00    +0.000 HD
ENDROOT
BRANCH   3  10
ATOM     10  C   UNL     1       0.300  12.077  19.825  0.00  0.00    +0.000 A 
ATOM     11  C   UNL     1      -0.696  12.511  18.954  0.00  0.00    +0.000 A 
ATOM     12  N   UNL     1      -0.482  13.813  18.558  0.00  0.00    +0.000 NA
ATOM     13  C   UNL     1       0.610  14.203  19.177  0.00  0.00    +0.000 A 
ATOM     14  C   UNL     1       1.305  15.466  19.143  0.00  0.00    +0.000 A 
ATOM     15  C   UNL     1       0.889  16.619  18.271  0.00  0.00    +0.000 C 
ATOM     16  C   UNL     1       2.404  15.610  19.923  0.00  0.00    +0.000 A 
ATOM     17  C   UNL     1       2.918  14.538  20.751  0.00  0.00    +0.000 A 
ATOM     18  C   UNL     1       2.295  13.352  20.736  0.00  0.00    +0.000 A 
ATOM     19  N   UNL     1       1.136  13.182  19.966  0.00  0.00    +0.000 N 
BRANCH  11  20
ATOM     20  C   UNL     1      -1.830  11.733  18.464  0.00  0.00    +0.000 A 
ATOM     21  C   UNL     1      -1.666  10.669  17.565  0.00  0.00    +0.000 A 
ATOM     22  C   UNL     1      -2.772   9.994  17.042  0.00  0.00    +0.000 A 
ATOM     23  C   UNL     1      -4.055  10.348  17.444  0.00  0.00    +0.000 A 
ATOM     24  C   UNL     1      -4.232  11.365  18.382  0.00  0.00    +0.000 A 
ATOM     25  C   UNL     1      -3.126  12.052  18.889  0.00  0.00    +0.000 A 
ENDBRANCH  11  20
ENDBRANCH   3  10
BRANCH   1  30
ATOM     26  C   UNL     1       3.696   3.882  17.985  0.00  0.00    +0.000 C 
ATOM     27  C   UNL     1       3.096   5.084  18.647  0.00  0.00    +0.000 A 
ATOM     28  C   UNL     1       2.500   4.990  19.906  0.00  0.00    +0.000 A 
ATOM     29  C   UNL     1       1.914   6.114  20.498  0.00  0.00    +0.000 A 
ATOM     30  C   UNL     1       1.913   7.366  19.857  0.00  0.00    +0.000 A 
ATOM     31  C   UNL     1       2.526   7.441  18.593  0.00  0.00    +0.000 A 
ATOM     32  C   UNL     1       3.109   6.320  17.996  0.00  0.00    +0.000 A 
ENDBRANCH   1  30
TORSDOF 3
ENDMDL
MODEL 3
REMARK VINA RESULT:      -8.7      6.840     10.221
REMARK  Name = 
REMARK  5 active torsions:
REMARK  status: ('A' for Active; 'I' for Inactive)
REMARK    1  A    between atoms: C_1  and  C_2
REMARK    2  A    between atoms: C_5  and  C_6
REMARK    3  A    between atoms: C_8  and  C_9
REMARK    4  A    between atoms: C_10  and  C_11
REMARK    5  A    between atoms: C_19  and  C_20
REMARK                            x       y       z     vdW  Elec       q    Type
REMARK                         _______ _______ _______ _____ _____    ______ ____
ROOT
ATOM      1  C   UNL     1       1.328   8.573  20.463  0.00  0.00    +0.000 A 
ATOM      2  C   UNL     1       1.246   9.777  19.795  0.00  0.00    +0.000 A 
ATOM      3  C   UNL     1       0.543  10.779  20.418  0.00  0.00    +0.000 A 
ATOM      4  N   UNL     1       0.026  10.644  21.650  0.00  0.00    +0.000 NA
ATOM      5  C   UNL     1       0.201   9.471  22.251  0.00  0.00    +0.000 A 
ATOM      6  N   UNL     1      -0.241   9.347  23.552  0.00  0.00    +0.000 N 
ATOM      7  N   UNL     1       0.821   8.424  21.706  0.00  0.00    +0.000 NA
ATOM      8  H   UNL     1      -0.263  10.262  23.984  0.00  0.00    +0.000 HD
ATOM      9  H   UNL     1       0.286   8.627  24.026  0.00  0.00    +0.000 HD
ENDROOT
BRANCH   3  10
ATOM     10  C   UNL     1       0.322  12.083  19.798  0.00  0.00    +0.000 A 
ATOM     11  C   UNL     1      -0.664  12.526  18.921  0.00  0.00    +0.000 A 
ATOM     12  N   UNL     1      -0.436  13.827  18.527  0.00  0.00    +0.000 NA
ATOM     13  C   UNL     1       0.657  14.206  19.154  0.00  0.00    +0.000 A 
ATOM     14  C   UNL     1       1.363  15.462  19.126  0.00  0.00    +0.000 A 
ATOM     15  C   UNL     1       0.964  16.620  18.252  0.00  0.00    +0.000 C 
ATOM     16  C   UNL     1       2.459  15.595  19.913  0.00  0.00    +0.000 A 
ATOM     17  C   UNL     1       2.957  14.518  20.744  0.00  0.00    +0.000 A 
ATOM     18  C   UNL     1       2.323  13.338  20.723  0.00  0.00    +0.000 A 
ATOM     19  N   UNL     1       1.167  13.180  19.945  0.00  0.00    +0.000 N 
BRANCH  11  20
ATOM     20  C   UNL     1      -1.803  11.760  18.423  0.00  0.00    +0.000 A 
ATOM     21  C   UNL     1      -3.116  12.036  18.830  0.00  0.00    +0.000 A 
ATOM     22  C   UNL     1      -4.182  11.235  18.408  0.00  0.00    +0.000 A 
ATOM     23  C   UNL     1      -3.951  10.172  17.542  0.00  0.00    +0.000 A 
ATOM     24  C   UNL     1      -2.658   9.919  17.083  0.00  0.00    +0.000 A 
ATOM     25  C   UNL     1      -1.591  10.710  17.521  0.00  0.00    +0.000 A 
ENDBRANCH  11  20
ENDBRANCH   3  10
BRANCH   1  30
ATOM     26  C   UNL     1       3.574   3.766  18.081  0.00  0.00    +0.000 C 
ATOM     27  C   UNL     1       2.988   5.010  18.675  0.00  0.00    +0.000 A 
ATOM     28  C   UNL     1       3.060   6.231  18.003  0.00  0.00    +0.000 A 
ATOM     29  C   UNL     1       2.536   7.391  18.584  0.00  0.00    +0.000 A 
ATOM     30  C   UNL     1       1.918   7.367  19.847  0.00  0.00    +0.000 A 
ATOM     31  C   UNL     1       1.848   6.125  20.503  0.00  0.00    +0.000 A 
ATOM     32  C   UNL     1       2.373   4.963  19.928  0.00  0.00    +0.000 A 
ENDBRANCH   1  30
TORSDOF 3
ENDMDL
MODEL 4
REMARK VINA RESULT:      -8.2      7.678     10.942
REMARK  Name = 
REMARK  5 active torsions:
REMARK  status: ('A' for Active; 'I' for Inactive)
REMARK    1  A    between atoms: C_1  and  C_2
REMARK    2  A    between atoms: C_5  and  C_6
REMARK    3  A    between atoms: C_8  and  C_9
REMARK    4  A    between atoms: C_10  and  C_11
REMARK    5  A    between atoms: C_19  and  C_20
REMARK                            x       y       z     vdW  Elec       q    Type
REMARK                         _______ _______ _______ _____ _____    ______ ____
ROOT
ATOM      1  C   UNL     1       1.539   9.648  18.742  0.00  0.00    +0.000 A 
ATOM      2  C   UNL     1       0.270   9.935  19.198  0.00  0.00    +0.000 A 
ATOM      3  C   UNL     1      -0.108  11.256  19.175  0.00  0.00    +0.000 A 
ATOM      4  N   UNL     1       0.670  12.223  18.662  0.00  0.00    +0.000 NA
ATOM      5  C   UNL     1       1.856  11.854  18.187  0.00  0.00    +0.000 A 
ATOM      6  N   UNL     1       2.627  12.818  17.572  0.00  0.00    +0.000 N 
ATOM      7  N   UNL     1       2.330  10.608  18.214  0.00  0.00    +0.000 NA
ATOM      8  H   UNL     1       2.023  13.550  17.218  0.00  0.00    +0.000 HD
ATOM      9  H   UNL     1       3.258  12.384  16.914  0.00  0.00    +0.000 HD
ENDROOT
BRANCH   3  10
ATOM     10  C   UNL     1      -1.398  11.710  19.687  0.00  0.00    +0.000 A 
ATOM     11  C   UNL     1      -2.664  11.716  19.109  0.00  0.00    +0.000 A 
ATOM     12  N   UNL     1      -3.590  12.317  19.935  0.00  0.00    +0.000 NA
ATOM     13  C   UNL     1      -2.931  12.666  21.018  0.00  0.00    +0.000 A 
ATOM     14  C   UNL     1      -3.384  13.328  22.216  0.00  0.00    +0.000 A 
ATOM     15  C   UNL     1      -4.792  13.824  22.408  0.00  0.00    +0.000 C 
ATOM     16  C   UNL     1      -2.486  13.534  23.210  0.00  0.00    +0.000 A 
ATOM     17  C   UNL     1      -1.095  13.148  23.095  0.00  0.00    +0.000 A 
ATOM     18  C   UNL     1      -0.672  12.579  21.957  0.00  0.00    +0.000 A 
ATOM     19  N   UNL     1      -1.584  12.322  20.924  0.00  0.00    +0.000 N 
BRANCH  11  20
ATOM     20  C   UNL     1      -3.029  11.194  17.794  0.00  0.00    +0.000 A 
ATOM     21  C   UNL     1      -2.270  10.203  17.155  0.00  0.00    +0.000 A 
ATOM     22  C   UNL     1      -2.587   9.780  15.861  0.00  0.00    +0.000 A 
ATOM     23  C   UNL     1      -3.692  10.314  15.207  0.00  0.00    +0.000 A 
ATOM     24  C   UNL     1      -4.490  11.259  15.852  0.00  0.00    +0.000 A 
ATOM     25  C   UNL     1      -4.161  11.694  17.139  0.00  0.00    +0.000 A 
ENDBRANCH  11  20
ENDBRANCH   3  10
BRANCH   1  30
ATOM     26  C   UNL     1       3.786   4.304  19.221  0.00  0.00    +0.000 C 
ATOM     27  C   UNL     1       3.202   5.677  19.077  0.00  0.00    +0.000 A 
ATOM     28  C   UNL     1       3.455   6.450  17.943  0.00  0.00    +0.000 A 
ATOM     29  C   UNL     1       2.930   7.743  17.836  0.00  0.00    +0.000 A 
ATOM     30  C   UNL     1       2.131   8.299  18.851  0.00  0.00    +0.000 A 
ATOM     31  C   UNL     1       1.882   7.500  19.981  0.00  0.00    +0.000 A 
ATOM     32  C   UNL     1       2.407   6.209  20.095  0.00  0.00    +0.000 A 
ENDBRANCH   1  30
TORSDOF 3
ENDMDL
MODEL 5
REMARK VINA RESULT:      -8.1      2.841      6.869
REMARK  Name = 
REMARK  5 active torsions:
REMARK  status: ('A' for Active; 'I' for Inactive)
REMARK    1  A    between atoms: C_1  and  C_2
REMARK    2  A    between atoms: C_5  and  C_6
REMARK    3  A    between atoms: C_8  and  C_9
REMARK    4  A    between atoms: C_10  and  C_11
REMARK    5  A    between atoms: C_19  and  C_20
REMARK                            x       y       z     vdW  Elec       q    Type
REMARK                         _______ _______ _______ _____ _____    ______ ____
ROOT
ATOM      1  C   UNL     1       5.945   5.528  15.846  0.00  0.00    +0.000 A 
ATOM      2  C   UNL     1       4.912   5.099  16.652  0.00  0.00    +0.000 A 
ATOM      3  C   UNL     1       4.800   5.702  17.881  0.00  0.00    +0.000 A 
ATOM      4  N   UNL     1       5.591   6.716  18.266  0.00  0.00    +0.000 NA
ATOM      5  C   UNL     1       6.525   7.111  17.405  0.00  0.00    +0.000 A 
ATOM      6  N   UNL     1       7.284   8.211  17.745  0.00  0.00    +0.000 N 
ATOM      7  N   UNL     1       6.744   6.553  16.214  0.00  0.00    +0.000 NA
ATOM      8  H   UNL     1       6.762   8.788  18.393  0.00  0.00    +0.000 HD
ATOM      9  H   UNL     1       7.633   8.659  16.910  0.00  0.00    +0.000 HD
ENDROOT
BRANCH   3  10
ATOM     10  C   UNL     1       3.793   5.302  18.860  0.00  0.00    +0.000 A 
ATOM     11  C   UNL     1       2.707   5.992  19.394  0.00  0.00    +0.000 A 
ATOM     12  N   UNL     1       2.064   5.245  20.357  0.00  0.00    +0.000 NA
ATOM     13  C   UNL     1       2.713   4.103  20.419  0.00  0.00    +0.000 A 
ATOM     14  C   UNL     1       2.488   2.943  21.245  0.00  0.00    +0.000 A 
ATOM     15  C   UNL     1       1.420   2.871  22.303  0.00  0.00    +0.000 C 
ATOM     16  C   UNL     1       3.297   1.869  21.071  0.00  0.00    +0.000 A 
ATOM     17  C   UNL     1       4.390   1.864  20.121  0.00  0.00    +0.000 A 
ATOM     18  C   UNL     1       4.623   2.966  19.395  0.00  0.00    +0.000 A 
ATOM     19  N   UNL     1       3.782   4.079  19.527  0.00  0.00    +0.000 N 
BRANCH  11  20
ATOM     20  C   UNL     1       2.268   7.340  19.044  0.00  0.00    +0.000 A 
ATOM     21  C   UNL     1       2.483   7.881  17.768  0.00  0.00    +0.000 A 
ATOM     22  C   UNL     1       2.133   9.203  17.480  0.00  0.00    +0.000 A 
ATOM     23  C   UNL     1       1.525   9.988  18.454  0.00  0.00    +0.000 A 
ATOM     24  C   UNL     1       1.253   9.446  19.711  0.00  0.00    +0.000 A 
ATOM     25  C   UNL     1       1.621   8.129  20.002  0.00  0.00    +0.000 A 
ENDBRANCH  11  20
ENDBRANCH   3  10
BRANCH   1  30
ATOM     26  C   UNL     1       7.153   2.916  10.791  0.00  0.00    +0.000 C 
ATOM     27  C   UNL     1       6.848   3.607  12.085  0.00  0.00    +0.000 A 
ATOM     28  C   UNL     1       7.706   4.580  12.600  0.00  0.00    +0.000 A 
ATOM     29  C   UNL     1       7.426   5.194  13.826  0.00  0.00    +0.000 A 
ATOM     30  C   UNL     1       6.277   4.865  14.568  0.00  0.00    +0.000 A 
ATOM     31  C   UNL     1       5.421   3.890  14.026  0.00  0.00    +0.000 A 
ATOM     32  C   UNL     1       5.699   3.269  12.804  0.00  0.00    +0.000 A 
ENDBRANCH   1  30
TORSDOF 3
ENDMDL
MODEL 6
REMARK VINA RESULT:      -7.8      2.413      5.669
REMARK  Name = 
REMARK  5 active torsions:
REMARK  status: ('A' for Active; 'I' for Inactive)
REMARK    1  A    between atoms: C_1  and  C_2
REMARK    2  A    between atoms: C_5  and  C_6
REMARK    3  A    between atoms: C_8  and  C_9
REMARK    4  A    between atoms: C_10  and  C_11
REMARK    5  A    between atoms: C_19  and  C_20
REMARK                            x       y       z     vdW  Elec       q    Type
REMARK                         _______ _______ _______ _____ _____    ______ ____
ROOT
ATOM      1  C   UNL     1       2.917   5.340  18.281  0.00  0.00    +0.000 A 
ATOM      2  C   UNL     1       3.889   5.640  17.351  0.00  0.00    +0.000 A 
ATOM      3  C   UNL     1       4.467   4.577  16.699  0.00  0.00    +0.000 A 
ATOM      4  N   UNL     1       4.063   3.310  16.882  0.00  0.00    +0.000 NA
ATOM      5  C   UNL     1       3.078   3.111  17.753  0.00  0.00    +0.000 A 
ATOM      6  N   UNL     1       2.588   1.828  17.882  0.00  0.00    +0.000 N 
ATOM      7  N   UNL     1       2.493   4.071  18.469  0.00  0.00    +0.000 NA
ATOM      8  H   UNL     1       2.765   1.317  17.025  0.00  0.00    +0.000 HD
ATOM      9  H   UNL     1       1.634   1.856  18.211  0.00  0.00    +0.000 HD
ENDROOT
BRANCH   3  10
ATOM     10  C   UNL     1       5.552   4.745  15.737  0.00  0.00    +0.000 A 
ATOM     11  C   UNL     1       6.774   5.405  15.838  0.00  0.00    +0.000 A 
ATOM     12  N   UNL     1       7.461   5.373  14.644  0.00  0.00    +0.000 NA
ATOM     13  C   UNL     1       6.703   4.692  13.812  0.00  0.00    +0.000 A 
ATOM     14  C   UNL     1       6.912   4.342  12.429  0.00  0.00    +0.000 A 
ATOM     15  C   UNL     1       8.106   4.791  11.631  0.00  0.00    +0.000 C 
ATOM     16  C   UNL     1       5.970   3.587  11.813  0.00  0.00    +0.000 A 
ATOM     17  C   UNL     1       4.758   3.157  12.479  0.00  0.00    +0.000 A 
ATOM     18  C   UNL     1       4.549   3.531  13.748  0.00  0.00    +0.000 A 
ATOM     19  N   UNL     1       5.520   4.283  14.424  0.00  0.00    +0.000 N 
BRANCH  11  20
ATOM     20  C   UNL     1       7.307   6.085  17.015  0.00  0.00    +0.000 A 
ATOM     21  C   UNL     1       7.552   7.466  17.025  0.00  0.00    +0.000 A 
ATOM     22  C   UNL     1       8.143   8.083  18.131  0.00  0.00    +0.000 A 
ATOM     23  C   UNL     1       8.460   7.331  19.258  0.00  0.00    +0.000 A 
ATOM     24  C   UNL     1       8.170   5.967  19.285  0.00  0.00    +0.000 A 
ATOM     25  C   UNL     1       7.596   5.349  18.170  0.00  0.00    +0.000 A 
ENDBRANCH  11  20
ENDBRANCH   3  10
BRANCH   1  30
ATOM     26  C   UNL     1       0.536   9.427  21.666  0.00  0.00    +0.000 C 
ATOM     27  C   UNL     1       1.133   8.361  20.799  0.00  0.00    +0.000 A 
ATOM     28  C   UNL     1       1.207   7.037  21.236  0.00  0.00    +0.000 A 
ATOM     29  C   UNL     1       1.797   6.057  20.430  0.00  0.00    +0.000 A 
ATOM     30  C   UNL     1       2.322   6.366  19.162  0.00  0.00    +0.000 A 
ATOM     31  C   UNL     1       2.229   7.703  18.737  0.00  0.00    +0.000 A 
ATOM     32  C   UNL     1       1.644   8.687  19.541  0.00  0.00    +0.000 A 
ENDBRANCH   1  30
TORSDOF 3
ENDMDL
MODEL 7
REMARK VINA RESULT:      -7.8      8.189     12.118
REMARK  Name = 
REMARK  5 active torsions:
REMARK  status: ('A' for Active; 'I' for Inactive)
REMARK    1  A    between atoms: C_1  and  C_2
REMARK    2  A    between atoms: C_5  and  C_6
REMARK    3  A    between atoms: C_8  and  C_9
REMARK    4  A    between atoms: C_10  and  C_11
REMARK    5  A    between atoms: C_19  and  C_20
REMARK                            x       y       z     vdW  Elec       q    Type
REMARK                         _______ _______ _______ _____ _____    ______ ____
ROOT
ATOM      1  C   UNL     1       0.392  10.342  19.247  0.00  0.00    +0.000 A 
ATOM      2  C   UNL     1       0.411  11.158  20.359  0.00  0.00    +0.000 A 
ATOM      3  C   UNL     1      -0.326  12.315  20.285  0.00  0.00    +0.000 A 
ATOM      4  N   UNL     1      -1.099  12.616  19.229  0.00  0.00    +0.000 NA
ATOM      5  C   UNL     1      -1.108  11.747  18.223  0.00  0.00    +0.000 A 
ATOM      6  N   UNL     1      -1.969  11.994  17.173  0.00  0.00    +0.000 N 
ATOM      7  N   UNL     1      -0.388  10.626  18.181  0.00  0.00    +0.000 NA
ATOM      8  H   UNL     1      -2.739  12.564  17.501  0.00  0.00    +0.000 HD
ATOM      9  H   UNL     1      -2.203  11.128  16.710  0.00  0.00    +0.000 HD
ENDROOT
BRANCH   3  10
ATOM     10  C   UNL     1      -0.345  13.301  21.363  0.00  0.00    +0.000 A 
ATOM     11  C   UNL     1       0.549  14.315  21.695  0.00  0.00    +0.000 A 
ATOM     12  N   UNL     1       0.167  14.961  22.851  0.00  0.00    +0.000 NA
ATOM     13  C   UNL     1      -0.952  14.384  23.231  0.00  0.00    +0.000 A 
ATOM     14  C   UNL     1      -1.799  14.646  24.368  0.00  0.00    +0.000 A 
ATOM     15  C   UNL     1      -1.478  15.667  25.425  0.00  0.00    +0.000 C 
ATOM     16  C   UNL     1      -2.933  13.914  24.500  0.00  0.00    +0.000 A 
ATOM     17  C   UNL     1      -3.298  12.867  23.568  0.00  0.00    +0.000 A 
ATOM     18  C   UNL     1      -2.478  12.598  22.544  0.00  0.00    +0.000 A 
ATOM     19  N   UNL     1      -1.315  13.359  22.361  0.00  0.00    +0.000 N 
BRANCH  11  20
ATOM     20  C   UNL     1       1.764  14.683  20.973  0.00  0.00    +0.000 A 
ATOM     21  C   UNL     1       1.718  15.336  19.733  0.00  0.00    +0.000 A 
ATOM     22  C   UNL     1       2.890  15.602  19.018  0.00  0.00    +0.000 A 
ATOM     23  C   UNL     1       4.125  15.252  19.555  0.00  0.00    +0.000 A 
ATOM     24  C   UNL     1       4.189  14.653  20.813  0.00  0.00    +0.000 A 
ATOM     25  C   UNL     1       3.015  14.372  21.518  0.00  0.00    +0.000 A 
ENDBRANCH  11  20
ENDBRANCH   3  10
BRANCH   1  30
ATOM     26  C   UNL     1       3.723   5.592  18.837  0.00  0.00    +0.000 C 
ATOM     27  C   UNL     1       2.858   6.812  18.923  0.00  0.00    +0.000 A 
ATOM     28  C   UNL     1       2.721   7.675  17.835  0.00  0.00    +0.000 A 
ATOM     29  C   UNL     1       1.935   8.828  17.939  0.00  0.00    +0.000 A 
ATOM     30  C   UNL     1       1.255   9.149  19.128  0.00  0.00    +0.000 A 
ATOM     31  C   UNL     1       1.398   8.261  20.209  0.00  0.00    +0.000 A 
ATOM     32  C   UNL     1       2.186   7.110  20.111  0.00  0.00    +0.000 A 
ENDBRANCH   1  30
TORSDOF 3
ENDMDL
MODEL 8
REMARK VINA RESULT:      -7.8      8.230     12.130
REMARK  Name = 
REMARK  5 active torsions:
REMARK  status: ('A' for Active; 'I' for Inactive)
REMARK    1  A    between atoms: C_1  and  C_2
REMARK    2  A    between atoms: C_5  and  C_6
REMARK    3  A    between atoms: C_8  and  C_9
REMARK    4  A    between atoms: C_10  and  C_11
REMARK    5  A    between atoms: C_19  and  C_20
REMARK                            x       y       z     vdW  Elec       q    Type
REMARK                         _______ _______ _______ _____ _____    ______ ____
ROOT
ATOM      1  C   UNL     1       0.357  10.364  19.290  0.00  0.00    +0.000 A 
ATOM      2  C   UNL     1       0.375  11.176  20.404  0.00  0.00    +0.000 A 
ATOM      3  C   UNL     1      -0.327  12.355  20.318  0.00  0.00    +0.000 A 
ATOM      4  N   UNL     1      -1.067  12.681  19.246  0.00  0.00    +0.000 NA
ATOM      5  C   UNL     1      -1.079  11.815  18.236  0.00  0.00    +0.000 A 
ATOM      6  N   UNL     1      -1.907  12.089  17.168  0.00  0.00    +0.000 N 
ATOM      7  N   UNL     1      -0.390  10.674  18.207  0.00  0.00    +0.000 NA
ATOM      8  H   UNL     1      -2.668  12.681  17.481  0.00  0.00    +0.000 HD
ATOM      9  H   UNL     1      -2.156  11.231  16.698  0.00  0.00    +0.000 HD
ENDROOT
BRANCH   3  10
ATOM     10  C   UNL     1      -0.342  13.338  21.397  0.00  0.00    +0.000 A 
ATOM     11  C   UNL     1       0.558  14.346  21.734  0.00  0.00    +0.000 A 
ATOM     12  N   UNL     1       0.178  14.991  22.890  0.00  0.00    +0.000 NA
ATOM     13  C   UNL     1      -0.945  14.420  23.268  0.00  0.00    +0.000 A 
ATOM     14  C   UNL     1      -1.792  14.684  24.404  0.00  0.00    +0.000 A 
ATOM     15  C   UNL     1      -1.467  15.701  25.464  0.00  0.00    +0.000 C 
ATOM     16  C   UNL     1      -2.931  13.960  24.532  0.00  0.00    +0.000 A 
ATOM     17  C   UNL     1      -3.300  12.918  23.597  0.00  0.00    +0.000 A 
ATOM     18  C   UNL     1      -2.480  12.645  22.573  0.00  0.00    +0.000 A 
ATOM     19  N   UNL     1      -1.313  13.400  22.394  0.00  0.00    +0.000 N 
BRANCH  11  20
ATOM     20  C   UNL     1       1.777  14.707  21.014  0.00  0.00    +0.000 A 
ATOM     21  C   UNL     1       3.043  14.285  21.444  0.00  0.00    +0.000 A 
ATOM     22  C   UNL     1       4.202  14.714  20.791  0.00  0.00    +0.000 A 
ATOM     23  C   UNL     1       4.106  15.538  19.675  0.00  0.00    +0.000 A 
ATOM     24  C   UNL     1       2.851  15.920  19.201  0.00  0.00    +0.000 A 
ATOM     25  C   UNL     1       1.693  15.505  19.867  0.00  0.00    +0.000 A 
ENDBRANCH  11  20
ENDBRANCH   3  10
BRANCH   1  30
ATOM     26  C   UNL     1       3.693   5.623  18.819  0.00  0.00    +0.000 C 
ATOM     27  C   UNL     1       2.842   6.848  18.960  0.00  0.00    +0.000 A 
ATOM     28  C   UNL     1       2.183   7.132  20.157  0.00  0.00    +0.000 A 
ATOM     29  C   UNL     1       1.365   8.262  20.265  0.00  0.00    +0.000 A 
ATOM     30  C   UNL     1       1.187   9.147  19.186  0.00  0.00    +0.000 A 
ATOM     31  C   UNL     1       1.868   8.848  17.992  0.00  0.00    +0.000 A 
ATOM     32  C   UNL     1       2.683   7.717  17.878  0.00  0.00    +0.000 A 
ENDBRANCH   1  30
TORSDOF 3
ENDMDL
MODEL 9
REMARK VINA RESULT:      -7.7     10.685     14.207
REMARK  Name = 
REMARK  5 active torsions:
REMARK  status: ('A' for Active; 'I' for Inactive)
REMARK    1  A    between atoms: C_1  and  C_2
REMARK    2  A    between atoms: C_5  and  C_6
REMARK    3  A    between atoms: C_8  and  C_9
REMARK    4  A    between atoms: C_10  and  C_11
REMARK    5  A    between atoms: C_19  and  C_20
REMARK                            x       y       z     vdW  Elec       q    Type
REMARK                         _______ _______ _______ _____ _____    ______ ____
ROOT
ATOM      1  C   UNL     1      -4.237  11.805  19.495  0.00  0.00    +0.000 A 
ATOM      2  C   UNL     1      -3.283  12.268  20.377  0.00  0.00    +0.000 A 
ATOM      3  C   UNL     1      -3.743  12.792  21.561  0.00  0.00    +0.000 A 
ATOM      4  N   UNL     1      -5.042  12.788  21.900  0.00  0.00    +0.000 NA
ATOM      5  C   UNL     1      -5.892  12.268  21.019  0.00  0.00    +0.000 A 
ATOM      6  N   UNL     1      -7.217  12.170  21.391  0.00  0.00    +0.000 N 
ATOM      7  N   UNL     1      -5.548  11.786  19.825  0.00  0.00    +0.000 NA
ATOM      8  H   UNL     1      -7.277  12.131  22.401  0.00  0.00    +0.000 HD
ATOM      9  H   UNL     1      -7.664  11.426  20.874  0.00  0.00    +0.000 HD
ENDROOT
BRANCH   3  10
ATOM     10  C   UNL     1      -2.849  13.376  22.558  0.00  0.00    +0.000 A 
ATOM     11  C   UNL     1      -1.605  12.964  23.027  0.00  0.00    +0.000 A 
ATOM     12  N   UNL     1      -1.154  13.786  24.038  0.00  0.00    +0.000 NA
ATOM     13  C   UNL     1      -2.079  14.707  24.191  0.00  0.00    +0.000 A 
ATOM     14  C   UNL     1      -2.145  15.825  25.100  0.00  0.00    +0.000 A 
ATOM     15  C   UNL     1      -1.104  16.103  26.150  0.00  0.00    +0.000 C 
ATOM     16  C   UNL     1      -3.214  16.653  25.016  0.00  0.00    +0.000 A 
ATOM     17  C   UNL     1      -4.297  16.434  24.079  0.00  0.00    +0.000 A 
ATOM     18  C   UNL     1      -4.252  15.364  23.275  0.00  0.00    +0.000 A 
ATOM     19  N   UNL     1      -3.143  14.507  23.314  0.00  0.00    +0.000 N 
BRANCH  11  20
ATOM     20  C   UNL     1      -0.835  11.809  22.572  0.00  0.00    +0.000 A 
ATOM     21  C   UNL     1       0.091  11.903  21.523  0.00  0.00    +0.000 A 
ATOM     22  C   UNL     1       0.753  10.769  21.046  0.00  0.00    +0.000 A 
ATOM     23  C   UNL     1       0.527   9.532  21.641  0.00  0.00    +0.000 A 
ATOM     24  C   UNL     1      -0.348   9.432  22.723  0.00  0.00    +0.000 A 
ATOM     25  C   UNL     1      -1.023  10.565  23.186  0.00  0.00    +0.000 A 
ENDBRANCH  11  20
ENDBRANCH   3  10
BRANCH   1  30
ATOM     26  C   UNL     1      -2.879   9.958  14.150  0.00  0.00    +0.000 C 
ATOM     27  C   UNL     1      -3.250  10.430  15.523  0.00  0.00    +0.000 A 
ATOM     28  C   UNL     1      -4.345  11.272  15.722  0.00  0.00    +0.000 A 
ATOM     29  C   UNL     1      -4.660  11.733  17.005  0.00  0.00    +0.000 A 
ATOM     30  C   UNL     1      -3.900  11.359  18.128  0.00  0.00    +0.000 A 
ATOM     31  C   UNL     1      -2.806  10.503  17.907  0.00  0.00    +0.000 A 
ATOM     32  C   UNL     1      -2.484  10.044  16.626  0.00  0.00    +0.000 A 
ENDBRANCH   1  30
TORSDOF 3
ENDMDL
