MODEL 1
REMARK VINA RESULT:      -9.3      0.000      0.000
REMARK  Name = 
REMARK  10 active torsions:
REMARK  status: ('A' for Active; 'I' for Inactive)
REMARK    1  A    between atoms: C_1  and  O_2
REMARK    2  A    between atoms: O_2  and  C_3
REMARK    3  A    between atoms: C_6  and  C_7
REMARK    4  A    between atoms: N_8  and  N_9
REMARK    5  A    between atoms: C_10  and  C_12
REMARK    6  A    between atoms: C_12  and  S_13
REMARK    7  A    between atoms: S_13  and  C_14
REMARK    8  A    between atoms: N_16  and  C_17
REMARK    9  A    between atoms: C_17  and  C_18
REMARK   10  A    between atoms: C_17  and  C_24
REMARK                            x       y       z     vdW  Elec       q    Type
REMARK                         _______ _______ _______ _____ _____    ______ ____
ROOT
ATOM      1  C   UNL     1       4.928   5.468  16.674  0.00  0.00    +0.000 C 
ATOM      2  C   UNL     1       4.698   4.937  18.106  0.00  0.00    +0.000 C 
ATOM      3  N   UNL     1       4.079   6.230  18.495  0.00  0.00    +0.000 NA
ATOM      4  C   UNL     1       4.717   6.861  17.307  0.00  0.00    +0.000 C 
ENDROOT
BRANCH   1   5
ATOM      5  S   UNL     1       6.653   5.117  16.125  0.00  0.00    +0.000 S 
BRANCH   5   6
ATOM      6  C   UNL     1       7.349   4.550  17.700  0.00  0.00    +0.000 C 
BRANCH   6   8
ATOM      7  N   UNL     1       7.926   6.918  17.824  0.00  0.00    +0.000 N 
ATOM      8  C   UNL     1       7.881   5.708  18.511  0.00  0.00    +0.000 C 
ATOM      9  O   UNL     1       8.248   5.541  19.675  0.00  0.00    +0.000 OA
ATOM     10  H   UNL     1       7.669   6.990  16.848  0.00  0.00    +0.000 HD
BRANCH   7  12
ATOM     11  C   UNL     1       8.299   9.163  17.972  0.00  0.00    +0.000 C 
ATOM     12  N   UNL     1       8.475   7.982  18.469  0.00  0.00    +0.000 NA
BRANCH  11  16
ATOM     13  C   UNL     1      10.063  12.566  19.881  0.00  0.00    +0.000 A 
ATOM     14  C   UNL     1       9.687  12.626  18.539  0.00  0.00    +0.000 A 
ATOM     15  C   UNL     1       9.102  11.521  17.920  0.00  0.00    +0.000 A 
ATOM     16  C   UNL     1       8.907  10.337  18.640  0.00  0.00    +0.000 A 
ATOM     17  C   UNL     1       9.292  10.266  19.981  0.00  0.00    +0.000 A 
ATOM     18  C   UNL     1       9.872  11.383  20.599  0.00  0.00    +0.000 A 
BRANCH  13  20
ATOM     19  C   UNL     1      11.553  14.364  19.492  0.00  0.00    +0.000 C 
ATOM     20  O   UNL     1      10.645  13.705  20.366  0.00  0.00    +0.000 OA
ENDBRANCH  13  20
ENDBRANCH  11  16
ENDBRANCH   7  12
ENDBRANCH   6   8
ENDBRANCH   5   6
ENDBRANCH   1   5
BRANCH   3  21
ATOM     21  C   UNL     1       2.589   6.199  18.395  0.00  0.00    +0.000 C 
BRANCH  21  22
ATOM     22  C   UNL     1       2.026   5.035  19.232  0.00  0.00    +0.000 A 
ATOM     23  C   UNL     1       2.260   4.953  20.616  0.00  0.00    +0.000 A 
ATOM     24  C   UNL     1       1.869   3.826  21.342  0.00  0.00    +0.000 A 
ATOM     25  C   UNL     1       1.239   2.764  20.698  0.00  0.00    +0.000 A 
ATOM     26  C   UNL     1       0.977   2.838  19.332  0.00  0.00    +0.000 A 
ATOM     27  C   UNL     1       1.359   3.969  18.604  0.00  0.00    +0.000 A 
ENDBRANCH  21  22
BRANCH  21  28
ATOM     28  C   UNL     1       1.927   7.531  18.791  0.00  0.00    +0.000 A 
ATOM     29  C   UNL     1       1.669   7.812  20.146  0.00  0.00    +0.000 A 
ATOM     30  C   UNL     1       1.081   9.022  20.532  0.00  0.00    +0.000 A 
ATOM     31  C   UNL     1       0.750   9.977  19.575  0.00  0.00    +0.000 A 
ATOM     32  C   UNL     1       0.998   9.720  18.229  0.00  0.00    +0.000 A 
ATOM     33  C   UNL     1       1.587   8.512  17.842  0.00  0.00    +0.000 A 
ENDBRANCH  21  28
ENDBRANCH   3  21
TORSDOF 9
ENDMDL
MODEL 2
REMARK VINA RESULT:      -8.0      5.503      9.208
REMARK  Name = 
REMARK  10 active torsions:
REMARK  status: ('A' for Active; 'I' for Inactive)
REMARK    1  A    between atoms: C_1  and  O_2
REMARK    2  A    between atoms: O_2  and  C_3
REMARK    3  A    between atoms: C_6  and  C_7
REMARK    4  A    between atoms: N_8  and  N_9
REMARK    5  A    between atoms: C_10  and  C_12
REMARK    6  A    between atoms: C_12  and  S_13
REMARK    7  A    between atoms: S_13  and  C_14
REMARK    8  A    between atoms: N_16  and  C_17
REMARK    9  A    between atoms: C_17  and  C_18
REMARK   10  A    between atoms: C_17  and  C_24
REMARK                            x       y       z     vdW  Elec       q    Type
REMARK                         _______ _______ _______ _____ _____    ______ ____
ROOT
ATOM      1  C   UNL     1       1.878   8.045  17.983  0.00  0.00    +0.000 C 
ATOM      2  C   UNL     1       3.394   7.995  17.691  0.00  0.00    +0.000 C 
ATOM      3  N   UNL     1       3.512   6.741  18.478  0.00  0.00    +0.000 NA
ATOM      4  C   UNL     1       2.206   7.053  19.120  0.00  0.00    +0.000 C 
ENDROOT
BRANCH   1   5
ATOM      5  S   UNL     1       1.383   9.732  18.540  0.00  0.00    +0.000 S 
BRANCH   5   6
ATOM      6  C   UNL     1       0.981   9.359  20.268  0.00  0.00    +0.000 C 
BRANCH   6   8
ATOM      7  N   UNL     1      -0.101  10.412  22.186  0.00  0.00    +0.000 N 
ATOM      8  C   UNL     1       0.660  10.618  21.039  0.00  0.00    +0.000 C 
ATOM      9  O   UNL     1       1.048  11.715  20.634  0.00  0.00    +0.000 OA
ATOM     10  H   UNL     1      -0.447   9.495  22.442  0.00  0.00    +0.000 HD
BRANCH   7  12
ATOM     11  C   UNL     1      -1.689  11.973  22.677  0.00  0.00    +0.000 C 
ATOM     12  N   UNL     1      -0.497  11.512  22.878  0.00  0.00    +0.000 NA
BRANCH  11  16
ATOM     13  C   UNL     1      -3.011  15.474  24.759  0.00  0.00    +0.000 A 
ATOM     14  C   UNL     1      -3.910  14.451  24.457  0.00  0.00    +0.000 A 
ATOM     15  C   UNL     1      -3.477  13.305  23.789  0.00  0.00    +0.000 A 
ATOM     16  C   UNL     1      -2.138  13.185  23.399  0.00  0.00    +0.000 A 
ATOM     17  C   UNL     1      -1.235  14.211  23.687  0.00  0.00    +0.000 A 
ATOM     18  C   UNL     1      -1.675  15.356  24.367  0.00  0.00    +0.000 A 
BRANCH  13  20
ATOM     19  C   UNL     1      -4.036  17.598  24.557  0.00  0.00    +0.000 C 
ATOM     20  O   UNL     1      -3.560  16.552  25.396  0.00  0.00    +0.000 OA
ENDBRANCH  13  20
ENDBRANCH  11  16
ENDBRANCH   7  12
ENDBRANCH   6   8
ENDBRANCH   5   6
ENDBRANCH   1   5
BRANCH   3  21
ATOM     21  C   UNL     1       3.449   5.522  17.616  0.00  0.00    +0.000 C 
BRANCH  21  22
ATOM     22  C   UNL     1       4.848   5.189  17.065  0.00  0.00    +0.000 A 
ATOM     23  C   UNL     1       5.007   4.482  15.861  0.00  0.00    +0.000 A 
ATOM     24  C   UNL     1       6.271   4.061  15.440  0.00  0.00    +0.000 A 
ATOM     25  C   UNL     1       7.394   4.340  16.215  0.00  0.00    +0.000 A 
ATOM     26  C   UNL     1       7.258   5.062  17.400  0.00  0.00    +0.000 A 
ATOM     27  C   UNL     1       5.996   5.492  17.819  0.00  0.00    +0.000 A 
ENDBRANCH  21  22
BRANCH  21  28
ATOM     28  C   UNL     1       2.836   4.304  18.333  0.00  0.00    +0.000 A 
ATOM     29  C   UNL     1       3.525   3.698  19.400  0.00  0.00    +0.000 A 
ATOM     30  C   UNL     1       2.982   2.599  20.076  0.00  0.00    +0.000 A 
ATOM     31  C   UNL     1       1.740   2.092  19.706  0.00  0.00    +0.000 A 
ATOM     32  C   UNL     1       1.041   2.678  18.653  0.00  0.00    +0.000 A 
ATOM     33  C   UNL     1       1.582   3.777  17.978  0.00  0.00    +0.000 A 
ENDBRANCH  21  28
ENDBRANCH   3  21
TORSDOF 9
ENDMDL
MODEL 3
REMARK VINA RESULT:      -7.9      1.186      1.428
REMARK  Name = 
REMARK  10 active torsions:
REMARK  status: ('A' for Active; 'I' for Inactive)
REMARK    1  A    between atoms: C_1  and  O_2
REMARK    2  A    between atoms: O_2  and  C_3
REMARK    3  A    between atoms: C_6  and  C_7
REMARK    4  A    between atoms: N_8  and  N_9
REMARK    5  A    between atoms: C_10  and  C_12
REMARK    6  A    between atoms: C_12  and  S_13
REMARK    7  A    between atoms: S_13  and  C_14
REMARK    8  A    between atoms: N_16  and  C_17
REMARK    9  A    between atoms: C_17  and  C_18
REMARK   10  A    between atoms: C_17  and  C_24
REMARK                            x       y       z     vdW  Elec       q    Type
REMARK                         _______ _______ _______ _____ _____    ______ ____
ROOT
ATOM      1  C   UNL     1       4.745   5.436  16.999  0.00  0.00    +0.000 C 
ATOM      2  C   UNL     1       4.612   4.922  18.451  0.00  0.00    +0.000 C 
ATOM      3  N   UNL     1       4.011   6.217  18.862  0.00  0.00    +0.000 NA
ATOM      4  C   UNL     1       4.566   6.836  17.628  0.00  0.00    +0.000 C 
ENDROOT
BRANCH   1   5
ATOM      5  S   UNL     1       6.433   5.088  16.344  0.00  0.00    +0.000 S 
BRANCH   5   6
ATOM      6  C   UNL     1       7.407   5.501  17.817  0.00  0.00    +0.000 C 
BRANCH   6   8
ATOM      7  N   UNL     1       8.438   7.394  18.961  0.00  0.00    +0.000 N 
ATOM      8  C   UNL     1       7.900   6.927  17.765  0.00  0.00    +0.000 C 
ATOM      9  O   UNL     1       7.797   7.587  16.730  0.00  0.00    +0.000 OA
ATOM     10  H   UNL     1       8.444   6.830  19.802  0.00  0.00    +0.000 HD
BRANCH   7  12
ATOM     11  C   UNL     1       8.473   9.478  18.035  0.00  0.00    +0.000 C 
ATOM     12  N   UNL     1       8.822   8.697  19.006  0.00  0.00    +0.000 NA
BRANCH  11  16
ATOM     13  C   UNL     1       9.724  13.573  18.084  0.00  0.00    +0.000 A 
ATOM     14  C   UNL     1      10.596  12.564  18.494  0.00  0.00    +0.000 A 
ATOM     15  C   UNL     1      10.192  11.229  18.468  0.00  0.00    +0.000 A 
ATOM     16  C   UNL     1       8.900  10.896  18.046  0.00  0.00    +0.000 A 
ATOM     17  C   UNL     1       8.018  11.902  17.646  0.00  0.00    +0.000 A 
ATOM     18  C   UNL     1       8.433  13.241  17.666  0.00  0.00    +0.000 A 
BRANCH  13  20
ATOM     19  C   UNL     1       9.995  15.518  19.405  0.00  0.00    +0.000 C 
ATOM     20  O   UNL     1      10.229  14.841  18.176  0.00  0.00    +0.000 OA
ENDBRANCH  13  20
ENDBRANCH  11  16
ENDBRANCH   7  12
ENDBRANCH   6   8
ENDBRANCH   5   6
ENDBRANCH   1   5
BRANCH   3  21
ATOM     21  C   UNL     1       2.517   6.175  18.859  0.00  0.00    +0.000 C 
BRANCH  21  22
ATOM     22  C   UNL     1       2.019   4.970  19.677  0.00  0.00    +0.000 A 
ATOM     23  C   UNL     1       2.468   4.745  20.991  0.00  0.00    +0.000 A 
ATOM     24  C   UNL     1       2.124   3.577  21.675  0.00  0.00    +0.000 A 
ATOM     25  C   UNL     1       1.326   2.617  21.058  0.00  0.00    +0.000 A 
ATOM     26  C   UNL     1       0.851   2.834  19.766  0.00  0.00    +0.000 A 
ATOM     27  C   UNL     1       1.187   4.005  19.083  0.00  0.00    +0.000 A 
ENDBRANCH  21  22
BRANCH  21  28
ATOM     28  C   UNL     1       1.874   7.483  19.358  0.00  0.00    +0.000 A 
ATOM     29  C   UNL     1       1.490   7.606  20.706  0.00  0.00    +0.000 A 
ATOM     30  C   UNL     1       0.916   8.789  21.187  0.00  0.00    +0.000 A 
ATOM     31  C   UNL     1       0.725   9.872  20.333  0.00  0.00    +0.000 A 
ATOM     32  C   UNL     1       1.100   9.772  18.996  0.00  0.00    +0.000 A 
ATOM     33  C   UNL     1       1.675   8.591  18.515  0.00  0.00    +0.000 A 
ENDBRANCH  21  28
ENDBRANCH   3  21
TORSDOF 9
ENDMDL
MODEL 4
REMARK VINA RESULT:      -7.8      5.648      9.535
REMARK  Name = 
REMARK  10 active torsions:
REMARK  status: ('A' for Active; 'I' for Inactive)
REMARK    1  A    between atoms: C_1  and  O_2
REMARK    2  A    between atoms: O_2  and  C_3
REMARK    3  A    between atoms: C_6  and  C_7
REMARK    4  A    between atoms: N_8  and  N_9
REMARK    5  A    between atoms: C_10  and  C_12
REMARK    6  A    between atoms: C_12  and  S_13
REMARK    7  A    between atoms: S_13  and  C_14
REMARK    8  A    between atoms: N_16  and  C_17
REMARK    9  A    between atoms: C_17  and  C_18
REMARK   10  A    between atoms: C_17  and  C_24
REMARK                            x       y       z     vdW  Elec       q    Type
REMARK                         _______ _______ _______ _____ _____    ______ ____
ROOT
ATOM      1  C   UNL     1       1.600   7.924  18.693  0.00  0.00    +0.000 C 
ATOM      2  C   UNL     1       2.935   8.102  17.936  0.00  0.00    +0.000 C 
ATOM      3  N   UNL     1       3.473   6.878  18.584  0.00  0.00    +0.000 NA
ATOM      4  C   UNL     1       2.411   6.990  19.619  0.00  0.00    +0.000 C 
ENDROOT
BRANCH   1   5
ATOM      5  S   UNL     1       1.076   9.517  19.459  0.00  0.00    +0.000 S 
BRANCH   5   6
ATOM      6  C   UNL     1       1.186   9.048  21.207  0.00  0.00    +0.000 C 
BRANCH   6   8
ATOM      7  N   UNL     1      -0.460  10.842  21.358  0.00  0.00    +0.000 N 
ATOM      8  C   UNL     1       0.330   9.945  22.069  0.00  0.00    +0.000 C 
ATOM      9  O   UNL     1       0.377   9.862  23.297  0.00  0.00    +0.000 OA
ATOM     10  H   UNL     1      -0.417  10.912  20.349  0.00  0.00    +0.000 HD
BRANCH   7  12
ATOM     11  C   UNL     1      -2.174  12.341  21.493  0.00  0.00    +0.000 C 
ATOM     12  N   UNL     1      -1.190  11.737  22.076  0.00  0.00    +0.000 NA
BRANCH  11  16
ATOM     13  C   UNL     1      -4.470  15.213  23.687  0.00  0.00    +0.000 A 
ATOM     14  C   UNL     1      -3.566  14.380  24.346  0.00  0.00    +0.000 A 
ATOM     15  C   UNL     1      -2.810  13.452  23.630  0.00  0.00    +0.000 A 
ATOM     16  C   UNL     1      -2.970  13.338  22.244  0.00  0.00    +0.000 A 
ATOM     17  C   UNL     1      -3.882  14.160  21.579  0.00  0.00    +0.000 A 
ATOM     18  C   UNL     1      -4.633  15.097  22.304  0.00  0.00    +0.000 A 
BRANCH  13  20
ATOM     19  C   UNL     1      -4.420  17.129  25.076  0.00  0.00    +0.000 C 
ATOM     20  O   UNL     1      -5.166  16.064  24.501  0.00  0.00    +0.000 OA
ENDBRANCH  13  20
ENDBRANCH  11  16
ENDBRANCH   7  12
ENDBRANCH   6   8
ENDBRANCH   5   6
ENDBRANCH   1   5
BRANCH   3  21
ATOM     21  C   UNL     1       3.311   5.664  17.727  0.00  0.00    +0.000 C 
BRANCH  21  22
ATOM     22  C   UNL     1       4.655   5.294  17.073  0.00  0.00    +0.000 A 
ATOM     23  C   UNL     1       5.804   6.078  17.274  0.00  0.00    +0.000 A 
ATOM     24  C   UNL     1       6.981   5.819  16.568  0.00  0.00    +0.000 A 
ATOM     25  C   UNL     1       7.028   4.772  15.651  0.00  0.00    +0.000 A 
ATOM     26  C   UNL     1       5.907   3.968  15.457  0.00  0.00    +0.000 A 
ATOM     27  C   UNL     1       4.731   4.220  16.168  0.00  0.00    +0.000 A 
ENDBRANCH  21  22
BRANCH  21  28
ATOM     28  C   UNL     1       2.719   4.462  18.485  0.00  0.00    +0.000 A 
ATOM     29  C   UNL     1       1.487   3.914  18.081  0.00  0.00    +0.000 A 
ATOM     30  C   UNL     1       0.935   2.813  18.746  0.00  0.00    +0.000 A 
ATOM     31  C   UNL     1       1.607   2.233  19.819  0.00  0.00    +0.000 A 
ATOM     32  C   UNL     1       2.827   2.759  20.234  0.00  0.00    +0.000 A 
ATOM     33  C   UNL     1       3.381   3.858  19.570  0.00  0.00    +0.000 A 
ENDBRANCH  21  28
ENDBRANCH   3  21
TORSDOF 9
ENDMDL
MODEL 5
REMARK VINA RESULT:      -7.8      5.637      9.289
REMARK  Name = 
REMARK  10 active torsions:
REMARK  status: ('A' for Active; 'I' for Inactive)
REMARK    1  A    between atoms: C_1  and  O_2
REMARK    2  A    between atoms: O_2  and  C_3
REMARK    3  A    between atoms: C_6  and  C_7
REMARK    4  A    between atoms: N_8  and  N_9
REMARK    5  A    between atoms: C_10  and  C_12
REMARK    6  A    between atoms: C_12  and  S_13
REMARK    7  A    between atoms: S_13  and  C_14
REMARK    8  A    between atoms: N_16  and  C_17
REMARK    9  A    between atoms: C_17  and  C_18
REMARK   10  A    between atoms: C_17  and  C_24
REMARK                            x       y       z     vdW  Elec       q    Type
REMARK                         _______ _______ _______ _____ _____    ______ ____
ROOT
ATOM      1  C   UNL     1       1.820   8.156  17.930  0.00  0.00    +0.000 C 
ATOM      2  C   UNL     1       3.324   8.002  17.609  0.00  0.00    +0.000 C 
ATOM      3  N   UNL     1       3.413   6.853  18.548  0.00  0.00    +0.000 NA
ATOM      4  C   UNL     1       2.142   7.303  19.177  0.00  0.00    +0.000 C 
ENDROOT
BRANCH   1   5
ATOM      5  S   UNL     1       1.413   9.921  18.278  0.00  0.00    +0.000 S 
BRANCH   5   6
ATOM      6  C   UNL     1       1.095   9.798  20.059  0.00  0.00    +0.000 C 
BRANCH   6   8
ATOM      7  N   UNL     1      -0.718  10.717  21.410  0.00  0.00    +0.000 N 
ATOM      8  C   UNL     1       0.350  11.010  20.566  0.00  0.00    +0.000 C 
ATOM      9  O   UNL     1       0.686  12.142  20.218  0.00  0.00    +0.000 OA
ATOM     10  H   UNL     1      -0.992   9.765  21.617  0.00  0.00    +0.000 HD
BRANCH   7  12
ATOM     11  C   UNL     1      -1.332  12.185  23.044  0.00  0.00    +0.000 C 
ATOM     12  N   UNL     1      -1.483  11.758  21.832  0.00  0.00    +0.000 NA
BRANCH  11  16
ATOM     13  C   UNL     1      -3.738  15.420  24.486  0.00  0.00    +0.000 A 
ATOM     14  C   UNL     1      -2.346  15.495  24.544  0.00  0.00    +0.000 A 
ATOM     15  C   UNL     1      -1.562  14.446  24.064  0.00  0.00    +0.000 A 
ATOM     16  C   UNL     1      -2.171  13.300  23.538  0.00  0.00    +0.000 A 
ATOM     17  C   UNL     1      -3.564  13.212  23.489  0.00  0.00    +0.000 A 
ATOM     18  C   UNL     1      -4.346  14.274  23.965  0.00  0.00    +0.000 A 
BRANCH  13  20
ATOM     19  C   UNL     1      -3.981  17.774  24.527  0.00  0.00    +0.000 C 
ATOM     20  O   UNL     1      -4.394  16.501  25.008  0.00  0.00    +0.000 OA
ENDBRANCH  13  20
ENDBRANCH  11  16
ENDBRANCH   7  12
ENDBRANCH   6   8
ENDBRANCH   5   6
ENDBRANCH   1   5
BRANCH   3  21
ATOM     21  C   UNL     1       3.273   5.539  17.851  0.00  0.00    +0.000 C 
BRANCH  21  22
ATOM     22  C   UNL     1       4.645   5.062  17.339  0.00  0.00    +0.000 A 
ATOM     23  C   UNL     1       5.840   5.576  17.871  0.00  0.00    +0.000 A 
ATOM     24  C   UNL     1       7.075   5.246  17.306  0.00  0.00    +0.000 A 
ATOM     25  C   UNL     1       7.134   4.398  16.203  0.00  0.00    +0.000 A 
ATOM     26  C   UNL     1       5.961   3.860  15.678  0.00  0.00    +0.000 A 
ATOM     27  C   UNL     1       4.725   4.181  16.246  0.00  0.00    +0.000 A 
ENDBRANCH  21  22
BRANCH  21  28
ATOM     28  C   UNL     1       2.606   4.459  18.723  0.00  0.00    +0.000 A 
ATOM     29  C   UNL     1       3.137   4.153  19.990  0.00  0.00    +0.000 A 
ATOM     30  C   UNL     1       2.541   3.185  20.807  0.00  0.00    +0.000 A 
ATOM     31  C   UNL     1       1.399   2.514  20.379  0.00  0.00    +0.000 A 
ATOM     32  C   UNL     1       0.857   2.803  19.130  0.00  0.00    +0.000 A 
ATOM     33  C   UNL     1       1.451   3.770  18.313  0.00  0.00    +0.000 A 
ENDBRANCH  21  28
ENDBRANCH   3  21
TORSDOF 9
ENDMDL
MODEL 6
REMARK VINA RESULT:      -7.6      4.144      8.136
REMARK  Name = 
REMARK  10 active torsions:
REMARK  status: ('A' for Active; 'I' for Inactive)
REMARK    1  A    between atoms: C_1  and  O_2
REMARK    2  A    between atoms: O_2  and  C_3
REMARK    3  A    between atoms: C_6  and  C_7
REMARK    4  A    between atoms: N_8  and  N_9
REMARK    5  A    between atoms: C_10  and  C_12
REMARK    6  A    between atoms: C_12  and  S_13
REMARK    7  A    between atoms: S_13  and  C_14
REMARK    8  A    between atoms: N_16  and  C_17
REMARK    9  A    between atoms: C_17  and  C_18
REMARK   10  A    between atoms: C_17  and  C_24
REMARK                            x       y       z     vdW  Elec       q    Type
REMARK                         _______ _______ _______ _____ _____    ______ ____
ROOT
ATOM      1  C   UNL     1       3.306   3.505  18.052  0.00  0.00    +0.000 C 
ATOM      2  C   UNL     1       4.806   3.632  18.401  0.00  0.00    +0.000 C 
ATOM      3  N   UNL     1       5.163   3.421  16.974  0.00  0.00    +0.000 NA
ATOM      4  C   UNL     1       3.809   2.846  16.748  0.00  0.00    +0.000 C 
ENDROOT
BRANCH   1   5
ATOM      5  S   UNL     1       2.465   2.360  19.228  0.00  0.00    +0.000 S 
BRANCH   5   6
ATOM      6  C   UNL     1       2.557   3.370  20.731  0.00  0.00    +0.000 C 
BRANCH   6   8
ATOM      7  N   UNL     1       2.149   5.768  20.925  0.00  0.00    +0.000 N 
ATOM      8  C   UNL     1       1.581   4.522  20.676  0.00  0.00    +0.000 C 
ATOM      9  O   UNL     1       0.388   4.321  20.444  0.00  0.00    +0.000 OA
ATOM     10  H   UNL     1       3.125   5.873  21.171  0.00  0.00    +0.000 HD
BRANCH   7  12
ATOM     11  C   UNL     1       1.749   7.987  20.577  0.00  0.00    +0.000 C 
ATOM     12  N   UNL     1       1.310   6.837  20.976  0.00  0.00    +0.000 NA
BRANCH  11  16
ATOM     13  C   UNL     1      -0.814  11.410  20.799  0.00  0.00    +0.000 A 
ATOM     14  C   UNL     1      -0.389  10.770  21.964  0.00  0.00    +0.000 A 
ATOM     15  C   UNL     1       0.454   9.661  21.892  0.00  0.00    +0.000 A 
ATOM     16  C   UNL     1       0.865   9.173  20.646  0.00  0.00    +0.000 A 
ATOM     17  C   UNL     1       0.434   9.801  19.475  0.00  0.00    +0.000 A 
ATOM     18  C   UNL     1      -0.407  10.920  19.555  0.00  0.00    +0.000 A 
BRANCH  13  20
ATOM     19  C   UNL     1      -2.787  12.541  20.142  0.00  0.00    +0.000 C 
ATOM     20  O   UNL     1      -1.655  12.470  21.000  0.00  0.00    +0.000 OA
ENDBRANCH  13  20
ENDBRANCH  11  16
ENDBRANCH   7  12
ENDBRANCH   6   8
ENDBRANCH   5   6
ENDBRANCH   1   5
BRANCH   3  21
ATOM     21  C   UNL     1       5.368   4.708  16.244  0.00  0.00    +0.000 C 
BRANCH  21  22
ATOM     22  C   UNL     1       6.240   5.660  17.083  0.00  0.00    +0.000 A 
ATOM     23  C   UNL     1       6.211   7.050  16.872  0.00  0.00    +0.000 A 
ATOM     24  C   UNL     1       7.105   7.893  17.536  0.00  0.00    +0.000 A 
ATOM     25  C   UNL     1       8.040   7.362  18.420  0.00  0.00    +0.000 A 
ATOM     26  C   UNL     1       8.068   5.989  18.660  0.00  0.00    +0.000 A 
ATOM     27  C   UNL     1       7.169   5.144  18.003  0.00  0.00    +0.000 A 
ENDBRANCH  21  22
BRANCH  21  28
ATOM     28  C   UNL     1       5.961   4.517  14.835  0.00  0.00    +0.000 A 
ATOM     29  C   UNL     1       5.264   3.758  13.877  0.00  0.00    +0.000 A 
ATOM     30  C   UNL     1       5.775   3.582  12.585  0.00  0.00    +0.000 A 
ATOM     31  C   UNL     1       6.986   4.168  12.226  0.00  0.00    +0.000 A 
ATOM     32  C   UNL     1       7.691   4.923  13.158  0.00  0.00    +0.000 A 
ATOM     33  C   UNL     1       7.180   5.101  14.448  0.00  0.00    +0.000 A 
ENDBRANCH  21  28
ENDBRANCH   3  21
TORSDOF 9
ENDMDL
MODEL 7
REMARK VINA RESULT:      -7.6      3.916      7.933
REMARK  Name = 
REMARK  10 active torsions:
REMARK  status: ('A' for Active; 'I' for Inactive)
REMARK    1  A    between atoms: C_1  and  O_2
REMARK    2  A    between atoms: O_2  and  C_3
REMARK    3  A    between atoms: C_6  and  C_7
REMARK    4  A    between atoms: N_8  and  N_9
REMARK    5  A    between atoms: C_10  and  C_12
REMARK    6  A    between atoms: C_12  and  S_13
REMARK    7  A    between atoms: S_13  and  C_14
REMARK    8  A    between atoms: N_16  and  C_17
REMARK    9  A    between atoms: C_17  and  C_18
REMARK   10  A    between atoms: C_17  and  C_24
REMARK                            x       y       z     vdW  Elec       q    Type
REMARK                         _______ _______ _______ _____ _____    ______ ____
ROOT
ATOM      1  C   UNL     1       3.471   3.536  18.493  0.00  0.00    +0.000 C 
ATOM      2  C   UNL     1       4.845   4.021  19.010  0.00  0.00    +0.000 C 
ATOM      3  N   UNL     1       5.444   3.769  17.674  0.00  0.00    +0.000 NA
ATOM      4  C   UNL     1       4.286   2.893  17.349  0.00  0.00    +0.000 C 
ENDROOT
BRANCH   1   5
ATOM      5  S   UNL     1       2.720   2.342  19.681  0.00  0.00    +0.000 S 
BRANCH   5   6
ATOM      6  C   UNL     1       2.533   3.438  21.113  0.00  0.00    +0.000 C 
BRANCH   6   8
ATOM      7  N   UNL     1       2.172   5.850  21.068  0.00  0.00    +0.000 N 
ATOM      8  C   UNL     1       1.622   4.600  20.798  0.00  0.00    +0.000 C 
ATOM      9  O   UNL     1       0.489   4.405  20.357  0.00  0.00    +0.000 OA
ATOM     10  H   UNL     1       3.086   5.955  21.488  0.00  0.00    +0.000 HD
BRANCH   7  12
ATOM     11  C   UNL     1       1.833   7.936  20.210  0.00  0.00    +0.000 C 
ATOM     12  N   UNL     1       1.372   6.935  20.888  0.00  0.00    +0.000 NA
BRANCH  11  16
ATOM     13  C   UNL     1      -0.609  11.414  19.682  0.00  0.00    +0.000 A 
ATOM     14  C   UNL     1      -0.540  10.782  20.924  0.00  0.00    +0.000 A 
ATOM     15  C   UNL     1       0.264   9.656  21.099  0.00  0.00    +0.000 A 
ATOM     16  C   UNL     1       0.993   9.141  20.020  0.00  0.00    +0.000 A 
ATOM     17  C   UNL     1       0.918   9.760  18.771  0.00  0.00    +0.000 A 
ATOM     18  C   UNL     1       0.115  10.897  18.604  0.00  0.00    +0.000 A 
BRANCH  13  20
ATOM     19  C   UNL     1      -1.408  13.368  20.753  0.00  0.00    +0.000 C 
ATOM     20  O   UNL     1      -1.448  12.493  19.632  0.00  0.00    +0.000 OA
ENDBRANCH  13  20
ENDBRANCH  11  16
ENDBRANCH   7  12
ENDBRANCH   6   8
ENDBRANCH   5   6
ENDBRANCH   1   5
BRANCH   3  21
ATOM     21  C   UNL     1       5.485   5.000  16.829  0.00  0.00    +0.000 C 
BRANCH  21  22
ATOM     22  C   UNL     1       6.408   6.052  17.470  0.00  0.00    +0.000 A 
ATOM     23  C   UNL     1       6.419   7.384  17.019  0.00  0.00    +0.000 A 
ATOM     24  C   UNL     1       7.357   8.297  17.507  0.00  0.00    +0.000 A 
ATOM     25  C   UNL     1       8.297   7.895  18.452  0.00  0.00    +0.000 A 
ATOM     26  C   UNL     1       8.286   6.586  18.929  0.00  0.00    +0.000 A 
ATOM     27  C   UNL     1       7.343   5.672  18.449  0.00  0.00    +0.000 A 
ENDBRANCH  21  22
BRANCH  21  28
ATOM     28  C   UNL     1       5.898   4.721  15.372  0.00  0.00    +0.000 A 
ATOM     29  C   UNL     1       7.196   5.045  14.935  0.00  0.00    +0.000 A 
ATOM     30  C   UNL     1       7.600   4.789  13.619  0.00  0.00    +0.000 A 
ATOM     31  C   UNL     1       6.718   4.195  12.720  0.00  0.00    +0.000 A 
ATOM     32  C   UNL     1       5.430   3.864  13.132  0.00  0.00    +0.000 A 
ATOM     33  C   UNL     1       5.026   4.119  14.446  0.00  0.00    +0.000 A 
ENDBRANCH  21  28
ENDBRANCH   3  21
TORSDOF 9
ENDMDL
MODEL 8
REMARK VINA RESULT:      -7.6      1.014      1.349
REMARK  Name = 
REMARK  10 active torsions:
REMARK  status: ('A' for Active; 'I' for Inactive)
REMARK    1  A    between atoms: C_1  and  O_2
REMARK    2  A    between atoms: O_2  and  C_3
REMARK    3  A    between atoms: C_6  and  C_7
REMARK    4  A    between atoms: N_8  and  N_9
REMARK    5  A    between atoms: C_10  and  C_12
REMARK    6  A    between atoms: C_12  and  S_13
REMARK    7  A    between atoms: S_13  and  C_14
REMARK    8  A    between atoms: N_16  and  C_17
REMARK    9  A    between atoms: C_17  and  C_18
REMARK   10  A    between atoms: C_17  and  C_24
REMARK                            x       y       z     vdW  Elec       q    Type
REMARK                         _______ _______ _______ _____ _____    ______ ____
ROOT
ATOM      1  C   UNL     1       4.874   4.952  17.540  0.00  0.00    +0.000 C 
ATOM      2  C   UNL     1       4.636   5.265  19.035  0.00  0.00    +0.000 C 
ATOM      3  N   UNL     1       3.991   6.552  18.670  0.00  0.00    +0.000 NA
ATOM      4  C   UNL     1       4.632   6.463  17.330  0.00  0.00    +0.000 C 
ENDROOT
BRANCH   1   5
ATOM      5  S   UNL     1       6.611   4.397  17.266  0.00  0.00    +0.000 S 
BRANCH   5   6
ATOM      6  C   UNL     1       7.285   5.910  16.529  0.00  0.00    +0.000 C 
BRANCH   6   8
ATOM      7  N   UNL     1       7.521   8.260  17.142  0.00  0.00    +0.000 N 
ATOM      8  C   UNL     1       7.593   6.943  17.587  0.00  0.00    +0.000 C 
ATOM      9  O   UNL     1       7.894   6.597  18.730  0.00  0.00    +0.000 OA
ATOM     10  H   UNL     1       7.329   8.490  16.175  0.00  0.00    +0.000 HD
BRANCH   7  12
ATOM     11  C   UNL     1       8.844  10.029  17.710  0.00  0.00    +0.000 C 
ATOM     12  N   UNL     1       7.871   9.236  18.022  0.00  0.00    +0.000 NA
BRANCH  11  16
ATOM     13  C   UNL     1      10.052  13.065  20.479  0.00  0.00    +0.000 A 
ATOM     14  C   UNL     1      10.182  11.715  20.810  0.00  0.00    +0.000 A 
ATOM     15  C   UNL     1       9.799  10.727  19.903  0.00  0.00    +0.000 A 
ATOM     16  C   UNL     1       9.262  11.085  18.661  0.00  0.00    +0.000 A 
ATOM     17  C   UNL     1       9.117  12.433  18.328  0.00  0.00    +0.000 A 
ATOM     18  C   UNL     1       9.512  13.422  19.240  0.00  0.00    +0.000 A 
BRANCH  13  20
ATOM     19  C   UNL     1       9.396  14.629  22.130  0.00  0.00    +0.000 C 
ATOM     20  O   UNL     1      10.441  13.936  21.458  0.00  0.00    +0.000 OA
ENDBRANCH  13  20
ENDBRANCH  11  16
ENDBRANCH   7  12
ENDBRANCH   6   8
ENDBRANCH   5   6
ENDBRANCH   1   5
BRANCH   3  21
ATOM     21  C   UNL     1       2.502   6.442  18.601  0.00  0.00    +0.000 C 
BRANCH  21  22
ATOM     22  C   UNL     1       2.025   5.213  19.397  0.00  0.00    +0.000 A 
ATOM     23  C   UNL     1       2.329   5.066  20.762  0.00  0.00    +0.000 A 
ATOM     24  C   UNL     1       2.016   3.887  21.442  0.00  0.00    +0.000 A 
ATOM     25  C   UNL     1       1.394   2.837  20.770  0.00  0.00    +0.000 A 
ATOM     26  C   UNL     1       1.063   2.975  19.423  0.00  0.00    +0.000 A 
ATOM     27  C   UNL     1       1.367   4.157  18.743  0.00  0.00    +0.000 A 
ENDBRANCH  21  22
BRANCH  21  28
ATOM     28  C   UNL     1       1.778   7.717  19.071  0.00  0.00    +0.000 A 
ATOM     29  C   UNL     1       1.546   7.928  20.443  0.00  0.00    +0.000 A 
ATOM     30  C   UNL     1       0.902   9.086  20.895  0.00  0.00    +0.000 A 
ATOM     31  C   UNL     1       0.488  10.057  19.988  0.00  0.00    +0.000 A 
ATOM     32  C   UNL     1       0.709   9.869  18.626  0.00  0.00    +0.000 A 
ATOM     33  C   UNL     1       1.353   8.713  18.173  0.00  0.00    +0.000 A 
ENDBRANCH  21  28
ENDBRANCH   3  21
TORSDOF 9
ENDMDL
MODEL 9
REMARK VINA RESULT:      -7.6      5.751      9.064
REMARK  Name = 
REMARK  10 active torsions:
REMARK  status: ('A' for Active; 'I' for Inactive)
REMARK    1  A    between atoms: C_1  and  O_2
REMARK    2  A    between atoms: O_2  and  C_3
REMARK    3  A    between atoms: C_6  and  C_7
REMARK    4  A    between atoms: N_8  and  N_9
REMARK    5  A    between atoms: C_10  and  C_12
REMARK    6  A    between atoms: C_12  and  S_13
REMARK    7  A    between atoms: S_13  and  C_14
REMARK    8  A    between atoms: N_16  and  C_17
REMARK    9  A    between atoms: C_17  and  C_18
REMARK   10  A    between atoms: C_17  and  C_24
REMARK                            x       y       z     vdW  Elec       q    Type
REMARK                         _______ _______ _______ _____ _____    ______ ____
ROOT
ATOM      1  C   UNL     1       1.428   8.454  18.319  0.00  0.00    +0.000 C 
ATOM      2  C   UNL     1       2.834   8.454  17.677  0.00  0.00    +0.000 C 
ATOM      3  N   UNL     1       3.234   7.310  18.536  0.00  0.00    +0.000 NA
ATOM      4  C   UNL     1       2.094   7.624  19.439  0.00  0.00    +0.000 C 
ENDROOT
BRANCH   1   5
ATOM      5  S   UNL     1       0.942  10.166  18.804  0.00  0.00    +0.000 S 
BRANCH   5   6
ATOM      6  C   UNL     1       0.264   9.819  20.449  0.00  0.00    +0.000 C 
BRANCH   6   8
ATOM      7  N   UNL     1      -0.747  11.235  22.160  0.00  0.00    +0.000 N 
ATOM      8  C   UNL     1       0.365  11.028  21.348  0.00  0.00    +0.000 C 
ATOM      9  O   UNL     1       1.362  11.749  21.316  0.00  0.00    +0.000 OA
ATOM     10  H   UNL     1      -1.569  10.646  22.104  0.00  0.00    +0.000 HD
BRANCH   7  12
ATOM     11  C   UNL     1      -1.872  12.994  23.077  0.00  0.00    +0.000 C 
ATOM     12  N   UNL     1      -0.757  12.354  22.931  0.00  0.00    +0.000 NA
BRANCH  11  16
ATOM     13  C   UNL     1      -1.946  16.575  25.424  0.00  0.00    +0.000 A 
ATOM     14  C   UNL     1      -0.963  16.389  24.451  0.00  0.00    +0.000 A 
ATOM     15  C   UNL     1      -0.946  15.227  23.679  0.00  0.00    +0.000 A 
ATOM     16  C   UNL     1      -1.906  14.231  23.891  0.00  0.00    +0.000 A 
ATOM     17  C   UNL     1      -2.885  14.405  24.871  0.00  0.00    +0.000 A 
ATOM     18  C   UNL     1      -2.902  15.579  25.638  0.00  0.00    +0.000 A 
BRANCH  13  20
ATOM     19  C   UNL     1      -0.647  17.917  26.878  0.00  0.00    +0.000 C 
ATOM     20  O   UNL     1      -1.843  17.743  26.128  0.00  0.00    +0.000 OA
ENDBRANCH  13  20
ENDBRANCH  11  16
ENDBRANCH   7  12
ENDBRANCH   6   8
ENDBRANCH   5   6
ENDBRANCH   1   5
BRANCH   3  21
ATOM     21  C   UNL     1       3.071   5.996  17.843  0.00  0.00    +0.000 C 
BRANCH  21  22
ATOM     22  C   UNL     1       4.413   5.549  17.234  0.00  0.00    +0.000 A 
ATOM     23  C   UNL     1       4.535   4.318  16.565  0.00  0.00    +0.000 A 
ATOM     24  C   UNL     1       5.782   3.855  16.141  0.00  0.00    +0.000 A 
ATOM     25  C   UNL     1       6.926   4.614  16.376  0.00  0.00    +0.000 A 
ATOM     26  C   UNL     1       6.821   5.847  17.015  0.00  0.00    +0.000 A 
ATOM     27  C   UNL     1       5.573   6.317  17.433  0.00  0.00    +0.000 A 
ENDBRANCH  21  22
BRANCH  21  28
ATOM     28  C   UNL     1       2.488   4.900  18.754  0.00  0.00    +0.000 A 
ATOM     29  C   UNL     1       1.408   4.116  18.307  0.00  0.00    +0.000 A 
ATOM     30  C   UNL     1       0.869   3.105  19.111  0.00  0.00    +0.000 A 
ATOM     31  C   UNL     1       1.406   2.851  20.370  0.00  0.00    +0.000 A 
ATOM     32  C   UNL     1       2.475   3.613  20.831  0.00  0.00    +0.000 A 
ATOM     33  C   UNL     1       3.015   4.623  20.028  0.00  0.00    +0.000 A 
ENDBRANCH  21  28
ENDBRANCH   3  21
TORSDOF 9
ENDMDL
