MODEL 1
REMARK VINA RESULT:      -7.4      0.000      0.000
REMARK  Name = 
REMARK  5 active torsions:
REMARK  status: ('A' for Active; 'I' for Inactive)
REMARK    1  A    between atoms: C_2  and  C_4
REMARK    2  A    between atoms: C_9  and  N_10
REMARK    3  A    between atoms: C_11  and  C_12
REMARK    4  A    between atoms: C_13  and  O_14
REMARK    5  A    between atoms: C_13  and  C_15
REMARK                            x       y       z     vdW  Elec       q    Type
REMARK                         _______ _______ _______ _____ _____    ______ ____
ROOT
ATOM      1  C   UNL     1       3.535   3.251  19.967  0.00  0.00    +0.000 A 
ATOM      2  C   UNL     1       2.575   3.042  20.979  0.00  0.00    +0.000 A 
ATOM      3  C   UNL     1       1.730   4.069  21.390  0.00  0.00    +0.000 A 
ATOM      4  C   UNL     1       1.800   5.306  20.767  0.00  0.00    +0.000 A 
ATOM      5  C   UNL     1       2.735   5.517  19.752  0.00  0.00    +0.000 A 
ATOM      6  C   UNL     1       3.654   4.520  19.362  0.00  0.00    +0.000 A 
ENDROOT
BRANCH   1   8
ATOM      7  N   UNL     1       4.184   1.537  18.343  0.00  0.00    +0.000 N 
ATOM      8  C   UNL     1       4.338   2.051  19.597  0.00  0.00    +0.000 C 
ATOM      9  O   UNL     1       5.149   1.561  20.373  0.00  0.00    +0.000 OA
ATOM     10  H   UNL     1       4.728   0.722  18.091  0.00  0.00    +0.000 HD
ATOM     11  H   UNL     1       3.514   1.914  17.689  0.00  0.00    +0.000 HD
ENDBRANCH   1   8
BRANCH   6  12
ATOM     12  N   UNL     1       4.590   4.787  18.327  0.00  0.00    +0.000 NA
ATOM     13  C   UNL     1       4.133   5.107  17.157  0.00  0.00    +0.000 C 
BRANCH  13  14
ATOM     14  C   UNL     1       4.990   5.282  15.966  0.00  0.00    +0.000 C 
ATOM     15  C   UNL     1       5.769   4.303  15.485  0.00  0.00    +0.000 C 
BRANCH  15  16
ATOM     16  C   UNL     1       6.531   4.514  14.298  0.00  0.00    +0.000 A 
ATOM     17  C   UNL     1       6.374   3.949  13.036  0.00  0.00    +0.000 A 
ATOM     18  C   UNL     1       7.373   4.477  12.186  0.00  0.00    +0.000 A 
ATOM     19  C   UNL     1       8.096   5.349  12.957  0.00  0.00    +0.000 A 
ATOM     20  O   UNL     1       7.606   5.382  14.219  0.00  0.00    +0.000 OA
ENDBRANCH  15  16
BRANCH  15  21
ATOM     21  O   UNL     1       5.885   3.053  16.053  0.00  0.00    +0.000 OA
ATOM     22  H   UNL     1       6.806   2.747  15.903  0.00  0.00    +0.000 HD
ENDBRANCH  15  21
ENDBRANCH  13  14
ENDBRANCH   6  12
TORSDOF 5
ENDMDL
MODEL 2
REMARK VINA RESULT:      -6.9      0.975      1.113
REMARK  Name = 
REMARK  5 active torsions:
REMARK  status: ('A' for Active; 'I' for Inactive)
REMARK    1  A    between atoms: C_2  and  C_4
REMARK    2  A    between atoms: C_9  and  N_10
REMARK    3  A    between atoms: C_11  and  C_12
REMARK    4  A    between atoms: C_13  and  O_14
REMARK    5  A    between atoms: C_13  and  C_15
REMARK                            x       y       z     vdW  Elec       q    Type
REMARK                         _______ _______ _______ _____ _____    ______ ____
ROOT
ATOM      1  C   UNL     1       3.348   2.745  19.950  0.00  0.00    +0.000 A 
ATOM      2  C   UNL     1       2.499   2.749  21.076  0.00  0.00    +0.000 A 
ATOM      3  C   UNL     1       1.451   3.659  21.182  0.00  0.00    +0.000 A 
ATOM      4  C   UNL     1       1.209   4.550  20.147  0.00  0.00    +0.000 A 
ATOM      5  C   UNL     1       2.033   4.543  19.020  0.00  0.00    +0.000 A 
ATOM      6  C   UNL     1       3.146   3.682  18.914  0.00  0.00    +0.000 A 
ENDROOT
BRANCH   1   8
ATOM      7  N   UNL     1       4.408   0.794  18.919  0.00  0.00    +0.000 N 
ATOM      8  C   UNL     1       4.396   1.686  19.951  0.00  0.00    +0.000 C 
ATOM      9  O   UNL     1       5.256   1.637  20.822  0.00  0.00    +0.000 OA
ATOM     10  H   UNL     1       5.118   0.074  18.918  0.00  0.00    +0.000 HD
ATOM     11  H   UNL     1       3.704   0.804  18.195  0.00  0.00    +0.000 HD
ENDBRANCH   1   8
BRANCH   6  12
ATOM     12  N   UNL     1       3.958   3.717  17.749  0.00  0.00    +0.000 NA
ATOM     13  C   UNL     1       4.351   4.872  17.312  0.00  0.00    +0.000 C 
BRANCH  13  14
ATOM     14  C   UNL     1       5.086   5.059  16.045  0.00  0.00    +0.000 C 
ATOM     15  C   UNL     1       5.742   4.061  15.434  0.00  0.00    +0.000 C 
BRANCH  15  16
ATOM     16  C   UNL     1       6.387   4.289  14.183  0.00  0.00    +0.000 A 
ATOM     17  C   UNL     1       7.326   5.255  13.837  0.00  0.00    +0.000 A 
ATOM     18  C   UNL     1       7.672   5.070  12.478  0.00  0.00    +0.000 A 
ATOM     19  C   UNL     1       6.940   3.996  12.049  0.00  0.00    +0.000 A 
ATOM     20  O   UNL     1       6.168   3.518  13.054  0.00  0.00    +0.000 OA
ENDBRANCH  15  16
BRANCH  15  21
ATOM     21  O   UNL     1       5.832   2.777  15.926  0.00  0.00    +0.000 OA
ATOM     22  H   UNL     1       6.402   2.808  16.725  0.00  0.00    +0.000 HD
ENDBRANCH  15  21
ENDBRANCH  13  14
ENDBRANCH   6  12
TORSDOF 5
ENDMDL
MODEL 3
REMARK VINA RESULT:      -6.9      1.797      7.119
REMARK  Name = 
REMARK  5 active torsions:
REMARK  status: ('A' for Active; 'I' for Inactive)
REMARK    1  A    between atoms: C_2  and  C_4
REMARK    2  A    between atoms: C_9  and  N_10
REMARK    3  A    between atoms: C_11  and  C_12
REMARK    4  A    between atoms: C_13  and  O_14
REMARK    5  A    between atoms: C_13  and  C_15
REMARK                            x       y       z     vdW  Elec       q    Type
REMARK                         _______ _______ _______ _____ _____    ______ ____
ROOT
ATOM      1  C   UNL     1       7.045   4.808  14.974  0.00  0.00    +0.000 A 
ATOM      2  C   UNL     1       7.843   5.264  13.904  0.00  0.00    +0.000 A 
ATOM      3  C   UNL     1       7.582   4.868  12.595  0.00  0.00    +0.000 A 
ATOM      4  C   UNL     1       6.497   4.046  12.330  0.00  0.00    +0.000 A 
ATOM      5  C   UNL     1       5.692   3.602  13.381  0.00  0.00    +0.000 A 
ATOM      6  C   UNL     1       5.971   3.927  14.725  0.00  0.00    +0.000 A 
ENDROOT
BRANCH   1   8
ATOM      7  N   UNL     1       7.669   4.462  17.316  0.00  0.00    +0.000 N 
ATOM      8  C   UNL     1       7.411   5.350  16.313  0.00  0.00    +0.000 C 
ATOM      9  O   UNL     1       7.524   6.554  16.506  0.00  0.00    +0.000 OA
ATOM     10  H   UNL     1       7.916   4.828  18.226  0.00  0.00    +0.000 HD
ATOM     11  H   UNL     1       7.571   3.465  17.187  0.00  0.00    +0.000 HD
ENDBRANCH   1   8
BRANCH   6  12
ATOM     12  N   UNL     1       5.124   3.446  15.758  0.00  0.00    +0.000 NA
ATOM     13  C   UNL     1       4.260   4.264  16.273  0.00  0.00    +0.000 C 
BRANCH  13  14
ATOM     14  C   UNL     1       3.413   3.932  17.436  0.00  0.00    +0.000 C 
ATOM     15  C   UNL     1       3.917   3.494  18.598  0.00  0.00    +0.000 C 
BRANCH  15  16
ATOM     16  C   UNL     1       3.054   3.243  19.705  0.00  0.00    +0.000 A 
ATOM     17  C   UNL     1       1.698   3.525  19.849  0.00  0.00    +0.000 A 
ATOM     18  C   UNL     1       1.286   3.080  21.126  0.00  0.00    +0.000 A 
ATOM     19  C   UNL     1       2.400   2.537  21.709  0.00  0.00    +0.000 A 
ATOM     20  O   UNL     1       3.462   2.626  20.874  0.00  0.00    +0.000 OA
ENDBRANCH  15  16
BRANCH  15  21
ATOM     21  O   UNL     1       5.259   3.275  18.828  0.00  0.00    +0.000 OA
ATOM     22  H   UNL     1       5.529   2.510  18.276  0.00  0.00    +0.000 HD
ENDBRANCH  15  21
ENDBRANCH  13  14
ENDBRANCH   6  12
TORSDOF 5
ENDMDL
MODEL 4
REMARK VINA RESULT:      -6.9      1.194      1.208
REMARK  Name = 
REMARK  5 active torsions:
REMARK  status: ('A' for Active; 'I' for Inactive)
REMARK    1  A    between atoms: C_2  and  C_4
REMARK    2  A    between atoms: C_9  and  N_10
REMARK    3  A    between atoms: C_11  and  C_12
REMARK    4  A    between atoms: C_13  and  O_14
REMARK    5  A    between atoms: C_13  and  C_15
REMARK                            x       y       z     vdW  Elec       q    Type
REMARK                         _______ _______ _______ _____ _____    ______ ____
ROOT
ATOM      1  C   UNL     1       2.820   3.001  19.128  0.00  0.00    +0.000 A 
ATOM      2  C   UNL     1       1.850   2.831  20.138  0.00  0.00    +0.000 A 
ATOM      3  C   UNL     1       1.615   3.827  21.083  0.00  0.00    +0.000 A 
ATOM      4  C   UNL     1       2.314   5.023  21.006  0.00  0.00    +0.000 A 
ATOM      5  C   UNL     1       3.264   5.207  20.000  0.00  0.00    +0.000 A 
ATOM      6  C   UNL     1       3.577   4.191  19.072  0.00  0.00    +0.000 A 
ENDROOT
BRANCH   1   8
ATOM      7  N   UNL     1       3.910   0.946  18.364  0.00  0.00    +0.000 N 
ATOM      8  C   UNL     1       2.931   1.873  18.160  0.00  0.00    +0.000 C 
ATOM      9  O   UNL     1       2.142   1.749  17.231  0.00  0.00    +0.000 OA
ATOM     10  H   UNL     1       3.988   0.180  17.707  0.00  0.00    +0.000 HD
ATOM     11  H   UNL     1       4.581   1.031  19.114  0.00  0.00    +0.000 HD
ENDBRANCH   1   8
BRANCH   6  12
ATOM     12  N   UNL     1       4.556   4.426  18.071  0.00  0.00    +0.000 NA
ATOM     13  C   UNL     1       4.203   5.085  17.012  0.00  0.00    +0.000 C 
BRANCH  13  14
ATOM     14  C   UNL     1       5.083   5.286  15.843  0.00  0.00    +0.000 C 
ATOM     15  C   UNL     1       5.806   4.294  15.303  0.00  0.00    +0.000 C 
BRANCH  15  16
ATOM     16  C   UNL     1       6.594   4.535  14.139  0.00  0.00    +0.000 A 
ATOM     17  C   UNL     1       6.504   3.957  12.876  0.00  0.00    +0.000 A 
ATOM     18  C   UNL     1       7.503   4.529  12.055  0.00  0.00    +0.000 A 
ATOM     19  C   UNL     1       8.159   5.438  12.842  0.00  0.00    +0.000 A 
ATOM     20  O   UNL     1       7.628   5.453  14.088  0.00  0.00    +0.000 OA
ENDBRANCH  15  16
BRANCH  15  21
ATOM     21  O   UNL     1       5.837   3.004  15.786  0.00  0.00    +0.000 OA
ATOM     22  H   UNL     1       5.565   3.038  16.729  0.00  0.00    +0.000 HD
ENDBRANCH  15  21
ENDBRANCH  13  14
ENDBRANCH   6  12
TORSDOF 5
ENDMDL
MODEL 5
REMARK VINA RESULT:      -6.9      1.933      1.971
REMARK  Name = 
REMARK  5 active torsions:
REMARK  status: ('A' for Active; 'I' for Inactive)
REMARK    1  A    between atoms: C_2  and  C_4
REMARK    2  A    between atoms: C_9  and  N_10
REMARK    3  A    between atoms: C_11  and  C_12
REMARK    4  A    between atoms: C_13  and  O_14
REMARK    5  A    between atoms: C_13  and  C_15
REMARK                            x       y       z     vdW  Elec       q    Type
REMARK                         _______ _______ _______ _____ _____    ______ ____
ROOT
ATOM      1  C   UNL     1       1.773   3.807  19.185  0.00  0.00    +0.000 A 
ATOM      2  C   UNL     1       1.202   4.166  20.423  0.00  0.00    +0.000 A 
ATOM      3  C   UNL     1       1.424   5.423  20.979  0.00  0.00    +0.000 A 
ATOM      4  C   UNL     1       2.184   6.354  20.286  0.00  0.00    +0.000 A 
ATOM      5  C   UNL     1       2.740   6.014  19.052  0.00  0.00    +0.000 A 
ATOM      6  C   UNL     1       2.592   4.726  18.495  0.00  0.00    +0.000 A 
ENDROOT
BRANCH   1   8
ATOM      7  N   UNL     1       2.413   1.536  18.532  0.00  0.00    +0.000 N 
ATOM      8  C   UNL     1       1.412   2.448  18.690  0.00  0.00    +0.000 C 
ATOM      9  O   UNL     1       0.248   2.135  18.473  0.00  0.00    +0.000 OA
ATOM     10  H   UNL     1       2.170   0.613  18.195  0.00  0.00    +0.000 HD
ATOM     11  H   UNL     1       3.382   1.771  18.691  0.00  0.00    +0.000 HD
ENDBRANCH   1   8
BRANCH   6  12
ATOM     12  N   UNL     1       3.183   4.428  17.238  0.00  0.00    +0.000 NA
ATOM     13  C   UNL     1       4.452   4.168  17.204  0.00  0.00    +0.000 C 
BRANCH  13  14
ATOM     14  C   UNL     1       5.212   3.971  15.953  0.00  0.00    +0.000 C 
ATOM     15  C   UNL     1       5.575   4.989  15.159  0.00  0.00    +0.000 C 
BRANCH  15  16
ATOM     16  C   UNL     1       6.357   4.743  13.992  0.00  0.00    +0.000 A 
ATOM     17  C   UNL     1       6.206   3.759  13.019  0.00  0.00    +0.000 A 
ATOM     18  C   UNL     1       7.226   3.929  12.054  0.00  0.00    +0.000 A 
ATOM     19  C   UNL     1       7.955   5.012  12.469  0.00  0.00    +0.000 A 
ATOM     20  O   UNL     1       7.449   5.508  13.623  0.00  0.00    +0.000 OA
ENDBRANCH  15  16
BRANCH  15  21
ATOM     21  O   UNL     1       5.258   6.309  15.395  0.00  0.00    +0.000 OA
ATOM     22  H   UNL     1       4.382   6.478  14.986  0.00  0.00    +0.000 HD
ENDBRANCH  15  21
ENDBRANCH  13  14
ENDBRANCH   6  12
TORSDOF 5
ENDMDL
MODEL 6
REMARK VINA RESULT:      -6.8      1.762      1.945
REMARK  Name = 
REMARK  5 active torsions:
REMARK  status: ('A' for Active; 'I' for Inactive)
REMARK    1  A    between atoms: C_2  and  C_4
REMARK    2  A    between atoms: C_9  and  N_10
REMARK    3  A    between atoms: C_11  and  C_12
REMARK    4  A    between atoms: C_13  and  O_14
REMARK    5  A    between atoms: C_13  and  C_15
REMARK                            x       y       z     vdW  Elec       q    Type
REMARK                         _______ _______ _______ _____ _____    ______ ____
ROOT
ATOM      1  C   UNL     1       1.826   3.843  19.110  0.00  0.00    +0.000 A 
ATOM      2  C   UNL     1       1.123   4.137  20.296  0.00  0.00    +0.000 A 
ATOM      3  C   UNL     1       1.319   5.341  20.968  0.00  0.00    +0.000 A 
ATOM      4  C   UNL     1       2.189   6.285  20.442  0.00  0.00    +0.000 A 
ATOM      5  C   UNL     1       2.877   6.010  19.259  0.00  0.00    +0.000 A 
ATOM      6  C   UNL     1       2.754   4.772  18.593  0.00  0.00    +0.000 A 
ENDROOT
BRANCH   1   8
ATOM      7  N   UNL     1       2.502   1.751  18.032  0.00  0.00    +0.000 N 
ATOM      8  C   UNL     1       1.481   2.540  18.474  0.00  0.00    +0.000 C 
ATOM      9  O   UNL     1       0.321   2.158  18.389  0.00  0.00    +0.000 OA
ATOM     10  H   UNL     1       2.270   0.867  17.599  0.00  0.00    +0.000 HD
ATOM     11  H   UNL     1       3.467   2.047  18.079  0.00  0.00    +0.000 HD
ENDBRANCH   1   8
BRANCH   6  12
ATOM     12  N   UNL     1       3.481   4.540  17.396  0.00  0.00    +0.000 NA
ATOM     13  C   UNL     1       4.332   5.439  17.011  0.00  0.00    +0.000 C 
BRANCH  13  14
ATOM     14  C   UNL     1       5.055   5.383  15.725  0.00  0.00    +0.000 C 
ATOM     15  C   UNL     1       5.726   4.296  15.318  0.00  0.00    +0.000 C 
BRANCH  15  16
ATOM     16  C   UNL     1       6.357   4.281  14.040  0.00  0.00    +0.000 A 
ATOM     17  C   UNL     1       7.391   5.079  13.556  0.00  0.00    +0.000 A 
ATOM     18  C   UNL     1       7.676   4.679  12.230  0.00  0.00    +0.000 A 
ATOM     19  C   UNL     1       6.815   3.649  11.957  0.00  0.00    +0.000 A 
ATOM     20  O   UNL     1       6.022   3.400  13.026  0.00  0.00    +0.000 OA
ENDBRANCH  15  16
BRANCH  15  21
ATOM     21  O   UNL     1       5.845   3.137  16.054  0.00  0.00    +0.000 OA
ATOM     22  H   UNL     1       6.667   2.687  15.761  0.00  0.00    +0.000 HD
ENDBRANCH  15  21
ENDBRANCH  13  14
ENDBRANCH   6  12
TORSDOF 5
ENDMDL
MODEL 7
REMARK VINA RESULT:      -6.5      0.979      1.086
REMARK  Name = 
REMARK  5 active torsions:
REMARK  status: ('A' for Active; 'I' for Inactive)
REMARK    1  A    between atoms: C_2  and  C_4
REMARK    2  A    between atoms: C_9  and  N_10
REMARK    3  A    between atoms: C_11  and  C_12
REMARK    4  A    between atoms: C_13  and  O_14
REMARK    5  A    between atoms: C_13  and  C_15
REMARK                            x       y       z     vdW  Elec       q    Type
REMARK                         _______ _______ _______ _____ _____    ______ ____
ROOT
ATOM      1  C   UNL     1       2.675   4.021  19.476  0.00  0.00    +0.000 A 
ATOM      2  C   UNL     1       2.020   4.264  20.701  0.00  0.00    +0.000 A 
ATOM      3  C   UNL     1       1.585   5.542  21.042  0.00  0.00    +0.000 A 
ATOM      4  C   UNL     1       1.759   6.587  20.145  0.00  0.00    +0.000 A 
ATOM      5  C   UNL     1       2.390   6.353  18.923  0.00  0.00    +0.000 A 
ATOM      6  C   UNL     1       2.906   5.085  18.578  0.00  0.00    +0.000 A 
ENDROOT
BRANCH   1   8
ATOM      7  N   UNL     1       2.357   1.919  18.261  0.00  0.00    +0.000 N 
ATOM      8  C   UNL     1       3.042   2.599  19.225  0.00  0.00    +0.000 C 
ATOM      9  O   UNL     1       3.963   2.060  19.828  0.00  0.00    +0.000 OA
ATOM     10  H   UNL     1       2.604   0.953  18.090  0.00  0.00    +0.000 HD
ATOM     11  H   UNL     1       1.586   2.335  17.758  0.00  0.00    +0.000 HD
ENDBRANCH   1   8
BRANCH   6  12
ATOM     12  N   UNL     1       3.545   4.900  17.324  0.00  0.00    +0.000 NA
ATOM     13  C   UNL     1       4.673   5.505  17.116  0.00  0.00    +0.000 C 
BRANCH  13  14
ATOM     14  C   UNL     1       5.374   5.502  15.816  0.00  0.00    +0.000 C 
ATOM     15  C   UNL     1       5.941   4.401  15.302  0.00  0.00    +0.000 C 
BRANCH  15  16
ATOM     16  C   UNL     1       6.555   4.447  14.016  0.00  0.00    +0.000 A 
ATOM     17  C   UNL     1       6.273   3.701  12.875  0.00  0.00    +0.000 A 
ATOM     18  C   UNL     1       7.151   4.114  11.846  0.00  0.00    +0.000 A 
ATOM     19  C   UNL     1       7.928   5.101  12.393  0.00  0.00    +0.000 A 
ATOM     20  O   UNL     1       7.585   5.311  13.686  0.00  0.00    +0.000 OA
ENDBRANCH  15  16
BRANCH  15  21
ATOM     21  O   UNL     1       5.964   3.175  15.929  0.00  0.00    +0.000 OA
ATOM     22  H   UNL     1       6.695   2.655  15.530  0.00  0.00    +0.000 HD
ENDBRANCH  15  21
ENDBRANCH  13  14
ENDBRANCH   6  12
TORSDOF 5
ENDMDL
MODEL 8
REMARK VINA RESULT:      -6.5      1.950      2.712
REMARK  Name = 
REMARK  5 active torsions:
REMARK  status: ('A' for Active; 'I' for Inactive)
REMARK    1  A    between atoms: C_2  and  C_4
REMARK    2  A    between atoms: C_9  and  N_10
REMARK    3  A    between atoms: C_11  and  C_12
REMARK    4  A    between atoms: C_13  and  O_14
REMARK    5  A    between atoms: C_13  and  C_15
REMARK                            x       y       z     vdW  Elec       q    Type
REMARK                         _______ _______ _______ _____ _____    ______ ____
ROOT
ATOM      1  C   UNL     1       2.374   5.095  19.425  0.00  0.00    +0.000 A 
ATOM      2  C   UNL     1       1.780   4.944  20.695  0.00  0.00    +0.000 A 
ATOM      3  C   UNL     1       1.491   3.682  21.208  0.00  0.00    +0.000 A 
ATOM      4  C   UNL     1       1.830   2.552  20.478  0.00  0.00    +0.000 A 
ATOM      5  C   UNL     1       2.434   2.690  19.227  0.00  0.00    +0.000 A 
ATOM      6  C   UNL     1       2.675   3.955  18.649  0.00  0.00    +0.000 A 
ENDROOT
BRANCH   1   8
ATOM      7  N   UNL     1       3.415   6.705  17.902  0.00  0.00    +0.000 N 
ATOM      8  C   UNL     1       2.669   6.500  19.026  0.00  0.00    +0.000 C 
ATOM      9  O   UNL     1       2.221   7.451  19.655  0.00  0.00    +0.000 OA
ATOM     10  H   UNL     1       3.617   7.658  17.630  0.00  0.00    +0.000 HD
ATOM     11  H   UNL     1       3.806   5.939  17.373  0.00  0.00    +0.000 HD
ENDBRANCH   1   8
BRANCH   6  12
ATOM     12  N   UNL     1       3.287   4.042  17.371  0.00  0.00    +0.000 NA
ATOM     13  C   UNL     1       4.397   3.400  17.178  0.00  0.00    +0.000 C 
BRANCH  13  14
ATOM     14  C   UNL     1       5.200   3.509  15.944  0.00  0.00    +0.000 C 
ATOM     15  C   UNL     1       5.617   4.686  15.453  0.00  0.00    +0.000 C 
BRANCH  15  16
ATOM     16  C   UNL     1       6.438   4.725  14.288  0.00  0.00    +0.000 A 
ATOM     17  C   UNL     1       6.313   4.019  13.096  0.00  0.00    +0.000 A 
ATOM     18  C   UNL     1       7.369   4.406  12.238  0.00  0.00    +0.000 A 
ATOM     19  C   UNL     1       8.092   5.338  12.934  0.00  0.00    +0.000 A 
ATOM     20  O   UNL     1       7.549   5.539  14.158  0.00  0.00    +0.000 OA
ENDBRANCH  15  16
BRANCH  15  21
ATOM     21  O   UNL     1       5.320   5.909  16.015  0.00  0.00    +0.000 OA
ATOM     22  H   UNL     1       4.567   6.288  15.511  0.00  0.00    +0.000 HD
ENDBRANCH  15  21
ENDBRANCH  13  14
ENDBRANCH   6  12
TORSDOF 5
ENDMDL
MODEL 9
REMARK VINA RESULT:      -6.4      1.112      1.135
REMARK  Name = 
REMARK  5 active torsions:
REMARK  status: ('A' for Active; 'I' for Inactive)
REMARK    1  A    between atoms: C_2  and  C_4
REMARK    2  A    between atoms: C_9  and  N_10
REMARK    3  A    between atoms: C_11  and  C_12
REMARK    4  A    between atoms: C_13  and  O_14
REMARK    5  A    between atoms: C_13  and  C_15
REMARK                            x       y       z     vdW  Elec       q    Type
REMARK                         _______ _______ _______ _____ _____    ______ ____
ROOT
ATOM      1  C   UNL     1       3.451   3.033  19.858  0.00  0.00    +0.000 A 
ATOM      2  C   UNL     1       2.572   2.930  20.956  0.00  0.00    +0.000 A 
ATOM      3  C   UNL     1       1.818   4.023  21.377  0.00  0.00    +0.000 A 
ATOM      4  C   UNL     1       1.899   5.220  20.681  0.00  0.00    +0.000 A 
ATOM      5  C   UNL     1       2.754   5.327  19.583  0.00  0.00    +0.000 A 
ATOM      6  C   UNL     1       3.584   4.261  19.176  0.00  0.00    +0.000 A 
ENDROOT
BRANCH   1   8
ATOM      7  N   UNL     1       5.276   1.436  20.197  0.00  0.00    +0.000 N 
ATOM      8  C   UNL     1       4.158   1.773  19.492  0.00  0.00    +0.000 C 
ATOM      9  O   UNL     1       3.730   1.032  18.616  0.00  0.00    +0.000 OA
ATOM     10  H   UNL     1       5.757   0.581  19.949  0.00  0.00    +0.000 HD
ATOM     11  H   UNL     1       5.657   2.035  20.915  0.00  0.00    +0.000 HD
ENDBRANCH   1   8
BRANCH   6  12
ATOM     12  N   UNL     1       4.441   4.423  18.055  0.00  0.00    +0.000 NA
ATOM     13  C   UNL     1       4.064   3.924  16.919  0.00  0.00    +0.000 C 
BRANCH  13  14
ATOM     14  C   UNL     1       4.914   3.908  15.711  0.00  0.00    +0.000 C 
ATOM     15  C   UNL     1       5.668   4.954  15.342  0.00  0.00    +0.000 C 
BRANCH  15  16
ATOM     16  C   UNL     1       6.512   4.859  14.197  0.00  0.00    +0.000 A 
ATOM     17  C   UNL     1       6.367   4.077  13.055  0.00  0.00    +0.000 A 
ATOM     18  C   UNL     1       7.460   4.337  12.198  0.00  0.00    +0.000 A 
ATOM     19  C   UNL     1       8.226   5.272  12.842  0.00  0.00    +0.000 A 
ATOM     20  O   UNL     1       7.674   5.594  14.036  0.00  0.00    +0.000 OA
ENDBRANCH  15  16
BRANCH  15  21
ATOM     21  O   UNL     1       5.711   6.155  16.016  0.00  0.00    +0.000 OA
ATOM     22  H   UNL     1       4.785   6.405  16.230  0.00  0.00    +0.000 HD
ENDBRANCH  15  21
ENDBRANCH  13  14
ENDBRANCH   6  12
TORSDOF 5
ENDMDL
