MODEL 1
REMARK VINA RESULT:      -5.8      0.000      0.000
REMARK  Name = 
REMARK  16 active torsions:
REMARK  status: ('A' for Active; 'I' for Inactive)
REMARK    1  A    between atoms: C_1  and  C_2
REMARK    2  A    between atoms: C_2  and  C_3
REMARK    3  A    between atoms: C_4  and  C_5
REMARK    4  A    between atoms: C_5  and  C_6
REMARK    5  A    between atoms: C_6  and  C_7
REMARK    6  A    between atoms: C_7  and  C_8
REMARK    7  A    between atoms: C_8  and  C_9
REMARK    8  A    between atoms: C_9  and  C_10
REMARK    9  A    between atoms: C_10  and  C_11
REMARK   10  A    between atoms: C_11  and  C_12
REMARK   11  A    between atoms: C_12  and  C_13
REMARK   12  A    between atoms: C_13  and  C_14
REMARK   13  A    between atoms: C_14  and  C_15
REMARK   14  A    between atoms: C_15  and  C_16
REMARK   15  A    between atoms: C_16  and  C_17
REMARK   16  A    between atoms: C_17  and  C_18
REMARK                            x       y       z     vdW  Elec       q    Type
REMARK                         _______ _______ _______ _____ _____    ______ ____
ROOT
ATOM      1  C   UNL     1       7.337   6.169  18.358  0.00  0.00    +0.000 C 
ENDROOT
BRANCH   1   2
ATOM      2  C   UNL     1       6.734   4.791  18.552  0.00  0.00    +0.000 C 
BRANCH   2   3
ATOM      3  C   UNL     1       5.492   4.901  19.418  0.00  0.00    +0.000 C 
BRANCH   3   4
ATOM      4  C   UNL     1       4.674   3.636  19.276  0.00  0.00    +0.000 C 
BRANCH   4   5
ATOM      5  C   UNL     1       4.054   3.550  17.888  0.00  0.00    +0.000 C 
BRANCH   5   6
ATOM      6  C   UNL     1       3.243   4.804  17.570  0.00  0.00    +0.000 C 
BRANCH   6   7
ATOM      7  C   UNL     1       1.753   4.631  17.829  0.00  0.00    +0.000 C 
BRANCH   7   9
ATOM      8  C   UNL     1       1.006   2.695  19.221  0.00  0.00    +0.000 C 
ATOM      9  C   UNL     1       1.349   3.196  18.033  0.00  0.00    +0.000 C 
BRANCH   8  11
ATOM     10  C   UNL     1       1.820   2.791  21.579  0.00  0.00    +0.000 C 
ATOM     11  C   UNL     1       1.017   3.487  20.497  0.00  0.00    +0.000 C 
ENDBRANCH   8  11
ENDBRANCH   7   9
ENDBRANCH   6   7
ENDBRANCH   5   6
ENDBRANCH   4   5
ENDBRANCH   3   4
ENDBRANCH   2   3
ENDBRANCH   1   2
BRANCH   1  12
ATOM     12  C   UNL     1       7.302   6.546  16.890  0.00  0.00    +0.000 C 
BRANCH  12  13
ATOM     13  C   UNL     1       6.899   5.338  16.062  0.00  0.00    +0.000 C 
BRANCH  13  14
ATOM     14  C   UNL     1       5.716   5.684  15.176  0.00  0.00    +0.000 C 
BRANCH  14  15
ATOM     15  C   UNL     1       5.225   4.446  14.437  0.00  0.00    +0.000 C 
BRANCH  15  16
ATOM     16  C   UNL     1       6.398   3.743  13.770  0.00  0.00    +0.000 C 
BRANCH  16  17
ATOM     17  C   UNL     1       6.317   3.825  12.252  0.00  0.00    +0.000 C 
BRANCH  17  18
ATOM     18  C   UNL     1       5.453   2.717  11.696  0.00  0.00    +0.000 C 
ATOM     19  N   UNL     1       4.187   3.096  11.354  0.00  0.00    +0.000 N 
ATOM     20  O   UNL     1       5.814   1.551  11.544  0.00  0.00    +0.000 OA
ATOM     21  H   UNL     1       3.846   4.036  11.455  0.00  0.00    +0.000 HD
ATOM     22  H   UNL     1       3.582   2.379  10.973  0.00  0.00    +0.000 HD
ENDBRANCH  17  18
ENDBRANCH  16  17
ENDBRANCH  15  16
ENDBRANCH  14  15
ENDBRANCH  13  14
ENDBRANCH  12  13
ENDBRANCH   1  12
TORSDOF 15
ENDMDL
MODEL 2
REMARK VINA RESULT:      -5.5      2.781      6.357
REMARK  Name = 
REMARK  16 active torsions:
REMARK  status: ('A' for Active; 'I' for Inactive)
REMARK    1  A    between atoms: C_1  and  C_2
REMARK    2  A    between atoms: C_2  and  C_3
REMARK    3  A    between atoms: C_4  and  C_5
REMARK    4  A    between atoms: C_5  and  C_6
REMARK    5  A    between atoms: C_6  and  C_7
REMARK    6  A    between atoms: C_7  and  C_8
REMARK    7  A    between atoms: C_8  and  C_9
REMARK    8  A    between atoms: C_9  and  C_10
REMARK    9  A    between atoms: C_10  and  C_11
REMARK   10  A    between atoms: C_11  and  C_12
REMARK   11  A    between atoms: C_12  and  C_13
REMARK   12  A    between atoms: C_13  and  C_14
REMARK   13  A    between atoms: C_14  and  C_15
REMARK   14  A    between atoms: C_15  and  C_16
REMARK   15  A    between atoms: C_16  and  C_17
REMARK   16  A    between atoms: C_17  and  C_18
REMARK                            x       y       z     vdW  Elec       q    Type
REMARK                         _______ _______ _______ _____ _____    ______ ____
ROOT
ATOM      1  C   UNL     1       1.834   5.975  20.309  0.00  0.00    +0.000 C 
ENDROOT
BRANCH   1   2
ATOM      2  C   UNL     1       2.973   6.238  19.342  0.00  0.00    +0.000 C 
BRANCH   2   3
ATOM      3  C   UNL     1       2.552   7.299  18.342  0.00  0.00    +0.000 C 
BRANCH   3   4
ATOM      4  C   UNL     1       3.675   7.524  17.354  0.00  0.00    +0.000 C 
BRANCH   4   5
ATOM      5  C   UNL     1       4.547   6.280  17.240  0.00  0.00    +0.000 C 
BRANCH   5   6
ATOM      6  C   UNL     1       6.029   6.644  17.277  0.00  0.00    +0.000 C 
BRANCH   6   7
ATOM      7  C   UNL     1       6.860   5.867  16.266  0.00  0.00    +0.000 C 
BRANCH   7   9
ATOM      8  C   UNL     1       6.118   3.652  15.378  0.00  0.00    +0.000 C 
ATOM      9  C   UNL     1       6.662   4.377  16.357  0.00  0.00    +0.000 C 
BRANCH   8  11
ATOM     10  C   UNL     1       6.472   3.823  12.913  0.00  0.00    +0.000 C 
ATOM     11  C   UNL     1       5.608   4.233  14.091  0.00  0.00    +0.000 C 
ENDBRANCH   8  11
ENDBRANCH   7   9
ENDBRANCH   6   7
ENDBRANCH   5   6
ENDBRANCH   4   5
ENDBRANCH   3   4
ENDBRANCH   2   3
ENDBRANCH   1   2
BRANCH   1  12
ATOM     12  C   UNL     1       2.087   4.687  21.068  0.00  0.00    +0.000 C 
BRANCH  12  13
ATOM     13  C   UNL     1       0.922   3.734  20.858  0.00  0.00    +0.000 C 
BRANCH  13  14
ATOM     14  C   UNL     1       1.414   2.436  20.245  0.00  0.00    +0.000 C 
BRANCH  14  15
ATOM     15  C   UNL     1       0.908   2.298  18.815  0.00  0.00    +0.000 C 
BRANCH  15  16
ATOM     16  C   UNL     1       1.560   3.352  17.933  0.00  0.00    +0.000 C 
BRANCH  16  17
ATOM     17  C   UNL     1       2.757   2.793  17.175  0.00  0.00    +0.000 C 
BRANCH  17  18
ATOM     18  C   UNL     1       3.828   2.319  18.130  0.00  0.00    +0.000 C 
ATOM     19  N   UNL     1       3.986   0.965  18.184  0.00  0.00    +0.000 N 
ATOM     20  O   UNL     1       4.527   3.054  18.825  0.00  0.00    +0.000 OA
ATOM     21  H   UNL     1       3.442   0.322  17.634  0.00  0.00    +0.000 HD
ATOM     22  H   UNL     1       4.699   0.612  18.811  0.00  0.00    +0.000 HD
ENDBRANCH  17  18
ENDBRANCH  16  17
ENDBRANCH  15  16
ENDBRANCH  14  15
ENDBRANCH  13  14
ENDBRANCH  12  13
ENDBRANCH   1  12
TORSDOF 15
ENDMDL
MODEL 3
REMARK VINA RESULT:      -5.5      1.343      1.695
REMARK  Name = 
REMARK  16 active torsions:
REMARK  status: ('A' for Active; 'I' for Inactive)
REMARK    1  A    between atoms: C_1  and  C_2
REMARK    2  A    between atoms: C_2  and  C_3
REMARK    3  A    between atoms: C_4  and  C_5
REMARK    4  A    between atoms: C_5  and  C_6
REMARK    5  A    between atoms: C_6  and  C_7
REMARK    6  A    between atoms: C_7  and  C_8
REMARK    7  A    between atoms: C_8  and  C_9
REMARK    8  A    between atoms: C_9  and  C_10
REMARK    9  A    between atoms: C_10  and  C_11
REMARK   10  A    between atoms: C_11  and  C_12
REMARK   11  A    between atoms: C_12  and  C_13
REMARK   12  A    between atoms: C_13  and  C_14
REMARK   13  A    between atoms: C_14  and  C_15
REMARK   14  A    between atoms: C_15  and  C_16
REMARK   15  A    between atoms: C_16  and  C_17
REMARK   16  A    between atoms: C_17  and  C_18
REMARK                            x       y       z     vdW  Elec       q    Type
REMARK                         _______ _______ _______ _____ _____    ______ ____
ROOT
ATOM      1  C   UNL     1       7.331   5.841  17.502  0.00  0.00    +0.000 C 
ENDROOT
BRANCH   1   2
ATOM      2  C   UNL     1       5.906   6.087  17.958  0.00  0.00    +0.000 C 
BRANCH   2   3
ATOM      3  C   UNL     1       5.558   5.118  19.073  0.00  0.00    +0.000 C 
BRANCH   3   4
ATOM      4  C   UNL     1       4.790   3.949  18.495  0.00  0.00    +0.000 C 
BRANCH   4   5
ATOM      5  C   UNL     1       3.672   4.440  17.584  0.00  0.00    +0.000 C 
BRANCH   5   6
ATOM      6  C   UNL     1       2.703   3.310  17.246  0.00  0.00    +0.000 C 
BRANCH   6   7
ATOM      7  C   UNL     1       1.686   3.047  18.346  0.00  0.00    +0.000 C 
BRANCH   7   9
ATOM      8  C   UNL     1       1.549   4.550  20.338  0.00  0.00    +0.000 C 
ATOM      9  C   UNL     1       1.251   4.298  19.062  0.00  0.00    +0.000 C 
BRANCH   8  11
ATOM     10  C   UNL     1       1.419   2.537  21.807  0.00  0.00    +0.000 C 
ATOM     11  C   UNL     1       2.317   3.609  21.219  0.00  0.00    +0.000 C 
ENDBRANCH   8  11
ENDBRANCH   7   9
ENDBRANCH   6   7
ENDBRANCH   5   6
ENDBRANCH   4   5
ENDBRANCH   3   4
ENDBRANCH   2   3
ENDBRANCH   1   2
BRANCH   1  12
ATOM     12  C   UNL     1       7.405   4.551  16.709  0.00  0.00    +0.000 C 
BRANCH  12  13
ATOM     13  C   UNL     1       7.041   4.822  15.258  0.00  0.00    +0.000 C 
BRANCH  13  14
ATOM     14  C   UNL     1       6.215   3.675  14.705  0.00  0.00    +0.000 C 
BRANCH  14  15
ATOM     15  C   UNL     1       5.499   4.103  13.430  0.00  0.00    +0.000 C 
BRANCH  15  16
ATOM     16  C   UNL     1       6.185   3.487  12.220  0.00  0.00    +0.000 C 
BRANCH  16  17
ATOM     17  C   UNL     1       5.390   2.319  11.653  0.00  0.00    +0.000 C 
BRANCH  17  18
ATOM     18  C   UNL     1       6.306   1.198  11.222  0.00  0.00    +0.000 C 
ATOM     19  N   UNL     1       7.623   1.544  11.123  0.00  0.00    +0.000 N 
ATOM     20  O   UNL     1       5.945   0.051  10.968  0.00  0.00    +0.000 OA
ATOM     21  H   UNL     1       7.969   2.466  11.322  0.00  0.00    +0.000 HD
ATOM     22  H   UNL     1       8.267   0.815  10.841  0.00  0.00    +0.000 HD
ENDBRANCH  17  18
ENDBRANCH  16  17
ENDBRANCH  15  16
ENDBRANCH  14  15
ENDBRANCH  13  14
ENDBRANCH  12  13
ENDBRANCH   1  12
TORSDOF 15
ENDMDL
MODEL 4
REMARK VINA RESULT:      -5.4      2.752      6.399
REMARK  Name = 
REMARK  16 active torsions:
REMARK  status: ('A' for Active; 'I' for Inactive)
REMARK    1  A    between atoms: C_1  and  C_2
REMARK    2  A    between atoms: C_2  and  C_3
REMARK    3  A    between atoms: C_4  and  C_5
REMARK    4  A    between atoms: C_5  and  C_6
REMARK    5  A    between atoms: C_6  and  C_7
REMARK    6  A    between atoms: C_7  and  C_8
REMARK    7  A    between atoms: C_8  and  C_9
REMARK    8  A    between atoms: C_9  and  C_10
REMARK    9  A    between atoms: C_10  and  C_11
REMARK   10  A    between atoms: C_11  and  C_12
REMARK   11  A    between atoms: C_12  and  C_13
REMARK   12  A    between atoms: C_13  and  C_14
REMARK   13  A    between atoms: C_14  and  C_15
REMARK   14  A    between atoms: C_15  and  C_16
REMARK   15  A    between atoms: C_16  and  C_17
REMARK   16  A    between atoms: C_17  and  C_18
REMARK                            x       y       z     vdW  Elec       q    Type
REMARK                         _______ _______ _______ _____ _____    ______ ____
ROOT
ATOM      1  C   UNL     1       2.702   7.167  17.973  0.00  0.00    +0.000 C 
ENDROOT
BRANCH   1   2
ATOM      2  C   UNL     1       4.024   7.429  17.276  0.00  0.00    +0.000 C 
BRANCH   2   3
ATOM      3  C   UNL     1       4.980   6.285  17.559  0.00  0.00    +0.000 C 
BRANCH   3   4
ATOM      4  C   UNL     1       6.335   6.612  16.972  0.00  0.00    +0.000 C 
BRANCH   4   5
ATOM      5  C   UNL     1       6.834   5.467  16.101  0.00  0.00    +0.000 C 
BRANCH   5   6
ATOM      6  C   UNL     1       5.808   4.338  16.037  0.00  0.00    +0.000 C 
BRANCH   6   7
ATOM      7  C   UNL     1       5.365   4.016  14.617  0.00  0.00    +0.000 C 
BRANCH   7   9
ATOM      8  C   UNL     1       6.456   3.549  12.418  0.00  0.00    +0.000 C 
ATOM      9  C   UNL     1       6.470   4.158  13.605  0.00  0.00    +0.000 C 
BRANCH   8  11
ATOM     10  C   UNL     1       4.222   3.389  11.317  0.00  0.00    +0.000 C 
ATOM     11  C   UNL     1       5.363   2.626  11.964  0.00  0.00    +0.000 C 
ENDBRANCH   8  11
ENDBRANCH   7   9
ENDBRANCH   6   7
ENDBRANCH   5   6
ENDBRANCH   4   5
ENDBRANCH   3   4
ENDBRANCH   2   3
ENDBRANCH   1   2
BRANCH   1  12
ATOM     12  C   UNL     1       2.646   5.730  18.451  0.00  0.00    +0.000 C 
BRANCH  12  13
ATOM     13  C   UNL     1       2.181   5.691  19.897  0.00  0.00    +0.000 C 
BRANCH  13  14
ATOM     14  C   UNL     1       2.799   4.503  20.612  0.00  0.00    +0.000 C 
BRANCH  14  15
ATOM     15  C   UNL     1       3.878   3.865  19.747  0.00  0.00    +0.000 C 
BRANCH  15  16
ATOM     16  C   UNL     1       3.833   2.352  19.896  0.00  0.00    +0.000 C 
BRANCH  16  17
ATOM     17  C   UNL     1       3.615   1.658  18.558  0.00  0.00    +0.000 C 
BRANCH  17  18
ATOM     18  C   UNL     1       2.338   2.133  17.904  0.00  0.00    +0.000 C 
ATOM     19  N   UNL     1       1.195   1.775  18.558  0.00  0.00    +0.000 N 
ATOM     20  O   UNL     1       2.280   2.791  16.867  0.00  0.00    +0.000 OA
ATOM     21  H   UNL     1       1.189   1.241  19.410  0.00  0.00    +0.000 HD
ATOM     22  H   UNL     1       0.320   2.080  18.149  0.00  0.00    +0.000 HD
ENDBRANCH  17  18
ENDBRANCH  16  17
ENDBRANCH  15  16
ENDBRANCH  14  15
ENDBRANCH  13  14
ENDBRANCH  12  13
ENDBRANCH   1  12
TORSDOF 15
ENDMDL
MODEL 5
REMARK VINA RESULT:      -5.4      2.910      6.752
REMARK  Name = 
REMARK  16 active torsions:
REMARK  status: ('A' for Active; 'I' for Inactive)
REMARK    1  A    between atoms: C_1  and  C_2
REMARK    2  A    between atoms: C_2  and  C_3
REMARK    3  A    between atoms: C_4  and  C_5
REMARK    4  A    between atoms: C_5  and  C_6
REMARK    5  A    between atoms: C_6  and  C_7
REMARK    6  A    between atoms: C_7  and  C_8
REMARK    7  A    between atoms: C_8  and  C_9
REMARK    8  A    between atoms: C_9  and  C_10
REMARK    9  A    between atoms: C_10  and  C_11
REMARK   10  A    between atoms: C_11  and  C_12
REMARK   11  A    between atoms: C_12  and  C_13
REMARK   12  A    between atoms: C_13  and  C_14
REMARK   13  A    between atoms: C_14  and  C_15
REMARK   14  A    between atoms: C_15  and  C_16
REMARK   15  A    between atoms: C_16  and  C_17
REMARK   16  A    between atoms: C_17  and  C_18
REMARK                            x       y       z     vdW  Elec       q    Type
REMARK                         _______ _______ _______ _____ _____    ______ ____
ROOT
ATOM      1  C   UNL     1       4.287   6.413  16.880  0.00  0.00    +0.000 C 
ENDROOT
BRANCH   1   2
ATOM      2  C   UNL     1       5.657   5.963  17.351  0.00  0.00    +0.000 C 
BRANCH   2   3
ATOM      3  C   UNL     1       5.831   4.484  17.059  0.00  0.00    +0.000 C 
BRANCH   3   4
ATOM      4  C   UNL     1       7.120   4.277  16.294  0.00  0.00    +0.000 C 
BRANCH   4   5
ATOM      5  C   UNL     1       6.996   4.818  14.876  0.00  0.00    +0.000 C 
BRANCH   5   6
ATOM      6  C   UNL     1       6.044   3.963  14.044  0.00  0.00    +0.000 C 
BRANCH   6   7
ATOM      7  C   UNL     1       6.430   3.900  12.573  0.00  0.00    +0.000 C 
BRANCH   7   9
ATOM      8  C   UNL     1       4.789   2.520  11.289  0.00  0.00    +0.000 C 
ATOM      9  C   UNL     1       5.973   2.637  11.893  0.00  0.00    +0.000 C 
BRANCH   8  11
ATOM     10  C   UNL     1       3.215   3.808   9.843  0.00  0.00    +0.000 C 
ATOM     11  C   UNL     1       3.762   3.613  11.244  0.00  0.00    +0.000 C 
ENDBRANCH   8  11
ENDBRANCH   7   9
ENDBRANCH   6   7
ENDBRANCH   5   6
ENDBRANCH   4   5
ENDBRANCH   3   4
ENDBRANCH   2   3
ENDBRANCH   1   2
BRANCH   1  12
ATOM     12  C   UNL     1       3.675   7.355  17.897  0.00  0.00    +0.000 C 
BRANCH  12  13
ATOM     13  C   UNL     1       2.317   6.827  18.331  0.00  0.00    +0.000 C 
BRANCH  13  14
ATOM     14  C   UNL     1       2.490   5.591  19.194  0.00  0.00    +0.000 C 
BRANCH  14  15
ATOM     15  C   UNL     1       1.641   4.445  18.657  0.00  0.00    +0.000 C 
BRANCH  15  16
ATOM     16  C   UNL     1       1.353   3.450  19.771  0.00  0.00    +0.000 C 
BRANCH  16  17
ATOM     17  C   UNL     1       1.794   2.041  19.397  0.00  0.00    +0.000 C 
BRANCH  17  18
ATOM     18  C   UNL     1       3.245   2.022  18.976  0.00  0.00    +0.000 C 
ATOM     19  N   UNL     1       4.131   2.331  19.967  0.00  0.00    +0.000 N 
ATOM     20  O   UNL     1       3.647   1.757  17.844  0.00  0.00    +0.000 OA
ATOM     21  H   UNL     1       3.853   2.552  20.908  0.00  0.00    +0.000 HD
ATOM     22  H   UNL     1       5.113   2.324  19.721  0.00  0.00    +0.000 HD
ENDBRANCH  17  18
ENDBRANCH  16  17
ENDBRANCH  15  16
ENDBRANCH  14  15
ENDBRANCH  13  14
ENDBRANCH  12  13
ENDBRANCH   1  12
TORSDOF 15
ENDMDL
MODEL 6
REMARK VINA RESULT:      -5.4      3.256      5.010
REMARK  Name = 
REMARK  16 active torsions:
REMARK  status: ('A' for Active; 'I' for Inactive)
REMARK    1  A    between atoms: C_1  and  C_2
REMARK    2  A    between atoms: C_2  and  C_3
REMARK    3  A    between atoms: C_4  and  C_5
REMARK    4  A    between atoms: C_5  and  C_6
REMARK    5  A    between atoms: C_6  and  C_7
REMARK    6  A    between atoms: C_7  and  C_8
REMARK    7  A    between atoms: C_8  and  C_9
REMARK    8  A    between atoms: C_9  and  C_10
REMARK    9  A    between atoms: C_10  and  C_11
REMARK   10  A    between atoms: C_11  and  C_12
REMARK   11  A    between atoms: C_12  and  C_13
REMARK   12  A    between atoms: C_13  and  C_14
REMARK   13  A    between atoms: C_14  and  C_15
REMARK   14  A    between atoms: C_15  and  C_16
REMARK   15  A    between atoms: C_16  and  C_17
REMARK   16  A    between atoms: C_17  and  C_18
REMARK                            x       y       z     vdW  Elec       q    Type
REMARK                         _______ _______ _______ _____ _____    ______ ____
ROOT
ATOM      1  C   UNL     1       4.130   3.290  17.860  0.00  0.00    +0.000 C 
ENDROOT
BRANCH   1   2
ATOM      2  C   UNL     1       3.027   2.270  17.653  0.00  0.00    +0.000 C 
BRANCH   2   3
ATOM      3  C   UNL     1       2.526   1.785  19.001  0.00  0.00    +0.000 C 
BRANCH   3   4
ATOM      4  C   UNL     1       2.770   2.861  20.037  0.00  0.00    +0.000 C 
BRANCH   4   5
ATOM      5  C   UNL     1       1.454   3.327  20.647  0.00  0.00    +0.000 C 
BRANCH   5   6
ATOM      6  C   UNL     1       1.423   4.846  20.791  0.00  0.00    +0.000 C 
BRANCH   6   7
ATOM      7  C   UNL     1       1.655   5.575  19.475  0.00  0.00    +0.000 C 
BRANCH   7   9
ATOM      8  C   UNL     1       2.872   7.633  18.749  0.00  0.00    +0.000 C 
ATOM      9  C   UNL     1       2.794   6.557  19.534  0.00  0.00    +0.000 C 
BRANCH   8  11
ATOM     10  C   UNL     1       1.237   9.334  17.936  0.00  0.00    +0.000 C 
ATOM     11  C   UNL     1       1.860   7.972  17.693  0.00  0.00    +0.000 C 
ENDBRANCH   8  11
ENDBRANCH   7   9
ENDBRANCH   6   7
ENDBRANCH   5   6
ENDBRANCH   4   5
ENDBRANCH   3   4
ENDBRANCH   2   3
ENDBRANCH   1   2
BRANCH   1  12
ATOM     12  C   UNL     1       4.033   4.377  16.808  0.00  0.00    +0.000 C 
BRANCH  12  13
ATOM     13  C   UNL     1       5.072   4.134  15.726  0.00  0.00    +0.000 C 
BRANCH  13  14
ATOM     14  C   UNL     1       5.840   5.412  15.444  0.00  0.00    +0.000 C 
BRANCH  14  15
ATOM     15  C   UNL     1       5.171   6.597  16.129  0.00  0.00    +0.000 C 
BRANCH  15  16
ATOM     16  C   UNL     1       5.996   7.032  17.330  0.00  0.00    +0.000 C 
BRANCH  16  17
ATOM     17  C   UNL     1       7.406   6.457  17.285  0.00  0.00    +0.000 C 
BRANCH  17  18
ATOM     18  C   UNL     1       7.569   5.344  18.293  0.00  0.00    +0.000 C 
ATOM     19  N   UNL     1       8.145   4.208  17.802  0.00  0.00    +0.000 N 
ATOM     20  O   UNL     1       7.225   5.405  19.473  0.00  0.00    +0.000 OA
ATOM     21  H   UNL     1       8.446   4.110  16.848  0.00  0.00    +0.000 HD
ATOM     22  H   UNL     1       8.274   3.443  18.452  0.00  0.00    +0.000 HD
ENDBRANCH  17  18
ENDBRANCH  16  17
ENDBRANCH  15  16
ENDBRANCH  14  15
ENDBRANCH  13  14
ENDBRANCH  12  13
ENDBRANCH   1  12
TORSDOF 15
ENDMDL
MODEL 7
REMARK VINA RESULT:      -5.4      3.867      5.684
REMARK  Name = 
REMARK  16 active torsions:
REMARK  status: ('A' for Active; 'I' for Inactive)
REMARK    1  A    between atoms: C_1  and  C_2
REMARK    2  A    between atoms: C_2  and  C_3
REMARK    3  A    between atoms: C_4  and  C_5
REMARK    4  A    between atoms: C_5  and  C_6
REMARK    5  A    between atoms: C_6  and  C_7
REMARK    6  A    between atoms: C_7  and  C_8
REMARK    7  A    between atoms: C_8  and  C_9
REMARK    8  A    between atoms: C_9  and  C_10
REMARK    9  A    between atoms: C_10  and  C_11
REMARK   10  A    between atoms: C_11  and  C_12
REMARK   11  A    between atoms: C_12  and  C_13
REMARK   12  A    between atoms: C_13  and  C_14
REMARK   13  A    between atoms: C_14  and  C_15
REMARK   14  A    between atoms: C_15  and  C_16
REMARK   15  A    between atoms: C_16  and  C_17
REMARK   16  A    between atoms: C_17  and  C_18
REMARK                            x       y       z     vdW  Elec       q    Type
REMARK                         _______ _______ _______ _____ _____    ______ ____
ROOT
ATOM      1  C   UNL     1       2.670   2.261  17.676  0.00  0.00    +0.000 C 
ENDROOT
BRANCH   1   2
ATOM      2  C   UNL     1       1.689   2.192  18.831  0.00  0.00    +0.000 C 
BRANCH   2   3
ATOM      3  C   UNL     1       1.043   3.551  19.027  0.00  0.00    +0.000 C 
BRANCH   3   4
ATOM      4  C   UNL     1       1.080   3.912  20.496  0.00  0.00    +0.000 C 
BRANCH   4   5
ATOM      5  C   UNL     1       1.869   5.197  20.713  0.00  0.00    +0.000 C 
BRANCH   5   6
ATOM      6  C   UNL     1       2.167   5.889  19.385  0.00  0.00    +0.000 C 
BRANCH   6   7
ATOM      7  C   UNL     1       2.195   7.407  19.497  0.00  0.00    +0.000 C 
BRANCH   7   9
ATOM      8  C   UNL     1       2.003   9.304  17.881  0.00  0.00    +0.000 C 
ATOM      9  C   UNL     1       2.473   8.093  18.186  0.00  0.00    +0.000 C 
BRANCH   8  11
ATOM     10  C   UNL     1      -0.324  10.096  18.314  0.00  0.00    +0.000 C 
ATOM     11  C   UNL     1       1.118  10.109  18.787  0.00  0.00    +0.000 C 
ENDBRANCH   8  11
ENDBRANCH   7   9
ENDBRANCH   6   7
ENDBRANCH   5   6
ENDBRANCH   4   5
ENDBRANCH   3   4
ENDBRANCH   2   3
ENDBRANCH   1   2
BRANCH   1  12
ATOM     12  C   UNL     1       3.961   2.911  18.133  0.00  0.00    +0.000 C 
BRANCH  12  13
ATOM     13  C   UNL     1       4.553   3.724  16.994  0.00  0.00    +0.000 C 
BRANCH  13  14
ATOM     14  C   UNL     1       4.391   5.207  17.272  0.00  0.00    +0.000 C 
BRANCH  14  15
ATOM     15  C   UNL     1       5.183   6.028  16.262  0.00  0.00    +0.000 C 
BRANCH  15  16
ATOM     16  C   UNL     1       6.629   5.558  16.235  0.00  0.00    +0.000 C 
BRANCH  16  17
ATOM     17  C   UNL     1       7.303   5.723  17.590  0.00  0.00    +0.000 C 
BRANCH  17  18
ATOM     18  C   UNL     1       7.781   7.143  17.787  0.00  0.00    +0.000 C 
ATOM     19  N   UNL     1       8.456   7.361  18.953  0.00  0.00    +0.000 N 
ATOM     20  O   UNL     1       7.602   8.063  16.992  0.00  0.00    +0.000 OA
ATOM     21  H   UNL     1       8.632   6.642  19.633  0.00  0.00    +0.000 HD
ATOM     22  H   UNL     1       8.796   8.301  19.116  0.00  0.00    +0.000 HD
ENDBRANCH  17  18
ENDBRANCH  16  17
ENDBRANCH  15  16
ENDBRANCH  14  15
ENDBRANCH  13  14
ENDBRANCH  12  13
ENDBRANCH   1  12
TORSDOF 15
ENDMDL
MODEL 8
REMARK VINA RESULT:      -5.4      3.578      6.957
REMARK  Name = 
REMARK  16 active torsions:
REMARK  status: ('A' for Active; 'I' for Inactive)
REMARK    1  A    between atoms: C_1  and  C_2
REMARK    2  A    between atoms: C_2  and  C_3
REMARK    3  A    between atoms: C_4  and  C_5
REMARK    4  A    between atoms: C_5  and  C_6
REMARK    5  A    between atoms: C_6  and  C_7
REMARK    6  A    between atoms: C_7  and  C_8
REMARK    7  A    between atoms: C_8  and  C_9
REMARK    8  A    between atoms: C_9  and  C_10
REMARK    9  A    between atoms: C_10  and  C_11
REMARK   10  A    between atoms: C_11  and  C_12
REMARK   11  A    between atoms: C_12  and  C_13
REMARK   12  A    between atoms: C_13  and  C_14
REMARK   13  A    between atoms: C_14  and  C_15
REMARK   14  A    between atoms: C_15  and  C_16
REMARK   15  A    between atoms: C_16  and  C_17
REMARK   16  A    between atoms: C_17  and  C_18
REMARK                            x       y       z     vdW  Elec       q    Type
REMARK                         _______ _______ _______ _____ _____    ______ ____
ROOT
ATOM      1  C   UNL     1       3.624   3.334  17.267  0.00  0.00    +0.000 C 
ENDROOT
BRANCH   1   2
ATOM      2  C   UNL     1       3.750   2.523  18.543  0.00  0.00    +0.000 C 
BRANCH   2   3
ATOM      3  C   UNL     1       4.768   3.176  19.459  0.00  0.00    +0.000 C 
BRANCH   3   4
ATOM      4  C   UNL     1       5.758   3.959  18.624  0.00  0.00    +0.000 C 
BRANCH   4   5
ATOM      5  C   UNL     1       5.986   5.342  19.219  0.00  0.00    +0.000 C 
BRANCH   5   6
ATOM      6  C   UNL     1       6.739   6.243  18.243  0.00  0.00    +0.000 C 
BRANCH   6   7
ATOM      7  C   UNL     1       6.273   6.082  16.803  0.00  0.00    +0.000 C 
BRANCH   7   9
ATOM      8  C   UNL     1       7.008   4.740  14.827  0.00  0.00    +0.000 C 
ATOM      9  C   UNL     1       7.312   5.457  15.910  0.00  0.00    +0.000 C 
BRANCH   8  11
ATOM     10  C   UNL     1       5.581   3.610  13.120  0.00  0.00    +0.000 C 
ATOM     11  C   UNL     1       5.604   4.440  14.390  0.00  0.00    +0.000 C 
ENDBRANCH   8  11
ENDBRANCH   7   9
ENDBRANCH   6   7
ENDBRANCH   5   6
ENDBRANCH   4   5
ENDBRANCH   3   4
ENDBRANCH   2   3
ENDBRANCH   1   2
BRANCH   1  12
ATOM     12  C   UNL     1       2.164   3.472  16.884  0.00  0.00    +0.000 C 
BRANCH  12  13
ATOM     13  C   UNL     1       1.502   4.520  17.764  0.00  0.00    +0.000 C 
BRANCH  13  14
ATOM     14  C   UNL     1       2.402   5.734  17.897  0.00  0.00    +0.000 C 
BRANCH  14  15
ATOM     15  C   UNL     1       2.484   6.178  19.352  0.00  0.00    +0.000 C 
BRANCH  15  16
ATOM     16  C   UNL     1       1.537   5.345  20.201  0.00  0.00    +0.000 C 
BRANCH  16  17
ATOM     17  C   UNL     1       2.278   4.588  21.295  0.00  0.00    +0.000 C 
BRANCH  17  18
ATOM     18  C   UNL     1       1.690   3.210  21.494  0.00  0.00    +0.000 C 
ATOM     19  N   UNL     1       0.624   2.924  20.691  0.00  0.00    +0.000 N 
ATOM     20  O   UNL     1       2.102   2.378  22.300  0.00  0.00    +0.000 OA
ATOM     21  H   UNL     1       0.253   3.568  20.015  0.00  0.00    +0.000 HD
ATOM     22  H   UNL     1       0.208   2.006  20.794  0.00  0.00    +0.000 HD
ENDBRANCH  17  18
ENDBRANCH  16  17
ENDBRANCH  15  16
ENDBRANCH  14  15
ENDBRANCH  13  14
ENDBRANCH  12  13
ENDBRANCH   1  12
TORSDOF 15
ENDMDL
MODEL 9
REMARK VINA RESULT:      -5.4      3.176      6.656
REMARK  Name = 
REMARK  16 active torsions:
REMARK  status: ('A' for Active; 'I' for Inactive)
REMARK    1  A    between atoms: C_1  and  C_2
REMARK    2  A    between atoms: C_2  and  C_3
REMARK    3  A    between atoms: C_4  and  C_5
REMARK    4  A    between atoms: C_5  and  C_6
REMARK    5  A    between atoms: C_6  and  C_7
REMARK    6  A    between atoms: C_7  and  C_8
REMARK    7  A    between atoms: C_8  and  C_9
REMARK    8  A    between atoms: C_9  and  C_10
REMARK    9  A    between atoms: C_10  and  C_11
REMARK   10  A    between atoms: C_11  and  C_12
REMARK   11  A    between atoms: C_12  and  C_13
REMARK   12  A    between atoms: C_13  and  C_14
REMARK   13  A    between atoms: C_14  and  C_15
REMARK   14  A    between atoms: C_15  and  C_16
REMARK   15  A    between atoms: C_16  and  C_17
REMARK   16  A    between atoms: C_17  and  C_18
REMARK                            x       y       z     vdW  Elec       q    Type
REMARK                         _______ _______ _______ _____ _____    ______ ____
ROOT
ATOM      1  C   UNL     1       3.180   6.889  19.477  0.00  0.00    +0.000 C 
ENDROOT
BRANCH   1   2
ATOM      2  C   UNL     1       3.192   6.794  17.964  0.00  0.00    +0.000 C 
BRANCH   2   3
ATOM      3  C   UNL     1       3.594   5.390  17.549  0.00  0.00    +0.000 C 
BRANCH   3   4
ATOM      4  C   UNL     1       4.544   5.472  16.374  0.00  0.00    +0.000 C 
BRANCH   4   5
ATOM      5  C   UNL     1       5.225   4.130  16.140  0.00  0.00    +0.000 C 
BRANCH   5   6
ATOM      6  C   UNL     1       6.745   4.278  16.144  0.00  0.00    +0.000 C 
BRANCH   6   7
ATOM      7  C   UNL     1       7.205   5.695  16.454  0.00  0.00    +0.000 C 
BRANCH   7   9
ATOM      8  C   UNL     1       7.843   7.090  18.427  0.00  0.00    +0.000 C 
ATOM      9  C   UNL     1       7.583   5.893  17.897  0.00  0.00    +0.000 C 
BRANCH   8  11
ATOM     10  C   UNL     1       8.596   9.469  18.356  0.00  0.00    +0.000 C 
ATOM     11  C   UNL     1       7.827   8.371  17.645  0.00  0.00    +0.000 C 
ENDBRANCH   8  11
ENDBRANCH   7   9
ENDBRANCH   6   7
ENDBRANCH   5   6
ENDBRANCH   4   5
ENDBRANCH   3   4
ENDBRANCH   2   3
ENDBRANCH   1   2
BRANCH   1  12
ATOM     12  C   UNL     1       1.846   6.410  20.015  0.00  0.00    +0.000 C 
BRANCH  12  13
ATOM     13  C   UNL     1       2.034   5.091  20.746  0.00  0.00    +0.000 C 
BRANCH  13  14
ATOM     14  C   UNL     1       0.896   4.143  20.414  0.00  0.00    +0.000 C 
BRANCH  14  15
ATOM     15  C   UNL     1       1.340   2.697  20.592  0.00  0.00    +0.000 C 
BRANCH  15  16
ATOM     16  C   UNL     1       1.345   1.988  19.246  0.00  0.00    +0.000 C 
BRANCH  16  17
ATOM     17  C   UNL     1       2.507   2.442  18.373  0.00  0.00    +0.000 C 
BRANCH  17  18
ATOM     18  C   UNL     1       3.818   1.904  18.896  0.00  0.00    +0.000 C 
ATOM     19  N   UNL     1       4.129   0.645  18.470  0.00  0.00    +0.000 N 
ATOM     20  O   UNL     1       4.580   2.511  19.646  0.00  0.00    +0.000 OA
ATOM     21  H   UNL     1       3.542   0.109  17.854  0.00  0.00    +0.000 HD
ATOM     22  H   UNL     1       5.004   0.254  18.798  0.00  0.00    +0.000 HD
ENDBRANCH  17  18
ENDBRANCH  16  17
ENDBRANCH  15  16
ENDBRANCH  14  15
ENDBRANCH  13  14
ENDBRANCH  12  13
ENDBRANCH   1  12
TORSDOF 15
ENDMDL
