MODEL 1
REMARK VINA RESULT:      -8.8      0.000      0.000
REMARK  Name = 
REMARK  10 active torsions:
REMARK  status: ('A' for Active; 'I' for Inactive)
REMARK    1  A    between atoms: C_1  and  C_2
REMARK    2  A    between atoms: C_2  and  N_3
REMARK    3  A    between atoms: N_3  and  C_4
REMARK    4  A    between atoms: N_3  and  C_6
REMARK    5  A    between atoms: C_4  and  C_5
REMARK    6  A    between atoms: C_9  and  C_10
REMARK    7  A    between atoms: C_11  and  C_12
REMARK    8  A    between atoms: C_12  and  C_14
REMARK    9  A    between atoms: C_18  and  N_19
REMARK   10  A    between atoms: C_21  and  C_22
REMARK                            x       y       z     vdW  Elec       q    Type
REMARK                         _______ _______ _______ _____ _____    ______ ____
ROOT
ATOM      1  C   UNL     1       5.464   5.901  17.255  0.00  0.00    +0.000 A 
ATOM      2  C   UNL     1       4.923   4.648  16.952  0.00  0.00    +0.000 A 
ATOM      3  C   UNL     1       3.578   4.390  17.212  0.00  0.00    +0.000 A 
ATOM      4  C   UNL     1       2.762   5.384  17.755  0.00  0.00    +0.000 A 
ATOM      5  C   UNL     1       3.291   6.655  18.027  0.00  0.00    +0.000 A 
ATOM      6  C   UNL     1       4.646   6.912  17.777  0.00  0.00    +0.000 A 
ENDROOT
BRANCH   5   7
ATOM      7  N   UNL     1       2.468   7.694  18.527  0.00  0.00    +0.000 N 
ATOM      8  C   UNL     1       2.039   7.890  19.816  0.00  0.00    +0.000 A 
ATOM      9  C   UNL     1       1.215   8.987  19.751  0.00  0.00    +0.000 A 
ATOM     10  N   UNL     1       1.197   9.462  18.471  0.00  0.00    +0.000 NA
ATOM     11  N   UNL     1       1.965   8.670  17.730  0.00  0.00    +0.000 NA
BRANCH   9  12
ATOM     12  C   UNL     1       0.502   9.573  20.867  0.00  0.00    +0.000 A 
ATOM     13  C   UNL     1       0.618   9.015  22.146  0.00  0.00    +0.000 A 
ATOM     14  C   UNL     1      -0.101   9.551  23.218  0.00  0.00    +0.000 A 
ATOM     15  C   UNL     1      -0.934  10.653  23.022  0.00  0.00    +0.000 A 
ATOM     16  C   UNL     1      -1.036  11.221  21.756  0.00  0.00    +0.000 A 
ATOM     17 CL   UNL     1      -2.057  12.584  21.505  0.00  0.00    +0.000 Cl
ATOM     18  C   UNL     1      -0.323  10.691  20.682  0.00  0.00    +0.000 A 
ENDBRANCH   9  12
ENDBRANCH   5   7
BRANCH   1  19
ATOM     19  C   UNL     1       6.902   6.141  16.984  0.00  0.00    +0.000 C 
ATOM     20  O   UNL     1       7.658   5.205  16.754  0.00  0.00    +0.000 OA
BRANCH  19  22
ATOM     21  C   UNL     1       8.033   7.975  18.145  0.00  0.00    +0.000 C 
ATOM     22  C   UNL     1       7.368   7.548  17.064  0.00  0.00    +0.000 C 
BRANCH  21  26
ATOM     23  C   UNL     1       9.287  12.085  18.573  0.00  0.00    +0.000 A 
ATOM     24  C   UNL     1       8.354  11.676  17.608  0.00  0.00    +0.000 A 
ATOM     25  C   UNL     1       7.950  10.342  17.489  0.00  0.00    +0.000 A 
ATOM     26  C   UNL     1       8.485   9.360  18.324  0.00  0.00    +0.000 A 
ATOM     27  C   UNL     1       9.400   9.752  19.306  0.00  0.00    +0.000 A 
ATOM     28  C   UNL     1       9.798  11.091  19.420  0.00  0.00    +0.000 A 
BRANCH  23  29
ATOM     29  N   UNL     1       9.689  13.423  18.713  0.00  0.00    +0.000 N 
BRANCH  29  31
ATOM     30  C   UNL     1       8.854  15.760  18.918  0.00  0.00    +0.000 C 
ATOM     31  C   UNL     1       8.778  14.330  19.426  0.00  0.00    +0.000 C 
ENDBRANCH  29  31
BRANCH  29  32
ATOM     32  C   UNL     1      10.546  13.970  17.644  0.00  0.00    +0.000 C 
ATOM     33  C   UNL     1      11.691  13.045  17.246  0.00  0.00    +0.000 C 
ENDBRANCH  29  32
ENDBRANCH  23  29
ENDBRANCH  21  26
ENDBRANCH  19  22
ENDBRANCH   1  19
TORSDOF 8
ENDMDL
MODEL 2
REMARK VINA RESULT:      -8.5      1.863      2.241
REMARK  Name = 
REMARK  10 active torsions:
REMARK  status: ('A' for Active; 'I' for Inactive)
REMARK    1  A    between atoms: C_1  and  C_2
REMARK    2  A    between atoms: C_2  and  N_3
REMARK    3  A    between atoms: N_3  and  C_4
REMARK    4  A    between atoms: N_3  and  C_6
REMARK    5  A    between atoms: C_4  and  C_5
REMARK    6  A    between atoms: C_9  and  C_10
REMARK    7  A    between atoms: C_11  and  C_12
REMARK    8  A    between atoms: C_12  and  C_14
REMARK    9  A    between atoms: C_18  and  N_19
REMARK   10  A    between atoms: C_21  and  C_22
REMARK                            x       y       z     vdW  Elec       q    Type
REMARK                         _______ _______ _______ _____ _____    ______ ____
ROOT
ATOM      1  C   UNL     1       5.455   6.044  17.362  0.00  0.00    +0.000 A 
ATOM      2  C   UNL     1       4.967   4.751  17.149  0.00  0.00    +0.000 A 
ATOM      3  C   UNL     1       3.653   4.439  17.491  0.00  0.00    +0.000 A 
ATOM      4  C   UNL     1       2.814   5.417  18.028  0.00  0.00    +0.000 A 
ATOM      5  C   UNL     1       3.286   6.725  18.210  0.00  0.00    +0.000 A 
ATOM      6  C   UNL     1       4.612   7.037  17.877  0.00  0.00    +0.000 A 
ENDROOT
BRANCH   5   7
ATOM      7  N   UNL     1       2.435   7.745  18.702  0.00  0.00    +0.000 N 
ATOM      8  C   UNL     1       2.019   8.885  18.063  0.00  0.00    +0.000 A 
ATOM      9  C   UNL     1       1.274   9.563  18.997  0.00  0.00    +0.000 A 
ATOM     10  N   UNL     1       1.203   8.821  20.141  0.00  0.00    +0.000 NA
ATOM     11  N   UNL     1       1.912   7.713  19.954  0.00  0.00    +0.000 NA
BRANCH   9  12
ATOM     12  C   UNL     1       0.633  10.845  18.795  0.00  0.00    +0.000 A 
ATOM     13  C   UNL     1      -0.740  10.911  18.528  0.00  0.00    +0.000 A 
ATOM     14  C   UNL     1      -1.355  12.144  18.290  0.00  0.00    +0.000 A 
ATOM     15  C   UNL     1      -0.606  13.319  18.327  0.00  0.00    +0.000 A 
ATOM     16  C   UNL     1       0.755  13.259  18.612  0.00  0.00    +0.000 A 
ATOM     17 CL   UNL     1       1.688  14.704  18.665  0.00  0.00    +0.000 Cl
ATOM     18  C   UNL     1       1.375  12.033  18.848  0.00  0.00    +0.000 A 
ENDBRANCH   9  12
ENDBRANCH   5   7
BRANCH   1  19
ATOM     19  C   UNL     1       6.863   6.342  17.004  0.00  0.00    +0.000 C 
ATOM     20  O   UNL     1       7.616   5.449  16.635  0.00  0.00    +0.000 OA
BRANCH  19  22
ATOM     21  C   UNL     1       8.143   8.073  18.169  0.00  0.00    +0.000 C 
ATOM     22  C   UNL     1       7.309   7.749  17.173  0.00  0.00    +0.000 C 
BRANCH  21  26
ATOM     23  C   UNL     1       9.404  12.147  18.844  0.00  0.00    +0.000 A 
ATOM     24  C   UNL     1       8.615  11.773  17.746  0.00  0.00    +0.000 A 
ATOM     25  C   UNL     1       8.206  10.450  17.548  0.00  0.00    +0.000 A 
ATOM     26  C   UNL     1       8.592   9.446  18.436  0.00  0.00    +0.000 A 
ATOM     27  C   UNL     1       9.361   9.803  19.547  0.00  0.00    +0.000 A 
ATOM     28  C   UNL     1       9.766  11.131  19.740  0.00  0.00    +0.000 A 
BRANCH  23  29
ATOM     29  N   UNL     1       9.810  13.475  19.064  0.00  0.00    +0.000 N 
BRANCH  29  31
ATOM     30  C   UNL     1      10.179  14.337  21.370  0.00  0.00    +0.000 C 
ATOM     31  C   UNL     1       9.213  14.180  20.207  0.00  0.00    +0.000 C 
ENDBRANCH  29  31
BRANCH  29  32
ATOM     32  C   UNL     1      10.201  14.251  17.872  0.00  0.00    +0.000 C 
ATOM     33  C   UNL     1      11.697  14.205  17.578  0.00  0.00    +0.000 C 
ENDBRANCH  29  32
ENDBRANCH  23  29
ENDBRANCH  21  26
ENDBRANCH  19  22
ENDBRANCH   1  19
TORSDOF 8
ENDMDL
MODEL 3
REMARK VINA RESULT:      -8.5      1.798      2.278
REMARK  Name = 
REMARK  10 active torsions:
REMARK  status: ('A' for Active; 'I' for Inactive)
REMARK    1  A    between atoms: C_1  and  C_2
REMARK    2  A    between atoms: C_2  and  N_3
REMARK    3  A    between atoms: N_3  and  C_4
REMARK    4  A    between atoms: N_3  and  C_6
REMARK    5  A    between atoms: C_4  and  C_5
REMARK    6  A    between atoms: C_9  and  C_10
REMARK    7  A    between atoms: C_11  and  C_12
REMARK    8  A    between atoms: C_12  and  C_14
REMARK    9  A    between atoms: C_18  and  N_19
REMARK   10  A    between atoms: C_21  and  C_22
REMARK                            x       y       z     vdW  Elec       q    Type
REMARK                         _______ _______ _______ _____ _____    ______ ____
ROOT
ATOM      1  C   UNL     1       5.596   5.851  17.377  0.00  0.00    +0.000 A 
ATOM      2  C   UNL     1       5.117   4.579  17.046  0.00  0.00    +0.000 A 
ATOM      3  C   UNL     1       3.782   4.256  17.283  0.00  0.00    +0.000 A 
ATOM      4  C   UNL     1       2.915   5.203  17.831  0.00  0.00    +0.000 A 
ATOM      5  C   UNL     1       3.381   6.492  18.131  0.00  0.00    +0.000 A 
ATOM      6  C   UNL     1       4.726   6.814  17.904  0.00  0.00    +0.000 A 
ENDROOT
BRANCH   5   7
ATOM      7  N   UNL     1       2.505   7.483  18.639  0.00  0.00    +0.000 N 
ATOM      8  C   UNL     1       1.942   8.540  17.969  0.00  0.00    +0.000 A 
ATOM      9  C   UNL     1       1.241   9.231  18.927  0.00  0.00    +0.000 A 
ATOM     10  N   UNL     1       1.339   8.574  20.120  0.00  0.00    +0.000 NA
ATOM     11  N   UNL     1       2.110   7.508  19.937  0.00  0.00    +0.000 NA
BRANCH   9  12
ATOM     12  C   UNL     1       0.485  10.447  18.705  0.00  0.00    +0.000 A 
ATOM     13  C   UNL     1      -0.831  10.380  18.231  0.00  0.00    +0.000 A 
ATOM     14  C   UNL     1      -1.549  11.552  17.975  0.00  0.00    +0.000 A 
ATOM     15  C   UNL     1      -0.962  12.797  18.199  0.00  0.00    +0.000 A 
ATOM     16  C   UNL     1       0.339  12.866  18.689  0.00  0.00    +0.000 A 
ATOM     17 CL   UNL     1       1.071  14.397  18.974  0.00  0.00    +0.000 Cl
ATOM     18  C   UNL     1       1.062  11.702  18.945  0.00  0.00    +0.000 A 
ENDBRANCH   9  12
ENDBRANCH   5   7
BRANCH   1  19
ATOM     19  C   UNL     1       7.025   6.160  17.129  0.00  0.00    +0.000 C 
ATOM     20  O   UNL     1       7.834   5.261  16.932  0.00  0.00    +0.000 OA
BRANCH  19  22
ATOM     21  C   UNL     1       8.178   8.036  18.198  0.00  0.00    +0.000 C 
ATOM     22  C   UNL     1       7.416   7.592  17.191  0.00  0.00    +0.000 C 
BRANCH  21  26
ATOM     23  C   UNL     1       9.384  12.141  18.784  0.00  0.00    +0.000 A 
ATOM     24  C   UNL     1       9.752  11.112  19.665  0.00  0.00    +0.000 A 
ATOM     25  C   UNL     1       9.362   9.785  19.455  0.00  0.00    +0.000 A 
ATOM     26  C   UNL     1       8.567   9.442  18.360  0.00  0.00    +0.000 A 
ATOM     27  C   UNL     1       8.208  10.451  17.461  0.00  0.00    +0.000 A 
ATOM     28  C   UNL     1       8.604  11.778  17.677  0.00  0.00    +0.000 A 
BRANCH  23  29
ATOM     29  N   UNL     1       9.781  13.475  18.975  0.00  0.00    +0.000 N 
BRANCH  29  31
ATOM     30  C   UNL     1       8.159  14.097  20.759  0.00  0.00    +0.000 C 
ATOM     31  C   UNL     1       8.748  14.431  19.398  0.00  0.00    +0.000 C 
ENDBRANCH  29  31
BRANCH  29  32
ATOM     32  C   UNL     1      10.900  13.956  18.143  0.00  0.00    +0.000 C 
ATOM     33  C   UNL     1      12.049  12.960  18.031  0.00  0.00    +0.000 C 
ENDBRANCH  29  32
ENDBRANCH  23  29
ENDBRANCH  21  26
ENDBRANCH  19  22
ENDBRANCH   1  19
TORSDOF 8
ENDMDL
MODEL 4
REMARK VINA RESULT:      -8.5      1.983      2.683
REMARK  Name = 
REMARK  10 active torsions:
REMARK  status: ('A' for Active; 'I' for Inactive)
REMARK    1  A    between atoms: C_1  and  C_2
REMARK    2  A    between atoms: C_2  and  N_3
REMARK    3  A    between atoms: N_3  and  C_4
REMARK    4  A    between atoms: N_3  and  C_6
REMARK    5  A    between atoms: C_4  and  C_5
REMARK    6  A    between atoms: C_9  and  C_10
REMARK    7  A    between atoms: C_11  and  C_12
REMARK    8  A    between atoms: C_12  and  C_14
REMARK    9  A    between atoms: C_18  and  N_19
REMARK   10  A    between atoms: C_21  and  C_22
REMARK                            x       y       z     vdW  Elec       q    Type
REMARK                         _______ _______ _______ _____ _____    ______ ____
ROOT
ATOM      1  C   UNL     1       5.613   5.852  17.310  0.00  0.00    +0.000 A 
ATOM      2  C   UNL     1       5.208   4.516  17.230  0.00  0.00    +0.000 A 
ATOM      3  C   UNL     1       3.942   4.145  17.680  0.00  0.00    +0.000 A 
ATOM      4  C   UNL     1       3.068   5.105  18.193  0.00  0.00    +0.000 A 
ATOM      5  C   UNL     1       3.455   6.453  18.242  0.00  0.00    +0.000 A 
ATOM      6  C   UNL     1       4.732   6.825  17.800  0.00  0.00    +0.000 A 
ENDROOT
BRANCH   5   7
ATOM      7  N   UNL     1       2.563   7.450  18.708  0.00  0.00    +0.000 N 
ATOM      8  C   UNL     1       2.025   8.501  18.010  0.00  0.00    +0.000 A 
ATOM      9  C   UNL     1       1.291   9.202  18.936  0.00  0.00    +0.000 A 
ATOM     10  N   UNL     1       1.347   8.556  20.138  0.00  0.00    +0.000 NA
ATOM     11  N   UNL     1       2.123   7.487  19.992  0.00  0.00    +0.000 NA
BRANCH   9  12
ATOM     12  C   UNL     1       0.546  10.416  18.676  0.00  0.00    +0.000 A 
ATOM     13  C   UNL     1       1.149  11.666  18.865  0.00  0.00    +0.000 A 
ATOM     14  C   UNL     1       0.420  12.840  18.657  0.00  0.00    +0.000 A 
ATOM     15  C   UNL     1      -0.912  12.775  18.249  0.00  0.00    +0.000 A 
ATOM     16  C   UNL     1      -1.509  11.534  18.042  0.00  0.00    +0.000 A 
ATOM     17 CL   UNL     1      -3.151  11.444  17.534  0.00  0.00    +0.000 Cl
ATOM     18  C   UNL     1      -0.789  10.359  18.249  0.00  0.00    +0.000 A 
ENDBRANCH   9  12
ENDBRANCH   5   7
BRANCH   1  19
ATOM     19  C   UNL     1       6.972   6.215  16.839  0.00  0.00    +0.000 C 
ATOM     20  O   UNL     1       7.472   5.643  15.878  0.00  0.00    +0.000 OA
BRANCH  19  22
ATOM     21  C   UNL     1       7.562   8.543  17.309  0.00  0.00    +0.000 C 
ATOM     22  C   UNL     1       7.694   7.248  17.623  0.00  0.00    +0.000 C 
BRANCH  21  26
ATOM     23  C   UNL     1       9.704  11.632  19.434  0.00  0.00    +0.000 A 
ATOM     24  C   UNL     1       9.661  10.301  19.877  0.00  0.00    +0.000 A 
ATOM     25  C   UNL     1       8.971   9.309  19.170  0.00  0.00    +0.000 A 
ATOM     26  C   UNL     1       8.279   9.622  18.001  0.00  0.00    +0.000 A 
ATOM     27  C   UNL     1       8.327  10.939  17.533  0.00  0.00    +0.000 A 
ATOM     28  C   UNL     1       9.022  11.926  18.245  0.00  0.00    +0.000 A 
BRANCH  23  29
ATOM     29  N   UNL     1      10.406  12.634  20.126  0.00  0.00    +0.000 N 
BRANCH  29  31
ATOM     30  C   UNL     1      12.333  13.229  18.665  0.00  0.00    +0.000 C 
ATOM     31  C   UNL     1      11.870  12.646  19.990  0.00  0.00    +0.000 C 
ENDBRANCH  29  31
BRANCH  29  32
ATOM     32  C   UNL     1       9.802  13.115  21.382  0.00  0.00    +0.000 C 
ATOM     33  C   UNL     1       9.193  14.508  21.272  0.00  0.00    +0.000 C 
ENDBRANCH  29  32
ENDBRANCH  23  29
ENDBRANCH  21  26
ENDBRANCH  19  22
ENDBRANCH   1  19
TORSDOF 8
ENDMDL
MODEL 5
REMARK VINA RESULT:      -8.4      1.414      2.075
REMARK  Name = 
REMARK  10 active torsions:
REMARK  status: ('A' for Active; 'I' for Inactive)
REMARK    1  A    between atoms: C_1  and  C_2
REMARK    2  A    between atoms: C_2  and  N_3
REMARK    3  A    between atoms: N_3  and  C_4
REMARK    4  A    between atoms: N_3  and  C_6
REMARK    5  A    between atoms: C_4  and  C_5
REMARK    6  A    between atoms: C_9  and  C_10
REMARK    7  A    between atoms: C_11  and  C_12
REMARK    8  A    between atoms: C_12  and  C_14
REMARK    9  A    between atoms: C_18  and  N_19
REMARK   10  A    between atoms: C_21  and  C_22
REMARK                            x       y       z     vdW  Elec       q    Type
REMARK                         _______ _______ _______ _____ _____    ______ ____
ROOT
ATOM      1  C   UNL     1       6.043   5.171  17.952  0.00  0.00    +0.000 A 
ATOM      2  C   UNL     1       5.631   4.470  16.814  0.00  0.00    +0.000 A 
ATOM      3  C   UNL     1       4.271   4.288  16.564  0.00  0.00    +0.000 A 
ATOM      4  C   UNL     1       3.318   4.819  17.434  0.00  0.00    +0.000 A 
ATOM      5  C   UNL     1       3.725   5.554  18.558  0.00  0.00    +0.000 A 
ATOM      6  C   UNL     1       5.091   5.728  18.817  0.00  0.00    +0.000 A 
ENDROOT
BRANCH   5   7
ATOM      7  N   UNL     1       2.773   6.147  19.424  0.00  0.00    +0.000 N 
ATOM      8  C   UNL     1       2.365   7.456  19.467  0.00  0.00    +0.000 A 
ATOM      9  C   UNL     1       1.490   7.519  20.525  0.00  0.00    +0.000 A 
ATOM     10  N   UNL     1       1.341   6.272  21.061  0.00  0.00    +0.000 NA
ATOM     11  N   UNL     1       2.124   5.440  20.383  0.00  0.00    +0.000 NA
BRANCH   9  12
ATOM     12  C   UNL     1       0.806   8.710  20.982  0.00  0.00    +0.000 A 
ATOM     13  C   UNL     1       0.525   8.881  22.344  0.00  0.00    +0.000 A 
ATOM     14  C   UNL     1      -0.173  10.009  22.785  0.00  0.00    +0.000 A 
ATOM     15  C   UNL     1      -0.587  10.978  21.871  0.00  0.00    +0.000 A 
ATOM     16  C   UNL     1      -0.293  10.820  20.520  0.00  0.00    +0.000 A 
ATOM     17 CL   UNL     1      -0.796  12.013  19.386  0.00  0.00    +0.000 Cl
ATOM     18  C   UNL     1       0.401   9.698  20.073  0.00  0.00    +0.000 A 
ENDBRANCH   9  12
ENDBRANCH   5   7
BRANCH   1  19
ATOM     19  C   UNL     1       7.495   5.334  18.201  0.00  0.00    +0.000 C 
ATOM     20  O   UNL     1       8.259   4.383  18.089  0.00  0.00    +0.000 OA
BRANCH  19  22
ATOM     21  C   UNL     1       7.863   7.722  17.807  0.00  0.00    +0.000 C 
ATOM     22  C   UNL     1       7.948   6.678  18.641  0.00  0.00    +0.000 C 
BRANCH  21  26
ATOM     23  C   UNL     1       9.305  11.640  18.907  0.00  0.00    +0.000 A 
ATOM     24  C   UNL     1       9.615  10.487  19.643  0.00  0.00    +0.000 A 
ATOM     25  C   UNL     1       9.149   9.223  19.267  0.00  0.00    +0.000 A 
ATOM     26  C   UNL     1       8.333   9.071  18.146  0.00  0.00    +0.000 A 
ATOM     27  C   UNL     1       8.031  10.206  17.388  0.00  0.00    +0.000 A 
ATOM     28  C   UNL     1       8.503  11.469  17.770  0.00  0.00    +0.000 A 
BRANCH  23  29
ATOM     29  N   UNL     1       9.780  12.913  19.265  0.00  0.00    +0.000 N 
BRANCH  29  31
ATOM     30  C   UNL     1      12.238  13.007  19.653  0.00  0.00    +0.000 C 
ATOM     31  C   UNL     1      10.849  12.975  20.271  0.00  0.00    +0.000 C 
ENDBRANCH  29  31
BRANCH  29  32
ATOM     32  C   UNL     1       8.814  14.025  19.183  0.00  0.00    +0.000 C 
ATOM     33  C   UNL     1       9.461  15.403  19.270  0.00  0.00    +0.000 C 
ENDBRANCH  29  32
ENDBRANCH  23  29
ENDBRANCH  21  26
ENDBRANCH  19  22
ENDBRANCH   1  19
TORSDOF 8
ENDMDL
MODEL 6
REMARK VINA RESULT:      -8.4      1.973      2.576
REMARK  Name = 
REMARK  10 active torsions:
REMARK  status: ('A' for Active; 'I' for Inactive)
REMARK    1  A    between atoms: C_1  and  C_2
REMARK    2  A    between atoms: C_2  and  N_3
REMARK    3  A    between atoms: N_3  and  C_4
REMARK    4  A    between atoms: N_3  and  C_6
REMARK    5  A    between atoms: C_4  and  C_5
REMARK    6  A    between atoms: C_9  and  C_10
REMARK    7  A    between atoms: C_11  and  C_12
REMARK    8  A    between atoms: C_12  and  C_14
REMARK    9  A    between atoms: C_18  and  N_19
REMARK   10  A    between atoms: C_21  and  C_22
REMARK                            x       y       z     vdW  Elec       q    Type
REMARK                         _______ _______ _______ _____ _____    ______ ____
ROOT
ATOM      1  C   UNL     1       5.580   5.854  17.133  0.00  0.00    +0.000 A 
ATOM      2  C   UNL     1       5.098   4.562  16.900  0.00  0.00    +0.000 A 
ATOM      3  C   UNL     1       3.799   4.226  17.278  0.00  0.00    +0.000 A 
ATOM      4  C   UNL     1       2.969   5.179  17.870  0.00  0.00    +0.000 A 
ATOM      5  C   UNL     1       3.434   6.487  18.072  0.00  0.00    +0.000 A 
ATOM      6  C   UNL     1       4.744   6.823  17.704  0.00  0.00    +0.000 A 
ENDROOT
BRANCH   5   7
ATOM      7  N   UNL     1       2.590   7.484  18.622  0.00  0.00    +0.000 N 
ATOM      8  C   UNL     1       2.047   8.576  17.994  0.00  0.00    +0.000 A 
ATOM      9  C   UNL     1       1.374   9.253  18.983  0.00  0.00    +0.000 A 
ATOM     10  N   UNL     1       1.470   8.554  20.152  0.00  0.00    +0.000 NA
ATOM     11  N   UNL     1       2.211   7.475  19.925  0.00  0.00    +0.000 NA
BRANCH   9  12
ATOM     12  C   UNL     1       0.648  10.494  18.810  0.00  0.00    +0.000 A 
ATOM     13  C   UNL     1      -0.711  10.472  18.473  0.00  0.00    +0.000 A 
ATOM     14  C   UNL     1      -1.405  11.667  18.263  0.00  0.00    +0.000 A 
ATOM     15  C   UNL     1      -0.750  12.891  18.398  0.00  0.00    +0.000 A 
ATOM     16  C   UNL     1       0.596  12.916  18.753  0.00  0.00    +0.000 A 
ATOM     17 CL   UNL     1       1.411  14.422  18.927  0.00  0.00    +0.000 Cl
ATOM     18  C   UNL     1       1.295  11.729  18.962  0.00  0.00    +0.000 A 
ENDBRANCH   9  12
ENDBRANCH   5   7
BRANCH   1  19
ATOM     19  C   UNL     1       6.971   6.178  16.736  0.00  0.00    +0.000 C 
ATOM     20  O   UNL     1       7.504   5.597  15.798  0.00  0.00    +0.000 OA
BRANCH  19  22
ATOM     21  C   UNL     1       7.549   8.491  17.293  0.00  0.00    +0.000 C 
ATOM     22  C   UNL     1       7.682   7.186  17.563  0.00  0.00    +0.000 C 
BRANCH  21  26
ATOM     23  C   UNL     1       9.593  11.680  19.365  0.00  0.00    +0.000 A 
ATOM     24  C   UNL     1       8.914  11.879  18.153  0.00  0.00    +0.000 A 
ATOM     25  C   UNL     1       8.247  10.837  17.500  0.00  0.00    +0.000 A 
ATOM     26  C   UNL     1       8.255   9.547  18.029  0.00  0.00    +0.000 A 
ATOM     27  C   UNL     1       8.909   9.333  19.246  0.00  0.00    +0.000 A 
ATOM     28  C   UNL     1       9.573  10.382  19.895  0.00  0.00    +0.000 A 
BRANCH  23  29
ATOM     29  N   UNL     1      10.254  12.721  20.039  0.00  0.00    +0.000 N 
BRANCH  29  31
ATOM     30  C   UNL     1      12.186  12.766  18.468  0.00  0.00    +0.000 C 
ATOM     31  C   UNL     1      11.717  12.781  19.914  0.00  0.00    +0.000 C 
ENDBRANCH  29  31
BRANCH  29  32
ATOM     32  C   UNL     1       9.623  13.208  21.280  0.00  0.00    +0.000 C 
ATOM     33  C   UNL     1       8.403  14.091  21.039  0.00  0.00    +0.000 C 
ENDBRANCH  29  32
ENDBRANCH  23  29
ENDBRANCH  21  26
ENDBRANCH  19  22
ENDBRANCH   1  19
TORSDOF 8
ENDMDL
MODEL 7
REMARK VINA RESULT:      -8.4      1.841      2.328
REMARK  Name = 
REMARK  10 active torsions:
REMARK  status: ('A' for Active; 'I' for Inactive)
REMARK    1  A    between atoms: C_1  and  C_2
REMARK    2  A    between atoms: C_2  and  N_3
REMARK    3  A    between atoms: N_3  and  C_4
REMARK    4  A    between atoms: N_3  and  C_6
REMARK    5  A    between atoms: C_4  and  C_5
REMARK    6  A    between atoms: C_9  and  C_10
REMARK    7  A    between atoms: C_11  and  C_12
REMARK    8  A    between atoms: C_12  and  C_14
REMARK    9  A    between atoms: C_18  and  N_19
REMARK   10  A    between atoms: C_21  and  C_22
REMARK                            x       y       z     vdW  Elec       q    Type
REMARK                         _______ _______ _______ _____ _____    ______ ____
ROOT
ATOM      1  C   UNL     1       5.545   5.973  17.361  0.00  0.00    +0.000 A 
ATOM      2  C   UNL     1       5.072   4.706  17.009  0.00  0.00    +0.000 A 
ATOM      3  C   UNL     1       3.737   4.374  17.235  0.00  0.00    +0.000 A 
ATOM      4  C   UNL     1       2.865   5.309  17.795  0.00  0.00    +0.000 A 
ATOM      5  C   UNL     1       3.325   6.594  18.117  0.00  0.00    +0.000 A 
ATOM      6  C   UNL     1       4.669   6.925  17.901  0.00  0.00    +0.000 A 
ENDROOT
BRANCH   5   7
ATOM      7  N   UNL     1       2.443   7.574  18.637  0.00  0.00    +0.000 N 
ATOM      8  C   UNL     1       1.843   8.613  17.971  0.00  0.00    +0.000 A 
ATOM      9  C   UNL     1       1.152   9.301  18.939  0.00  0.00    +0.000 A 
ATOM     10  N   UNL     1       1.294   8.659  20.136  0.00  0.00    +0.000 NA
ATOM     11  N   UNL     1       2.081   7.605  19.944  0.00  0.00    +0.000 NA
BRANCH   9  12
ATOM     12  C   UNL     1       0.368  10.499  18.724  0.00  0.00    +0.000 A 
ATOM     13  C   UNL     1       0.870  11.747  19.113  0.00  0.00    +0.000 A 
ATOM     14  C   UNL     1       0.100  12.902  18.947  0.00  0.00    +0.000 A 
ATOM     15  C   UNL     1      -1.173  12.819  18.382  0.00  0.00    +0.000 A 
ATOM     16  C   UNL     1      -1.667  11.582  17.977  0.00  0.00    +0.000 A 
ATOM     17 CL   UNL     1      -3.234  11.470  17.275  0.00  0.00    +0.000 Cl
ATOM     18  C   UNL     1      -0.905  10.427  18.141  0.00  0.00    +0.000 A 
ENDBRANCH   9  12
ENDBRANCH   5   7
BRANCH   1  19
ATOM     19  C   UNL     1       6.973   6.292  17.124  0.00  0.00    +0.000 C 
ATOM     20  O   UNL     1       7.784   5.401  16.904  0.00  0.00    +0.000 OA
BRANCH  19  22
ATOM     21  C   UNL     1       8.204   8.123  18.186  0.00  0.00    +0.000 C 
ATOM     22  C   UNL     1       7.362   7.722  17.225  0.00  0.00    +0.000 C 
BRANCH  21  26
ATOM     23  C   UNL     1       9.427  12.205  18.880  0.00  0.00    +0.000 A 
ATOM     24  C   UNL     1       9.798  11.150  19.728  0.00  0.00    +0.000 A 
ATOM     25  C   UNL     1       9.402   9.831  19.483  0.00  0.00    +0.000 A 
ATOM     26  C   UNL     1       8.599   9.523  18.385  0.00  0.00    +0.000 A 
ATOM     27  C   UNL     1       8.236  10.557  17.518  0.00  0.00    +0.000 A 
ATOM     28  C   UNL     1       8.638  11.876  17.769  0.00  0.00    +0.000 A 
BRANCH  23  29
ATOM     29  N   UNL     1       9.830  13.532  19.106  0.00  0.00    +0.000 N 
BRANCH  29  31
ATOM     30  C   UNL     1       8.077  14.173  20.754  0.00  0.00    +0.000 C 
ATOM     31  C   UNL     1       9.561  14.100  20.435  0.00  0.00    +0.000 C 
ENDBRANCH  29  31
BRANCH  29  32
ATOM     32  C   UNL     1       9.836  14.429  17.936  0.00  0.00    +0.000 C 
ATOM     33  C   UNL     1      10.127  15.885  18.284  0.00  0.00    +0.000 C 
ENDBRANCH  29  32
ENDBRANCH  23  29
ENDBRANCH  21  26
ENDBRANCH  19  22
ENDBRANCH   1  19
TORSDOF 8
ENDMDL
MODEL 8
REMARK VINA RESULT:      -8.3      1.834      2.251
REMARK  Name = 
REMARK  10 active torsions:
REMARK  status: ('A' for Active; 'I' for Inactive)
REMARK    1  A    between atoms: C_1  and  C_2
REMARK    2  A    between atoms: C_2  and  N_3
REMARK    3  A    between atoms: N_3  and  C_4
REMARK    4  A    between atoms: N_3  and  C_6
REMARK    5  A    between atoms: C_4  and  C_5
REMARK    6  A    between atoms: C_9  and  C_10
REMARK    7  A    between atoms: C_11  and  C_12
REMARK    8  A    between atoms: C_12  and  C_14
REMARK    9  A    between atoms: C_18  and  N_19
REMARK   10  A    between atoms: C_21  and  C_22
REMARK                            x       y       z     vdW  Elec       q    Type
REMARK                         _______ _______ _______ _____ _____    ______ ____
ROOT
ATOM      1  C   UNL     1       5.700   6.113  17.247  0.00  0.00    +0.000 A 
ATOM      2  C   UNL     1       5.270   4.821  16.930  0.00  0.00    +0.000 A 
ATOM      3  C   UNL     1       3.963   4.433  17.219  0.00  0.00    +0.000 A 
ATOM      4  C   UNL     1       3.074   5.335  17.805  0.00  0.00    +0.000 A 
ATOM      5  C   UNL     1       3.489   6.644  18.092  0.00  0.00    +0.000 A 
ATOM      6  C   UNL     1       4.806   7.032  17.813  0.00  0.00    +0.000 A 
ENDROOT
BRANCH   5   7
ATOM      7  N   UNL     1       2.587   7.591  18.638  0.00  0.00    +0.000 N 
ATOM      8  C   UNL     1       2.077   8.717  18.043  0.00  0.00    +0.000 A 
ATOM      9  C   UNL     1       1.316   9.317  19.018  0.00  0.00    +0.000 A 
ATOM     10  N   UNL     1       1.330   8.542  20.142  0.00  0.00    +0.000 NA
ATOM     11  N   UNL     1       2.105   7.489  19.903  0.00  0.00    +0.000 NA
BRANCH   9  12
ATOM     12  C   UNL     1       0.586  10.559  18.871  0.00  0.00    +0.000 A 
ATOM     13  C   UNL     1       1.275  11.775  18.787  0.00  0.00    +0.000 A 
ATOM     14  C   UNL     1       0.573  12.980  18.688  0.00  0.00    +0.000 A 
ATOM     15  C   UNL     1      -0.822  12.977  18.663  0.00  0.00    +0.000 A 
ATOM     16  C   UNL     1      -1.509  11.769  18.727  0.00  0.00    +0.000 A 
ATOM     17 CL   UNL     1      -3.230  11.755  18.692  0.00  0.00    +0.000 Cl
ATOM     18  C   UNL     1      -0.815  10.564  18.827  0.00  0.00    +0.000 A 
ENDBRANCH   9  12
ENDBRANCH   5   7
BRANCH   1  19
ATOM     19  C   UNL     1       7.101   6.493  16.943  0.00  0.00    +0.000 C 
ATOM     20  O   UNL     1       7.712   5.947  16.032  0.00  0.00    +0.000 OA
BRANCH  19  22
ATOM     21  C   UNL     1       7.884   8.767  17.398  0.00  0.00    +0.000 C 
ATOM     22  C   UNL     1       7.722   7.510  17.829  0.00  0.00    +0.000 C 
BRANCH  21  26
ATOM     23  C   UNL     1       9.767  11.944  19.635  0.00  0.00    +0.000 A 
ATOM     24  C   UNL     1       9.184  12.149  18.375  0.00  0.00    +0.000 A 
ATOM     25  C   UNL     1       8.568  11.111  17.668  0.00  0.00    +0.000 A 
ATOM     26  C   UNL     1       8.532   9.819  18.191  0.00  0.00    +0.000 A 
ATOM     27  C   UNL     1       9.090   9.599  19.454  0.00  0.00    +0.000 A 
ATOM     28  C   UNL     1       9.704  10.644  20.157  0.00  0.00    +0.000 A 
BRANCH  23  29
ATOM     29  N   UNL     1      10.376  12.980  20.362  0.00  0.00    +0.000 N 
BRANCH  29  31
ATOM     30  C   UNL     1       8.239  13.478  21.541  0.00  0.00    +0.000 C 
ATOM     31  C   UNL     1       9.752  13.364  21.637  0.00  0.00    +0.000 C 
ENDBRANCH  29  31
BRANCH  29  32
ATOM     32  C   UNL     1      11.086  14.008  19.579  0.00  0.00    +0.000 C 
ATOM     33  C   UNL     1      10.408  15.374  19.606  0.00  0.00    +0.000 C 
ENDBRANCH  29  32
ENDBRANCH  23  29
ENDBRANCH  21  26
ENDBRANCH  19  22
ENDBRANCH   1  19
TORSDOF 8
ENDMDL
MODEL 9
REMARK VINA RESULT:      -8.3      1.857      2.362
REMARK  Name = 
REMARK  10 active torsions:
REMARK  status: ('A' for Active; 'I' for Inactive)
REMARK    1  A    between atoms: C_1  and  C_2
REMARK    2  A    between atoms: C_2  and  N_3
REMARK    3  A    between atoms: N_3  and  C_4
REMARK    4  A    between atoms: N_3  and  C_6
REMARK    5  A    between atoms: C_4  and  C_5
REMARK    6  A    between atoms: C_9  and  C_10
REMARK    7  A    between atoms: C_11  and  C_12
REMARK    8  A    between atoms: C_12  and  C_14
REMARK    9  A    between atoms: C_18  and  N_19
REMARK   10  A    between atoms: C_21  and  C_22
REMARK                            x       y       z     vdW  Elec       q    Type
REMARK                         _______ _______ _______ _____ _____    ______ ____
ROOT
ATOM      1  C   UNL     1       5.655   5.962  17.454  0.00  0.00    +0.000 A 
ATOM      2  C   UNL     1       5.273   4.619  17.396  0.00  0.00    +0.000 A 
ATOM      3  C   UNL     1       4.006   4.237  17.835  0.00  0.00    +0.000 A 
ATOM      4  C   UNL     1       3.109   5.194  18.314  0.00  0.00    +0.000 A 
ATOM      5  C   UNL     1       3.474   6.548  18.341  0.00  0.00    +0.000 A 
ATOM      6  C   UNL     1       4.752   6.931  17.911  0.00  0.00    +0.000 A 
ENDROOT
BRANCH   5   7
ATOM      7  N   UNL     1       2.560   7.540  18.773  0.00  0.00    +0.000 N 
ATOM      8  C   UNL     1       2.082   8.617  18.070  0.00  0.00    +0.000 A 
ATOM      9  C   UNL     1       1.290   9.298  18.963  0.00  0.00    +0.000 A 
ATOM     10  N   UNL     1       1.256   8.617  20.146  0.00  0.00    +0.000 NA
ATOM     11  N   UNL     1       2.031   7.545  20.023  0.00  0.00    +0.000 NA
BRANCH   9  12
ATOM     12  C   UNL     1       0.575  10.527  18.688  0.00  0.00    +0.000 A 
ATOM     13  C   UNL     1       1.229  11.761  18.798  0.00  0.00    +0.000 A 
ATOM     14  C   UNL     1       0.532  12.952  18.575  0.00  0.00    +0.000 A 
ATOM     15  C   UNL     1      -0.820  12.918  18.231  0.00  0.00    +0.000 A 
ATOM     16  C   UNL     1      -1.467  11.693  18.101  0.00  0.00    +0.000 A 
ATOM     17 CL   UNL     1      -3.132  11.642  17.671  0.00  0.00    +0.000 Cl
ATOM     18  C   UNL     1      -0.778  10.502  18.323  0.00  0.00    +0.000 A 
ENDBRANCH   9  12
ENDBRANCH   5   7
BRANCH   1  19
ATOM     19  C   UNL     1       7.015   6.336  16.996  0.00  0.00    +0.000 C 
ATOM     20  O   UNL     1       7.771   5.492  16.529  0.00  0.00    +0.000 OA
BRANCH  19  22
ATOM     21  C   UNL     1       8.230   8.089  18.198  0.00  0.00    +0.000 C 
ATOM     22  C   UNL     1       7.417   7.753  17.189  0.00  0.00    +0.000 C 
BRANCH  21  26
ATOM     23  C   UNL     1       9.357  12.190  18.942  0.00  0.00    +0.000 A 
ATOM     24  C   UNL     1       8.558  11.812  17.852  0.00  0.00    +0.000 A 
ATOM     25  C   UNL     1       8.193  10.480  17.631  0.00  0.00    +0.000 A 
ATOM     26  C   UNL     1       8.634   9.470  18.487  0.00  0.00    +0.000 A 
ATOM     27  C   UNL     1       9.414   9.831  19.590  0.00  0.00    +0.000 A 
ATOM     28  C   UNL     1       9.774  11.168  19.806  0.00  0.00    +0.000 A 
BRANCH  23  29
ATOM     29  N   UNL     1       9.718  13.526  19.184  0.00  0.00    +0.000 N 
BRANCH  29  31
ATOM     30  C   UNL     1      10.807  14.627  17.234  0.00  0.00    +0.000 C 
ATOM     31  C   UNL     1      10.985  13.996  18.606  0.00  0.00    +0.000 C 
ENDBRANCH  29  31
BRANCH  29  32
ATOM     32  C   UNL     1       9.251  14.117  20.453  0.00  0.00    +0.000 C 
ATOM     33  C   UNL     1      10.283  15.018  21.122  0.00  0.00    +0.000 C 
ENDBRANCH  29  32
ENDBRANCH  23  29
ENDBRANCH  21  26
ENDBRANCH  19  22
ENDBRANCH   1  19
TORSDOF 8
ENDMDL
