MODEL 1
REMARK VINA RESULT:      -7.3      0.000      0.000
REMARK  Name = 
REMARK  9 active torsions:
REMARK  status: ('A' for Active; 'I' for Inactive)
REMARK    1  A    between atoms: C_1  and  C_2
REMARK    2  A    between atoms: C_2  and  C_3
REMARK    3  A    between atoms: C_6  and  C_7
REMARK    4  A    between atoms: C_7  and  C_9
REMARK    5  A    between atoms: C_9  and  O_10
REMARK    6  A    between atoms: O_10  and  C_11
REMARK    7  A    between atoms: C_11  and  C_13
REMARK    8  A    between atoms: C_13  and  N_14
REMARK    9  A    between atoms: C_15  and  C_17
REMARK                            x       y       z     vdW  Elec       q    Type
REMARK                         _______ _______ _______ _____ _____    ______ ____
ROOT
ATOM      1  O   UNL     1       5.275   6.054  17.007  0.00  0.00    +0.000 OA
ENDROOT
BRANCH   1   2
ATOM      2  C   UNL     1       6.131   5.408  17.846  0.00  0.00    +0.000 C 
ATOM      3  O   UNL     1       6.172   5.562  19.062  0.00  0.00    +0.000 OA
BRANCH   2   4
ATOM      4  C   UNL     1       7.127   4.566  17.063  0.00  0.00    +0.000 C 
BRANCH   4   5
ATOM      5  N   UNL     1       6.565   4.100  15.810  0.00  0.00    +0.000 N 
ATOM      6  C   UNL     1       6.977   4.611  14.598  0.00  0.00    +0.000 C 
ATOM      7  O   UNL     1       7.818   5.501  14.513  0.00  0.00    +0.000 OA
ATOM      8  H   UNL     1       5.953   3.292  15.797  0.00  0.00    +0.000 HD
BRANCH   6   9
ATOM      9  C   UNL     1       6.333   4.014  13.446  0.00  0.00    +0.000 A 
ATOM     10  C   UNL     1       6.864   3.492  12.281  0.00  0.00    +0.000 A 
ATOM     11  C   UNL     1       5.772   3.065  11.489  0.00  0.00    +0.000 A 
ATOM     12  C   UNL     1       4.640   3.347  12.216  0.00  0.00    +0.000 A 
ATOM     13  O   UNL     1       4.964   3.918  13.406  0.00  0.00    +0.000 OA
ENDBRANCH   6   9
ENDBRANCH   4   5
ENDBRANCH   2   4
ENDBRANCH   1   2
BRANCH   1  14
ATOM     14  C   UNL     1       4.841   7.343  17.454  0.00  0.00    +0.000 C 
BRANCH  14  15
ATOM     15  C   UNL     1       3.328   7.390  17.634  0.00  0.00    +0.000 C 
ATOM     16  O   UNL     1       2.650   8.325  17.202  0.00  0.00    +0.000 OA
BRANCH  15  20
ATOM     17  C   UNL     1       1.499   4.240  19.951  0.00  0.00    +0.000 A 
ATOM     18  C   UNL     1       1.918   5.434  20.546  0.00  0.00    +0.000 A 
ATOM     19  C   UNL     1       2.490   6.446  19.775  0.00  0.00    +0.000 A 
ATOM     20  C   UNL     1       2.654   6.288  18.391  0.00  0.00    +0.000 A 
ATOM     21  C   UNL     1       2.208   5.108  17.786  0.00  0.00    +0.000 A 
ATOM     22  C   UNL     1       1.630   4.093  18.562  0.00  0.00    +0.000 A 
BRANCH  17  24
ATOM     23  C   UNL     1       1.934   2.512  21.730  0.00  0.00    +0.000 C 
ATOM     24  C   UNL     1       0.912   3.135  20.794  0.00  0.00    +0.000 C 
ENDBRANCH  17  24
ENDBRANCH  15  20
ENDBRANCH  14  15
ENDBRANCH   1  14
TORSDOF 8
ENDMDL
MODEL 2
REMARK VINA RESULT:      -7.2      1.844      3.266
REMARK  Name = 
REMARK  9 active torsions:
REMARK  status: ('A' for Active; 'I' for Inactive)
REMARK    1  A    between atoms: C_1  and  C_2
REMARK    2  A    between atoms: C_2  and  C_3
REMARK    3  A    between atoms: C_6  and  C_7
REMARK    4  A    between atoms: C_7  and  C_9
REMARK    5  A    between atoms: C_9  and  O_10
REMARK    6  A    between atoms: O_10  and  C_11
REMARK    7  A    between atoms: C_11  and  C_13
REMARK    8  A    between atoms: C_13  and  N_14
REMARK    9  A    between atoms: C_15  and  C_17
REMARK                            x       y       z     vdW  Elec       q    Type
REMARK                         _______ _______ _______ _____ _____    ______ ____
ROOT
ATOM      1  O   UNL     1       5.629   3.847  18.375  0.00  0.00    +0.000 OA
ENDROOT
BRANCH   1   2
ATOM      2  C   UNL     1       6.445   4.826  18.851  0.00  0.00    +0.000 C 
ATOM      3  O   UNL     1       6.160   5.596  19.762  0.00  0.00    +0.000 OA
BRANCH   2   4
ATOM      4  C   UNL     1       7.710   4.934  18.014  0.00  0.00    +0.000 C 
BRANCH   4   5
ATOM      5  N   UNL     1       7.483   4.517  16.644  0.00  0.00    +0.000 N 
ATOM      6  C   UNL     1       6.920   5.367  15.714  0.00  0.00    +0.000 C 
ATOM      7  O   UNL     1       6.560   6.505  15.999  0.00  0.00    +0.000 OA
ATOM      8  H   UNL     1       7.857   3.636  16.311  0.00  0.00    +0.000 HD
BRANCH   6   9
ATOM      9  C   UNL     1       6.789   4.799  14.388  0.00  0.00    +0.000 A 
ATOM     10  C   UNL     1       5.954   3.808  13.906  0.00  0.00    +0.000 A 
ATOM     11  C   UNL     1       6.272   3.635  12.538  0.00  0.00    +0.000 A 
ATOM     12  C   UNL     1       7.279   4.530  12.264  0.00  0.00    +0.000 A 
ATOM     13  O   UNL     1       7.599   5.245  13.374  0.00  0.00    +0.000 OA
ENDBRANCH   6   9
ENDBRANCH   4   5
ENDBRANCH   2   4
ENDBRANCH   1   2
BRANCH   1  14
ATOM     14  C   UNL     1       4.605   3.414  19.277  0.00  0.00    +0.000 C 
BRANCH  14  15
ATOM     15  C   UNL     1       3.222   3.837  18.795  0.00  0.00    +0.000 C 
ATOM     16  O   UNL     1       2.462   3.048  18.228  0.00  0.00    +0.000 OA
BRANCH  15  20
ATOM     17  C   UNL     1       1.844   7.881  19.413  0.00  0.00    +0.000 A 
ATOM     18  C   UNL     1       1.728   6.910  20.413  0.00  0.00    +0.000 A 
ATOM     19  C   UNL     1       2.197   5.613  20.198  0.00  0.00    +0.000 A 
ATOM     20  C   UNL     1       2.795   5.260  18.979  0.00  0.00    +0.000 A 
ATOM     21  C   UNL     1       2.942   6.236  17.988  0.00  0.00    +0.000 A 
ATOM     22  C   UNL     1       2.472   7.539  18.206  0.00  0.00    +0.000 A 
BRANCH  17  24
ATOM     23  C   UNL     1       1.182  10.063  18.346  0.00  0.00    +0.000 C 
ATOM     24  C   UNL     1       1.306   9.272  19.637  0.00  0.00    +0.000 C 
ENDBRANCH  17  24
ENDBRANCH  15  20
ENDBRANCH  14  15
ENDBRANCH   1  14
TORSDOF 8
ENDMDL
MODEL 3
REMARK VINA RESULT:      -7.1      1.663      2.740
REMARK  Name = 
REMARK  9 active torsions:
REMARK  status: ('A' for Active; 'I' for Inactive)
REMARK    1  A    between atoms: C_1  and  C_2
REMARK    2  A    between atoms: C_2  and  C_3
REMARK    3  A    between atoms: C_6  and  C_7
REMARK    4  A    between atoms: C_7  and  C_9
REMARK    5  A    between atoms: C_9  and  O_10
REMARK    6  A    between atoms: O_10  and  C_11
REMARK    7  A    between atoms: C_11  and  C_13
REMARK    8  A    between atoms: C_13  and  N_14
REMARK    9  A    between atoms: C_15  and  C_17
REMARK                            x       y       z     vdW  Elec       q    Type
REMARK                         _______ _______ _______ _____ _____    ______ ____
ROOT
ATOM      1  O   UNL     1       5.147   4.338  18.686  0.00  0.00    +0.000 OA
ENDROOT
BRANCH   1   2
ATOM      2  C   UNL     1       6.242   4.687  17.956  0.00  0.00    +0.000 C 
ATOM      3  O   UNL     1       7.393   4.352  18.214  0.00  0.00    +0.000 OA
BRANCH   2   4
ATOM      4  C   UNL     1       5.869   5.664  16.852  0.00  0.00    +0.000 C 
BRANCH   4   5
ATOM      5  N   UNL     1       5.673   4.990  15.584  0.00  0.00    +0.000 N 
ATOM      6  C   UNL     1       6.686   4.890  14.653  0.00  0.00    +0.000 C 
ATOM      7  O   UNL     1       7.794   5.384  14.835  0.00  0.00    +0.000 OA
ATOM      8  H   UNL     1       4.824   4.463  15.415  0.00  0.00    +0.000 HD
BRANCH   6   9
ATOM      9  C   UNL     1       6.327   4.161  13.454  0.00  0.00    +0.000 A 
ATOM     10  C   UNL     1       7.095   3.749  12.381  0.00  0.00    +0.000 A 
ATOM     11  C   UNL     1       6.221   3.098  11.479  0.00  0.00    +0.000 A 
ATOM     12  C   UNL     1       4.973   3.147  12.052  0.00  0.00    +0.000 A 
ATOM     13  O   UNL     1       5.022   3.784  13.252  0.00  0.00    +0.000 OA
ENDBRANCH   6   9
ENDBRANCH   4   5
ENDBRANCH   2   4
ENDBRANCH   1   2
BRANCH   1  14
ATOM     14  C   UNL     1       4.281   3.381  18.066  0.00  0.00    +0.000 C 
BRANCH  14  15
ATOM     15  C   UNL     1       2.867   3.928  17.911  0.00  0.00    +0.000 C 
ATOM     16  O   UNL     1       2.087   3.487  17.063  0.00  0.00    +0.000 OA
BRANCH  15  20
ATOM     17  C   UNL     1       1.741   7.286  20.380  0.00  0.00    +0.000 A 
ATOM     18  C   UNL     1       2.223   7.466  19.080  0.00  0.00    +0.000 A 
ATOM     19  C   UNL     1       2.564   6.365  18.292  0.00  0.00    +0.000 A 
ATOM     20  C   UNL     1       2.428   5.060  18.788  0.00  0.00    +0.000 A 
ATOM     21  C   UNL     1       1.916   4.874  20.076  0.00  0.00    +0.000 A 
ATOM     22  C   UNL     1       1.572   5.981  20.865  0.00  0.00    +0.000 A 
BRANCH  17  24
ATOM     23  C   UNL     1      -0.091   8.647  21.442  0.00  0.00    +0.000 C 
ATOM     24  C   UNL     1       1.405   8.480  21.239  0.00  0.00    +0.000 C 
ENDBRANCH  17  24
ENDBRANCH  15  20
ENDBRANCH  14  15
ENDBRANCH   1  14
TORSDOF 8
ENDMDL
MODEL 4
REMARK VINA RESULT:      -7.0      2.415      3.618
REMARK  Name = 
REMARK  9 active torsions:
REMARK  status: ('A' for Active; 'I' for Inactive)
REMARK    1  A    between atoms: C_1  and  C_2
REMARK    2  A    between atoms: C_2  and  C_3
REMARK    3  A    between atoms: C_6  and  C_7
REMARK    4  A    between atoms: C_7  and  C_9
REMARK    5  A    between atoms: C_9  and  O_10
REMARK    6  A    between atoms: O_10  and  C_11
REMARK    7  A    between atoms: C_11  and  C_13
REMARK    8  A    between atoms: C_13  and  N_14
REMARK    9  A    between atoms: C_15  and  C_17
REMARK                            x       y       z     vdW  Elec       q    Type
REMARK                         _______ _______ _______ _____ _____    ______ ____
ROOT
ATOM      1  O   UNL     1       4.072   4.410  17.697  0.00  0.00    +0.000 OA
ENDROOT
BRANCH   1   2
ATOM      2  C   UNL     1       5.074   3.932  18.483  0.00  0.00    +0.000 C 
ATOM      3  O   UNL     1       4.917   3.416  19.585  0.00  0.00    +0.000 OA
BRANCH   2   4
ATOM      4  C   UNL     1       6.435   4.243  17.878  0.00  0.00    +0.000 C 
BRANCH   4   5
ATOM      5  N   UNL     1       6.448   4.015  16.446  0.00  0.00    +0.000 N 
ATOM      6  C   UNL     1       6.869   4.988  15.564  0.00  0.00    +0.000 C 
ATOM      7  O   UNL     1       7.228   6.100  15.936  0.00  0.00    +0.000 OA
ATOM      8  H   UNL     1       6.274   3.087  16.077  0.00  0.00    +0.000 HD
BRANCH   6   9
ATOM      9  C   UNL     1       6.844   4.584  14.172  0.00  0.00    +0.000 A 
ATOM     10  C   UNL     1       7.591   5.015  13.092  0.00  0.00    +0.000 A 
ATOM     11  C   UNL     1       7.130   4.296  11.963  0.00  0.00    +0.000 A 
ATOM     12  C   UNL     1       6.131   3.469  12.419  0.00  0.00    +0.000 A 
ATOM     13  O   UNL     1       5.950   3.629  13.757  0.00  0.00    +0.000 OA
ENDBRANCH   6   9
ENDBRANCH   4   5
ENDBRANCH   2   4
ENDBRANCH   1   2
BRANCH   1  14
ATOM     14  C   UNL     1       3.107   5.226  18.369  0.00  0.00    +0.000 C 
BRANCH  14  15
ATOM     15  C   UNL     1       3.324   6.705  18.070  0.00  0.00    +0.000 C 
ATOM     16  O   UNL     1       4.274   7.100  17.391  0.00  0.00    +0.000 OA
BRANCH  15  20
ATOM     17  C   UNL     1       0.667   9.722  19.644  0.00  0.00    +0.000 A 
ATOM     18  C   UNL     1       1.004   9.683  18.287  0.00  0.00    +0.000 A 
ATOM     19  C   UNL     1       1.850   8.688  17.796  0.00  0.00    +0.000 A 
ATOM     20  C   UNL     1       2.376   7.708  18.652  0.00  0.00    +0.000 A 
ATOM     21  C   UNL     1       2.016   7.725  20.003  0.00  0.00    +0.000 A 
ATOM     22  C   UNL     1       1.164   8.724  20.494  0.00  0.00    +0.000 A 
BRANCH  17  24
ATOM     23  C   UNL     1      -1.365  11.150  19.231  0.00  0.00    +0.000 C 
ATOM     24  C   UNL     1      -0.221  10.819  20.175  0.00  0.00    +0.000 C 
ENDBRANCH  17  24
ENDBRANCH  15  20
ENDBRANCH  14  15
ENDBRANCH   1  14
TORSDOF 8
ENDMDL
MODEL 5
REMARK VINA RESULT:      -7.0      0.892      1.100
REMARK  Name = 
REMARK  9 active torsions:
REMARK  status: ('A' for Active; 'I' for Inactive)
REMARK    1  A    between atoms: C_1  and  C_2
REMARK    2  A    between atoms: C_2  and  C_3
REMARK    3  A    between atoms: C_6  and  C_7
REMARK    4  A    between atoms: C_7  and  C_9
REMARK    5  A    between atoms: C_9  and  O_10
REMARK    6  A    between atoms: O_10  and  C_11
REMARK    7  A    between atoms: C_11  and  C_13
REMARK    8  A    between atoms: C_13  and  N_14
REMARK    9  A    between atoms: C_15  and  C_17
REMARK                            x       y       z     vdW  Elec       q    Type
REMARK                         _______ _______ _______ _____ _____    ______ ____
ROOT
ATOM      1  O   UNL     1       5.329   6.504  17.611  0.00  0.00    +0.000 OA
ENDROOT
BRANCH   1   2
ATOM      2  C   UNL     1       6.642   6.443  17.256  0.00  0.00    +0.000 C 
ATOM      3  O   UNL     1       7.355   7.415  17.034  0.00  0.00    +0.000 OA
BRANCH   2   4
ATOM      4  C   UNL     1       7.078   5.002  17.037  0.00  0.00    +0.000 C 
BRANCH   4   5
ATOM      5  N   UNL     1       6.500   4.446  15.829  0.00  0.00    +0.000 N 
ATOM      6  C   UNL     1       7.026   4.719  14.584  0.00  0.00    +0.000 C 
ATOM      7  O   UNL     1       7.989   5.463  14.428  0.00  0.00    +0.000 OA
ATOM      8  H   UNL     1       5.778   3.737  15.891  0.00  0.00    +0.000 HD
BRANCH   6   9
ATOM      9  C   UNL     1       6.344   4.060  13.489  0.00  0.00    +0.000 A 
ATOM     10  C   UNL     1       4.996   3.871  13.245  0.00  0.00    +0.000 A 
ATOM     11  C   UNL     1       4.897   3.138  12.039  0.00  0.00    +0.000 A 
ATOM     12  C   UNL     1       6.187   2.923  11.616  0.00  0.00    +0.000 A 
ATOM     13  O   UNL     1       7.074   3.481  12.482  0.00  0.00    +0.000 OA
ENDBRANCH   6   9
ENDBRANCH   4   5
ENDBRANCH   2   4
ENDBRANCH   1   2
BRANCH   1  14
ATOM     14  C   UNL     1       4.545   7.454  16.882  0.00  0.00    +0.000 C 
BRANCH  14  15
ATOM     15  C   UNL     1       3.164   7.631  17.505  0.00  0.00    +0.000 C 
ATOM     16  O   UNL     1       2.512   8.667  17.357  0.00  0.00    +0.000 OA
BRANCH  15  20
ATOM     17  C   UNL     1       1.664   4.505  20.076  0.00  0.00    +0.000 A 
ATOM     18  C   UNL     1       1.967   5.776  20.574  0.00  0.00    +0.000 A 
ATOM     19  C   UNL     1       2.433   6.777  19.721  0.00  0.00    +0.000 A 
ATOM     20  C   UNL     1       2.605   6.530  18.351  0.00  0.00    +0.000 A 
ATOM     21  C   UNL     1       2.273   5.269  17.844  0.00  0.00    +0.000 A 
ATOM     22  C   UNL     1       1.802   4.266  18.701  0.00  0.00    +0.000 A 
BRANCH  17  24
ATOM     23  C   UNL     1       2.054   2.167  20.926  0.00  0.00    +0.000 C 
ATOM     24  C   UNL     1       1.192   3.416  21.008  0.00  0.00    +0.000 C 
ENDBRANCH  17  24
ENDBRANCH  15  20
ENDBRANCH  14  15
ENDBRANCH   1  14
TORSDOF 8
ENDMDL
MODEL 6
REMARK VINA RESULT:      -7.0      1.913      3.151
REMARK  Name = 
REMARK  9 active torsions:
REMARK  status: ('A' for Active; 'I' for Inactive)
REMARK    1  A    between atoms: C_1  and  C_2
REMARK    2  A    between atoms: C_2  and  C_3
REMARK    3  A    between atoms: C_6  and  C_7
REMARK    4  A    between atoms: C_7  and  C_9
REMARK    5  A    between atoms: C_9  and  O_10
REMARK    6  A    between atoms: O_10  and  C_11
REMARK    7  A    between atoms: C_11  and  C_13
REMARK    8  A    between atoms: C_13  and  N_14
REMARK    9  A    between atoms: C_15  and  C_17
REMARK                            x       y       z     vdW  Elec       q    Type
REMARK                         _______ _______ _______ _____ _____    ______ ____
ROOT
ATOM      1  O   UNL     1       5.384   5.413  19.367  0.00  0.00    +0.000 OA
ENDROOT
BRANCH   1   2
ATOM      2  C   UNL     1       6.265   5.842  18.422  0.00  0.00    +0.000 C 
ATOM      3  O   UNL     1       6.296   6.974  17.953  0.00  0.00    +0.000 OA
BRANCH   2   4
ATOM      4  C   UNL     1       7.125   4.691  17.920  0.00  0.00    +0.000 C 
BRANCH   4   5
ATOM      5  N   UNL     1       7.356   4.779  16.492  0.00  0.00    +0.000 N 
ATOM      6  C   UNL     1       6.476   4.228  15.583  0.00  0.00    +0.000 C 
ATOM      7  O   UNL     1       5.471   3.616  15.930  0.00  0.00    +0.000 OA
ATOM      8  H   UNL     1       8.101   5.364  16.132  0.00  0.00    +0.000 HD
BRANCH   6   9
ATOM      9  C   UNL     1       6.844   4.431  14.196  0.00  0.00    +0.000 A 
ATOM     10  C   UNL     1       6.434   3.782  13.047  0.00  0.00    +0.000 A 
ATOM     11  C   UNL     1       7.136   4.373  11.970  0.00  0.00    +0.000 A 
ATOM     12  C   UNL     1       7.931   5.349  12.523  0.00  0.00    +0.000 A 
ATOM     13  O   UNL     1       7.761   5.399  13.870  0.00  0.00    +0.000 OA
ENDBRANCH   6   9
ENDBRANCH   4   5
ENDBRANCH   2   4
ENDBRANCH   1   2
BRANCH   1  14
ATOM     14  C   UNL     1       4.546   4.323  18.968  0.00  0.00    +0.000 C 
BRANCH  14  15
ATOM     15  C   UNL     1       3.215   4.818  18.415  0.00  0.00    +0.000 C 
ATOM     16  O   UNL     1       2.620   4.217  17.517  0.00  0.00    +0.000 OA
BRANCH  15  20
ATOM     17  C   UNL     1       1.418   8.391  20.038  0.00  0.00    +0.000 A 
ATOM     18  C   UNL     1       1.515   7.217  20.791  0.00  0.00    +0.000 A 
ATOM     19  C   UNL     1       2.116   6.078  20.253  0.00  0.00    +0.000 A 
ATOM     20  C   UNL     1       2.636   6.090  18.950  0.00  0.00    +0.000 A 
ATOM     21  C   UNL     1       2.570   7.272  18.205  0.00  0.00    +0.000 A 
ATOM     22  C   UNL     1       1.968   8.416  18.748  0.00  0.00    +0.000 A 
BRANCH  17  24
ATOM     23  C   UNL     1       0.052   9.321  21.937  0.00  0.00    +0.000 C 
ATOM     24  C   UNL     1       0.738   9.609  20.612  0.00  0.00    +0.000 C 
ENDBRANCH  17  24
ENDBRANCH  15  20
ENDBRANCH  14  15
ENDBRANCH   1  14
TORSDOF 8
ENDMDL
MODEL 7
REMARK VINA RESULT:      -7.0      4.730      6.615
REMARK  Name = 
REMARK  9 active torsions:
REMARK  status: ('A' for Active; 'I' for Inactive)
REMARK    1  A    between atoms: C_1  and  C_2
REMARK    2  A    between atoms: C_2  and  C_3
REMARK    3  A    between atoms: C_6  and  C_7
REMARK    4  A    between atoms: C_7  and  C_9
REMARK    5  A    between atoms: C_9  and  O_10
REMARK    6  A    between atoms: O_10  and  C_11
REMARK    7  A    between atoms: C_11  and  C_13
REMARK    8  A    between atoms: C_13  and  N_14
REMARK    9  A    between atoms: C_15  and  C_17
REMARK                            x       y       z     vdW  Elec       q    Type
REMARK                         _______ _______ _______ _____ _____    ______ ____
ROOT
ATOM      1  O   UNL     1       7.362   6.875  16.799  0.00  0.00    +0.000 OA
ENDROOT
BRANCH   1   2
ATOM      2  C   UNL     1       7.860   7.503  17.900  0.00  0.00    +0.000 C 
ATOM      3  O   UNL     1       8.301   6.935  18.893  0.00  0.00    +0.000 OA
BRANCH   2   4
ATOM      4  C   UNL     1       7.672   9.009  17.797  0.00  0.00    +0.000 C 
BRANCH   4   5
ATOM      5  N   UNL     1       8.845   9.727  18.255  0.00  0.00    +0.000 N 
ATOM      6  C   UNL     1       8.991  11.083  18.044  0.00  0.00    +0.000 C 
ATOM      7  O   UNL     1       8.156  11.746  17.438  0.00  0.00    +0.000 OA
ATOM      8  H   UNL     1       9.518   9.269  18.859  0.00  0.00    +0.000 HD
BRANCH   6   9
ATOM      9  C   UNL     1      10.209  11.645  18.591  0.00  0.00    +0.000 A 
ATOM     10  C   UNL     1      10.965  11.272  19.687  0.00  0.00    +0.000 A 
ATOM     11  C   UNL     1      12.039  12.189  19.774  0.00  0.00    +0.000 A 
ATOM     12  C   UNL     1      11.878  13.066  18.728  0.00  0.00    +0.000 A 
ATOM     13  O   UNL     1      10.776  12.746  18.000  0.00  0.00    +0.000 OA
ENDBRANCH   6   9
ENDBRANCH   4   5
ENDBRANCH   2   4
ENDBRANCH   1   2
BRANCH   1  14
ATOM     14  C   UNL     1       5.958   6.602  16.836  0.00  0.00    +0.000 C 
BRANCH  14  15
ATOM     15  C   UNL     1       5.685   5.127  17.108  0.00  0.00    +0.000 C 
ATOM     16  O   UNL     1       6.419   4.238  16.671  0.00  0.00    +0.000 OA
BRANCH  15  20
ATOM     17  C   UNL     1       2.237   3.868  19.380  0.00  0.00    +0.000 A 
ATOM     18  C   UNL     1       3.521   3.403  19.684  0.00  0.00    +0.000 A 
ATOM     19  C   UNL     1       4.624   3.837  18.948  0.00  0.00    +0.000 A 
ATOM     20  C   UNL     1       4.467   4.748  17.893  0.00  0.00    +0.000 A 
ATOM     21  C   UNL     1       3.190   5.240  17.606  0.00  0.00    +0.000 A 
ATOM     22  C   UNL     1       2.084   4.805  18.348  0.00  0.00    +0.000 A 
BRANCH  17  24
ATOM     23  C   UNL     1       1.436   2.744  21.486  0.00  0.00    +0.000 C 
ATOM     24  C   UNL     1       1.044   3.369  20.158  0.00  0.00    +0.000 C 
ENDBRANCH  17  24
ENDBRANCH  15  20
ENDBRANCH  14  15
ENDBRANCH   1  14
TORSDOF 8
ENDMDL
MODEL 8
REMARK VINA RESULT:      -6.9      2.771      5.620
REMARK  Name = 
REMARK  9 active torsions:
REMARK  status: ('A' for Active; 'I' for Inactive)
REMARK    1  A    between atoms: C_1  and  C_2
REMARK    2  A    between atoms: C_2  and  C_3
REMARK    3  A    between atoms: C_6  and  C_7
REMARK    4  A    between atoms: C_7  and  C_9
REMARK    5  A    between atoms: C_9  and  O_10
REMARK    6  A    between atoms: O_10  and  C_11
REMARK    7  A    between atoms: C_11  and  C_13
REMARK    8  A    between atoms: C_13  and  N_14
REMARK    9  A    between atoms: C_15  and  C_17
REMARK                            x       y       z     vdW  Elec       q    Type
REMARK                         _______ _______ _______ _____ _____    ______ ____
ROOT
ATOM      1  O   UNL     1       4.957   6.306  17.800  0.00  0.00    +0.000 OA
ENDROOT
BRANCH   1   2
ATOM      2  C   UNL     1       5.263   5.659  16.642  0.00  0.00    +0.000 C 
ATOM      3  O   UNL     1       5.513   6.209  15.576  0.00  0.00    +0.000 OA
BRANCH   2   4
ATOM      4  C   UNL     1       5.121   4.153  16.808  0.00  0.00    +0.000 C 
BRANCH   4   5
ATOM      5  N   UNL     1       4.042   3.814  17.715  0.00  0.00    +0.000 N 
ATOM      6  C   UNL     1       4.281   3.505  19.038  0.00  0.00    +0.000 C 
ATOM      7  O   UNL     1       5.412   3.475  19.511  0.00  0.00    +0.000 OA
ATOM      8  H   UNL     1       3.078   3.929  17.424  0.00  0.00    +0.000 HD
BRANCH   6   9
ATOM      9  C   UNL     1       3.088   3.217  19.809  0.00  0.00    +0.000 A 
ATOM     10  C   UNL     1       1.751   3.414  19.515  0.00  0.00    +0.000 A 
ATOM     11  C   UNL     1       1.017   2.974  20.641  0.00  0.00    +0.000 A 
ATOM     12  C   UNL     1       1.944   2.533  21.555  0.00  0.00    +0.000 A 
ATOM     13  O   UNL     1       3.204   2.670  21.062  0.00  0.00    +0.000 OA
ENDBRANCH   6   9
ENDBRANCH   4   5
ENDBRANCH   2   4
ENDBRANCH   1   2
BRANCH   1  14
ATOM     14  C   UNL     1       4.055   7.407  17.663  0.00  0.00    +0.000 C 
BRANCH  14  15
ATOM     15  C   UNL     1       2.649   7.036  18.120  0.00  0.00    +0.000 C 
ATOM     16  O   UNL     1       2.055   6.055  17.667  0.00  0.00    +0.000 OA
BRANCH  15  20
ATOM     17  C   UNL     1       0.729   9.704  20.919  0.00  0.00    +0.000 A 
ATOM     18  C   UNL     1       0.854  10.034  19.565  0.00  0.00    +0.000 A 
ATOM     19  C   UNL     1       1.462   9.148  18.674  0.00  0.00    +0.000 A 
ATOM     20  C   UNL     1       1.957   7.912  19.118  0.00  0.00    +0.000 A 
ATOM     21  C   UNL     1       1.806   7.565  20.464  0.00  0.00    +0.000 A 
ATOM     22  C   UNL     1       1.192   8.455  21.357  0.00  0.00    +0.000 A 
BRANCH  17  24
ATOM     23  C   UNL     1      -0.539   9.987  23.076  0.00  0.00    +0.000 C 
ATOM     24  C   UNL     1       0.102  10.679  21.884  0.00  0.00    +0.000 C 
ENDBRANCH  17  24
ENDBRANCH  15  20
ENDBRANCH  14  15
ENDBRANCH   1  14
TORSDOF 8
ENDMDL
MODEL 9
REMARK VINA RESULT:      -6.9      2.628      5.145
REMARK  Name = 
REMARK  9 active torsions:
REMARK  status: ('A' for Active; 'I' for Inactive)
REMARK    1  A    between atoms: C_1  and  C_2
REMARK    2  A    between atoms: C_2  and  C_3
REMARK    3  A    between atoms: C_6  and  C_7
REMARK    4  A    between atoms: C_7  and  C_9
REMARK    5  A    between atoms: C_9  and  O_10
REMARK    6  A    between atoms: O_10  and  C_11
REMARK    7  A    between atoms: C_11  and  C_13
REMARK    8  A    between atoms: C_13  and  N_14
REMARK    9  A    between atoms: C_15  and  C_17
REMARK                            x       y       z     vdW  Elec       q    Type
REMARK                         _______ _______ _______ _____ _____    ______ ____
ROOT
ATOM      1  O   UNL     1       5.294   6.488  17.552  0.00  0.00    +0.000 OA
ENDROOT
BRANCH   1   2
ATOM      2  C   UNL     1       5.702   5.776  16.466  0.00  0.00    +0.000 C 
ATOM      3  O   UNL     1       5.788   6.221  15.326  0.00  0.00    +0.000 OA
BRANCH   2   4
ATOM      4  C   UNL     1       5.907   4.311  16.822  0.00  0.00    +0.000 C 
BRANCH   4   5
ATOM      5  N   UNL     1       4.727   3.740  17.441  0.00  0.00    +0.000 N 
ATOM      6  C   UNL     1       4.678   3.471  18.793  0.00  0.00    +0.000 C 
ATOM      7  O   UNL     1       5.632   3.674  19.537  0.00  0.00    +0.000 OA
ATOM      8  H   UNL     1       3.867   3.653  16.912  0.00  0.00    +0.000 HD
BRANCH   6   9
ATOM      9  C   UNL     1       3.415   2.928  19.249  0.00  0.00    +0.000 A 
ATOM     10  C   UNL     1       2.581   1.979  18.687  0.00  0.00    +0.000 A 
ATOM     11  C   UNL     1       1.466   1.852  19.548  0.00  0.00    +0.000 A 
ATOM     12  C   UNL     1       1.683   2.726  20.586  0.00  0.00    +0.000 A 
ATOM     13  O   UNL     1       2.862   3.382  20.421  0.00  0.00    +0.000 OA
ENDBRANCH   6   9
ENDBRANCH   4   5
ENDBRANCH   2   4
ENDBRANCH   1   2
BRANCH   1  14
ATOM     14  C   UNL     1       4.192   7.372  17.322  0.00  0.00    +0.000 C 
BRANCH  14  15
ATOM     15  C   UNL     1       2.916   6.852  17.974  0.00  0.00    +0.000 C 
ATOM     16  O   UNL     1       2.474   5.726  17.733  0.00  0.00    +0.000 OA
BRANCH  15  20
ATOM     17  C   UNL     1       0.649   9.300  20.713  0.00  0.00    +0.000 A 
ATOM     18  C   UNL     1       1.188   8.071  21.108  0.00  0.00    +0.000 A 
ATOM     19  C   UNL     1       1.933   7.305  20.211  0.00  0.00    +0.000 A 
ATOM     20  C   UNL     1       2.158   7.751  18.900  0.00  0.00    +0.000 A 
ATOM     21  C   UNL     1       1.648   8.994  18.511  0.00  0.00    +0.000 A 
ATOM     22  C   UNL     1       0.902   9.764  19.414  0.00  0.00    +0.000 A 
BRANCH  17  24
ATOM     23  C   UNL     1      -0.042   9.630  23.112  0.00  0.00    +0.000 C 
ATOM     24  C   UNL     1      -0.183  10.110  21.676  0.00  0.00    +0.000 C 
ENDBRANCH  17  24
ENDBRANCH  15  20
ENDBRANCH  14  15
ENDBRANCH   1  14
TORSDOF 8
ENDMDL
