MODEL 1
REMARK VINA RESULT:      -7.3      0.000      0.000
REMARK  Name = 
REMARK  8 active torsions:
REMARK  status: ('A' for Active; 'I' for Inactive)
REMARK    1  A    between atoms: C_1  and  O_2
REMARK    2  A    between atoms: O_2  and  C_3
REMARK    3  A    between atoms: C_3  and  C_5
REMARK    4  A    between atoms: C_8  and  O_9
REMARK    5  A    between atoms: O_9  and  C_10
REMARK    6  A    between atoms: C_10  and  C_11
REMARK    7  A    between atoms: C_18  and  C_19
REMARK    8  A    between atoms: C_19  and  O_20
REMARK                            x       y       z     vdW  Elec       q    Type
REMARK                         _______ _______ _______ _____ _____    ______ ____
ROOT
ATOM      1  C   UNL     1       4.259   3.628  18.853  0.00  0.00    +0.000 C 
ATOM      2  C   UNL     1       5.242   4.321  19.444  0.00  0.00    +0.000 C 
ATOM      3  O   UNL     1       5.783   5.489  18.964  0.00  0.00    +0.000 OA
ATOM      4  C   UNL     1       5.566   5.696  17.551  0.00  0.00    +0.000 C 
ATOM      5  C   UNL     1       4.081   5.529  17.178  0.00  0.00    +0.000 C 
ATOM      6  C   UNL     1       3.081   6.478  17.796  0.00  0.00    +0.000 C 
ATOM      7  C   UNL     1       1.964   5.824  18.141  0.00  0.00    +0.000 C 
ATOM      8  C   UNL     1       2.056   4.360  17.835  0.00  0.00    +0.000 C 
ATOM      9  C   UNL     1       3.564   4.135  17.608  0.00  0.00    +0.000 C 
ENDROOT
BRANCH   1  10
ATOM     10  C   UNL     1       3.829   2.304  19.370  0.00  0.00    +0.000 C 
ATOM     11  O   UNL     1       3.599   1.354  18.638  0.00  0.00    +0.000 OA
BRANCH  10  13
ATOM     12  C   UNL     1       2.385   2.727  21.155  0.00  0.00    +0.000 C 
ATOM     13  O   UNL     1       3.681   2.321  20.717  0.00  0.00    +0.000 OA
ENDBRANCH  10  13
ENDBRANCH   1  10
BRANCH   4  14
ATOM     14  O   UNL     1       6.399   4.787  16.817  0.00  0.00    +0.000 OA
BRANCH  14  15
ATOM     15  C   UNL     1       7.149   5.410  15.781  0.00  0.00    +0.000 C 
BRANCH  15  16
ATOM     16  C   UNL     1       6.878   4.755  14.454  0.00  0.00    +0.000 A 
ATOM     17  C   UNL     1       5.777   3.908  14.263  0.00  0.00    +0.000 A 
ATOM     18  C   UNL     1       5.501   3.378  13.004  0.00  0.00    +0.000 A 
ATOM     19  C   UNL     1       6.315   3.701  11.919  0.00  0.00    +0.000 A 
ATOM     20  C   UNL     1       7.404   4.555  12.096  0.00  0.00    +0.000 A 
ATOM     21  C   UNL     1       7.686   5.081  13.356  0.00  0.00    +0.000 A 
ENDBRANCH  15  16
ENDBRANCH  14  15
ENDBRANCH   4  14
BRANCH   6  22
ATOM     22  C   UNL     1       3.313   7.948  17.843  0.00  0.00    +0.000 C 
BRANCH  22  23
ATOM     23  O   UNL     1       2.168   8.630  17.365  0.00  0.00    +0.000 OA
ATOM     24  H   UNL     1       1.917   9.287  18.040  0.00  0.00    +0.000 HD
ENDBRANCH  22  23
ENDBRANCH   6  22
TORSDOF 7
ENDMDL
MODEL 2
REMARK VINA RESULT:      -7.1      2.363      6.435
REMARK  Name = 
REMARK  8 active torsions:
REMARK  status: ('A' for Active; 'I' for Inactive)
REMARK    1  A    between atoms: C_1  and  O_2
REMARK    2  A    between atoms: O_2  and  C_3
REMARK    3  A    between atoms: C_3  and  C_5
REMARK    4  A    between atoms: C_8  and  O_9
REMARK    5  A    between atoms: O_9  and  C_10
REMARK    6  A    between atoms: C_10  and  C_11
REMARK    7  A    between atoms: C_18  and  C_19
REMARK    8  A    between atoms: C_19  and  O_20
REMARK                            x       y       z     vdW  Elec       q    Type
REMARK                         _______ _______ _______ _____ _____    ______ ____
ROOT
ATOM      1  C   UNL     1       6.284   5.841  17.967  0.00  0.00    +0.000 C 
ATOM      2  C   UNL     1       6.407   5.282  19.180  0.00  0.00    +0.000 C 
ATOM      3  O   UNL     1       5.411   4.608  19.842  0.00  0.00    +0.000 OA
ATOM      4  C   UNL     1       4.081   4.924  19.377  0.00  0.00    +0.000 C 
ATOM      5  C   UNL     1       3.973   4.794  17.846  0.00  0.00    +0.000 C 
ATOM      6  C   UNL     1       4.211   3.436  17.229  0.00  0.00    +0.000 C 
ATOM      7  C   UNL     1       4.921   3.551  16.098  0.00  0.00    +0.000 C 
ATOM      8  C   UNL     1       5.279   4.977  15.807  0.00  0.00    +0.000 C 
ATOM      9  C   UNL     1       5.022   5.693  17.147  0.00  0.00    +0.000 C 
ENDROOT
BRANCH   1  10
ATOM     10  C   UNL     1       7.369   6.670  17.385  0.00  0.00    +0.000 C 
ATOM     11  O   UNL     1       7.716   6.576  16.217  0.00  0.00    +0.000 OA
BRANCH  10  13
ATOM     12  C   UNL     1       8.078   8.833  17.903  0.00  0.00    +0.000 C 
ATOM     13  O   UNL     1       7.934   7.475  18.317  0.00  0.00    +0.000 OA
ENDBRANCH  10  13
ENDBRANCH   1  10
BRANCH   4  14
ATOM     14  O   UNL     1       3.739   6.247  19.818  0.00  0.00    +0.000 OA
BRANCH  14  15
ATOM     15  C   UNL     1       2.346   6.429  20.046  0.00  0.00    +0.000 C 
BRANCH  15  16
ATOM     16  C   UNL     1       1.893   7.774  19.548  0.00  0.00    +0.000 A 
ATOM     17  C   UNL     1       1.206   8.673  20.378  0.00  0.00    +0.000 A 
ATOM     18  C   UNL     1       0.869   9.944  19.919  0.00  0.00    +0.000 A 
ATOM     19  C   UNL     1       1.227  10.338  18.630  0.00  0.00    +0.000 A 
ATOM     20  C   UNL     1       1.924   9.456  17.802  0.00  0.00    +0.000 A 
ATOM     21  C   UNL     1       2.256   8.181  18.256  0.00  0.00    +0.000 A 
ENDBRANCH  15  16
ENDBRANCH  14  15
ENDBRANCH   4  14
BRANCH   6  22
ATOM     22  C   UNL     1       3.585   2.200  17.775  0.00  0.00    +0.000 C 
BRANCH  22  23
ATOM     23  O   UNL     1       4.369   1.694  18.839  0.00  0.00    +0.000 OA
ATOM     24  H   UNL     1       4.494   0.741  18.682  0.00  0.00    +0.000 HD
ENDBRANCH  22  23
ENDBRANCH   6  22
TORSDOF 7
ENDMDL
MODEL 3
REMARK VINA RESULT:      -7.0      0.429      1.095
REMARK  Name = 
REMARK  8 active torsions:
REMARK  status: ('A' for Active; 'I' for Inactive)
REMARK    1  A    between atoms: C_1  and  O_2
REMARK    2  A    between atoms: O_2  and  C_3
REMARK    3  A    between atoms: C_3  and  C_5
REMARK    4  A    between atoms: C_8  and  O_9
REMARK    5  A    between atoms: O_9  and  C_10
REMARK    6  A    between atoms: C_10  and  C_11
REMARK    7  A    between atoms: C_18  and  C_19
REMARK    8  A    between atoms: C_19  and  O_20
REMARK                            x       y       z     vdW  Elec       q    Type
REMARK                         _______ _______ _______ _____ _____    ______ ____
ROOT
ATOM      1  C   UNL     1       3.927   3.440  18.698  0.00  0.00    +0.000 C 
ATOM      2  C   UNL     1       4.918   4.020  19.391  0.00  0.00    +0.000 C 
ATOM      3  O   UNL     1       5.557   5.181  19.031  0.00  0.00    +0.000 OA
ATOM      4  C   UNL     1       5.431   5.509  17.630  0.00  0.00    +0.000 C 
ATOM      5  C   UNL     1       3.961   5.470  17.172  0.00  0.00    +0.000 C 
ATOM      6  C   UNL     1       2.991   6.434  17.812  0.00  0.00    +0.000 C 
ATOM      7  C   UNL     1       1.817   5.833  18.050  0.00  0.00    +0.000 C 
ATOM      8  C   UNL     1       1.834   4.393  17.634  0.00  0.00    +0.000 C 
ATOM      9  C   UNL     1       3.335   4.085  17.465  0.00  0.00    +0.000 C 
ENDROOT
BRANCH   1  10
ATOM     10  C   UNL     1       3.387   2.113  19.087  0.00  0.00    +0.000 C 
ATOM     11  O   UNL     1       3.866   1.063  18.687  0.00  0.00    +0.000 OA
BRANCH  10  13
ATOM     12  C   UNL     1       2.586   2.610  21.223  0.00  0.00    +0.000 C 
ATOM     13  O   UNL     1       2.293   2.235  19.877  0.00  0.00    +0.000 OA
ENDBRANCH  10  13
ENDBRANCH   1  10
BRANCH   4  14
ATOM     14  O   UNL     1       6.243   4.603  16.868  0.00  0.00    +0.000 OA
BRANCH  14  15
ATOM     15  C   UNL     1       7.119   5.254  15.955  0.00  0.00    +0.000 C 
BRANCH  15  16
ATOM     16  C   UNL     1       6.853   4.802  14.544  0.00  0.00    +0.000 A 
ATOM     17  C   UNL     1       7.704   5.155  13.486  0.00  0.00    +0.000 A 
ATOM     18  C   UNL     1       7.483   4.659  12.203  0.00  0.00    +0.000 A 
ATOM     19  C   UNL     1       6.416   3.792  11.966  0.00  0.00    +0.000 A 
ATOM     20  C   UNL     1       5.573   3.423  13.016  0.00  0.00    +0.000 A 
ATOM     21  C   UNL     1       5.788   3.924  14.298  0.00  0.00    +0.000 A 
ENDBRANCH  15  16
ENDBRANCH  14  15
ENDBRANCH   4  14
BRANCH   6  22
ATOM     22  C   UNL     1       3.311   7.878  17.987  0.00  0.00    +0.000 C 
BRANCH  22  23
ATOM     23  O   UNL     1       2.317   8.670  17.364  0.00  0.00    +0.000 OA
ATOM     24  H   UNL     1       2.179   9.457  17.922  0.00  0.00    +0.000 HD
ENDBRANCH  22  23
ENDBRANCH   6  22
TORSDOF 7
ENDMDL
MODEL 4
REMARK VINA RESULT:      -6.9      2.390      6.613
REMARK  Name = 
REMARK  8 active torsions:
REMARK  status: ('A' for Active; 'I' for Inactive)
REMARK    1  A    between atoms: C_1  and  O_2
REMARK    2  A    between atoms: O_2  and  C_3
REMARK    3  A    between atoms: C_3  and  C_5
REMARK    4  A    between atoms: C_8  and  O_9
REMARK    5  A    between atoms: O_9  and  C_10
REMARK    6  A    between atoms: C_10  and  C_11
REMARK    7  A    between atoms: C_18  and  C_19
REMARK    8  A    between atoms: C_19  and  O_20
REMARK                            x       y       z     vdW  Elec       q    Type
REMARK                         _______ _______ _______ _____ _____    ______ ____
ROOT
ATOM      1  C   UNL     1       4.445   4.633  17.840  0.00  0.00    +0.000 C 
ATOM      2  C   UNL     1       4.614   5.476  18.869  0.00  0.00    +0.000 C 
ATOM      3  O   UNL     1       3.616   5.905  19.709  0.00  0.00    +0.000 OA
ATOM      4  C   UNL     1       2.288   5.773  19.155  0.00  0.00    +0.000 C 
ATOM      5  C   UNL     1       2.042   4.352  18.613  0.00  0.00    +0.000 C 
ATOM      6  C   UNL     1       2.096   3.200  19.588  0.00  0.00    +0.000 C 
ATOM      7  C   UNL     1       2.717   2.148  19.039  0.00  0.00    +0.000 C 
ATOM      8  C   UNL     1       3.187   2.441  17.646  0.00  0.00    +0.000 C 
ATOM      9  C   UNL     1       3.111   3.978  17.558  0.00  0.00    +0.000 C 
ENDROOT
BRANCH   1  10
ATOM     10  C   UNL     1       5.554   4.329  16.901  0.00  0.00    +0.000 C 
ATOM     11  O   UNL     1       6.701   4.139  17.274  0.00  0.00    +0.000 OA
BRANCH  10  13
ATOM     12  C   UNL     1       6.098   3.868  14.677  0.00  0.00    +0.000 C 
ATOM     13  O   UNL     1       5.132   4.349  15.613  0.00  0.00    +0.000 OA
ENDBRANCH  10  13
ENDBRANCH   1  10
BRANCH   4  14
ATOM     14  O   UNL     1       2.113   6.764  18.131  0.00  0.00    +0.000 OA
BRANCH  14  15
ATOM     15  C   UNL     1       2.576   8.056  18.504  0.00  0.00    +0.000 C 
BRANCH  15  16
ATOM     16  C   UNL     1       1.428   8.941  18.907  0.00  0.00    +0.000 A 
ATOM     17  C   UNL     1       0.630   9.591  17.955  0.00  0.00    +0.000 A 
ATOM     18  C   UNL     1      -0.476  10.341  18.350  0.00  0.00    +0.000 A 
ATOM     19  C   UNL     1      -0.806  10.437  19.702  0.00  0.00    +0.000 A 
ATOM     20  C   UNL     1      -0.026   9.781  20.656  0.00  0.00    +0.000 A 
ATOM     21  C   UNL     1       1.085   9.037  20.264  0.00  0.00    +0.000 A 
ENDBRANCH  15  16
ENDBRANCH  14  15
ENDBRANCH   4  14
BRANCH   6  22
ATOM     22  C   UNL     1       1.401   3.246  20.904  0.00  0.00    +0.000 C 
BRANCH  22  23
ATOM     23  O   UNL     1       2.330   3.016  21.947  0.00  0.00    +0.000 OA
ATOM     24  H   UNL     1       2.610   3.886  22.286  0.00  0.00    +0.000 HD
ENDBRANCH  22  23
ENDBRANCH   6  22
TORSDOF 7
ENDMDL
MODEL 5
REMARK VINA RESULT:      -6.9      2.342      6.508
REMARK  Name = 
REMARK  8 active torsions:
REMARK  status: ('A' for Active; 'I' for Inactive)
REMARK    1  A    between atoms: C_1  and  O_2
REMARK    2  A    between atoms: O_2  and  C_3
REMARK    3  A    between atoms: C_3  and  C_5
REMARK    4  A    between atoms: C_8  and  O_9
REMARK    5  A    between atoms: O_9  and  C_10
REMARK    6  A    between atoms: C_10  and  C_11
REMARK    7  A    between atoms: C_18  and  C_19
REMARK    8  A    between atoms: C_19  and  O_20
REMARK                            x       y       z     vdW  Elec       q    Type
REMARK                         _______ _______ _______ _____ _____    ______ ____
ROOT
ATOM      1  C   UNL     1       4.685   4.583  18.167  0.00  0.00    +0.000 C 
ATOM      2  C   UNL     1       4.671   5.465  19.176  0.00  0.00    +0.000 C 
ATOM      3  O   UNL     1       3.547   5.875  19.850  0.00  0.00    +0.000 OA
ATOM      4  C   UNL     1       2.319   5.666  19.119  0.00  0.00    +0.000 C 
ATOM      5  C   UNL     1       2.210   4.219  18.602  0.00  0.00    +0.000 C 
ATOM      6  C   UNL     1       2.170   3.102  19.618  0.00  0.00    +0.000 C 
ATOM      7  C   UNL     1       2.906   2.062  19.202  0.00  0.00    +0.000 C 
ATOM      8  C   UNL     1       3.557   2.332  17.880  0.00  0.00    +0.000 C 
ATOM      9  C   UNL     1       3.433   3.861  17.723  0.00  0.00    +0.000 C 
ENDROOT
BRANCH   1  10
ATOM     10  C   UNL     1       5.928   4.301  17.406  0.00  0.00    +0.000 C 
ATOM     11  O   UNL     1       7.028   4.248  17.935  0.00  0.00    +0.000 OA
BRANCH  10  13
ATOM     12  C   UNL     1       5.772   5.392  15.347  0.00  0.00    +0.000 C 
ATOM     13  O   UNL     1       5.680   4.170  16.080  0.00  0.00    +0.000 OA
ENDBRANCH  10  13
ENDBRANCH   1  10
BRANCH   4  14
ATOM     14  O   UNL     1       2.252   6.615  18.044  0.00  0.00    +0.000 OA
BRANCH  14  15
ATOM     15  C   UNL     1       2.660   7.926  18.415  0.00  0.00    +0.000 C 
BRANCH  15  16
ATOM     16  C   UNL     1       1.489   8.735  18.901  0.00  0.00    +0.000 A 
ATOM     17  C   UNL     1       1.178   8.834  20.266  0.00  0.00    +0.000 A 
ATOM     18  C   UNL     1       0.138   9.654  20.698  0.00  0.00    +0.000 A 
ATOM     19  C   UNL     1      -0.594  10.397  19.772  0.00  0.00    +0.000 A 
ATOM     20  C   UNL     1      -0.283  10.317  18.413  0.00  0.00    +0.000 A 
ATOM     21  C   UNL     1       0.753   9.492  17.978  0.00  0.00    +0.000 A 
ENDBRANCH  15  16
ENDBRANCH  14  15
ENDBRANCH   4  14
BRANCH   6  22
ATOM     22  C   UNL     1       1.293   3.158  20.820  0.00  0.00    +0.000 C 
BRANCH  22  23
ATOM     23  O   UNL     1       2.080   3.073  21.993  0.00  0.00    +0.000 OA
ATOM     24  H   UNL     1       1.669   3.650  22.662  0.00  0.00    +0.000 HD
ENDBRANCH  22  23
ENDBRANCH   6  22
TORSDOF 7
ENDMDL
MODEL 6
REMARK VINA RESULT:      -6.8      2.214      6.451
REMARK  Name = 
REMARK  8 active torsions:
REMARK  status: ('A' for Active; 'I' for Inactive)
REMARK    1  A    between atoms: C_1  and  O_2
REMARK    2  A    between atoms: O_2  and  C_3
REMARK    3  A    between atoms: C_3  and  C_5
REMARK    4  A    between atoms: C_8  and  O_9
REMARK    5  A    between atoms: O_9  and  C_10
REMARK    6  A    between atoms: C_10  and  C_11
REMARK    7  A    between atoms: C_18  and  C_19
REMARK    8  A    between atoms: C_19  and  O_20
REMARK                            x       y       z     vdW  Elec       q    Type
REMARK                         _______ _______ _______ _____ _____    ______ ____
ROOT
ATOM      1  C   UNL     1       6.406   6.121  17.869  0.00  0.00    +0.000 C 
ATOM      2  C   UNL     1       6.408   5.602  19.106  0.00  0.00    +0.000 C 
ATOM      3  O   UNL     1       5.372   4.899  19.667  0.00  0.00    +0.000 OA
ATOM      4  C   UNL     1       4.093   5.138  19.038  0.00  0.00    +0.000 C 
ATOM      5  C   UNL     1       4.175   4.960  17.510  0.00  0.00    +0.000 C 
ATOM      6  C   UNL     1       4.546   3.599  16.971  0.00  0.00    +0.000 C 
ATOM      7  C   UNL     1       5.380   3.717  15.929  0.00  0.00    +0.000 C 
ATOM      8  C   UNL     1       5.706   5.150  15.635  0.00  0.00    +0.000 C 
ATOM      9  C   UNL     1       5.259   5.890  16.911  0.00  0.00    +0.000 C 
ENDROOT
BRANCH   1  10
ATOM     10  C   UNL     1       7.515   6.985  17.392  0.00  0.00    +0.000 C 
ATOM     11  O   UNL     1       7.927   6.954  16.242  0.00  0.00    +0.000 OA
BRANCH  10  13
ATOM     12  C   UNL     1       8.239   9.108  18.040  0.00  0.00    +0.000 C 
ATOM     13  O   UNL     1       8.021   7.742  18.395  0.00  0.00    +0.000 OA
ENDBRANCH  10  13
ENDBRANCH   1  10
BRANCH   4  14
ATOM     14  O   UNL     1       3.642   6.453  19.392  0.00  0.00    +0.000 OA
BRANCH  14  15
ATOM     15  C   UNL     1       2.358   6.470  20.003  0.00  0.00    +0.000 C 
BRANCH  15  16
ATOM     16  C   UNL     1       1.896   5.073  20.319  0.00  0.00    +0.000 A 
ATOM     17  C   UNL     1       1.130   4.328  19.411  0.00  0.00    +0.000 A 
ATOM     18  C   UNL     1       0.783   3.009  19.692  0.00  0.00    +0.000 A 
ATOM     19  C   UNL     1       1.211   2.413  20.878  0.00  0.00    +0.000 A 
ATOM     20  C   UNL     1       1.987   3.142  21.782  0.00  0.00    +0.000 A 
ATOM     21  C   UNL     1       2.329   4.464  21.506  0.00  0.00    +0.000 A 
ENDBRANCH  15  16
ENDBRANCH  14  15
ENDBRANCH   4  14
BRANCH   6  22
ATOM     22  C   UNL     1       3.916   2.350  17.479  0.00  0.00    +0.000 C 
BRANCH  22  23
ATOM     23  O   UNL     1       4.469   2.009  18.737  0.00  0.00    +0.000 OA
ATOM     24  H   UNL     1       5.043   2.746  19.013  0.00  0.00    +0.000 HD
ENDBRANCH  22  23
ENDBRANCH   6  22
TORSDOF 7
ENDMDL
MODEL 7
REMARK VINA RESULT:      -6.7      2.580      6.721
REMARK  Name = 
REMARK  8 active torsions:
REMARK  status: ('A' for Active; 'I' for Inactive)
REMARK    1  A    between atoms: C_1  and  O_2
REMARK    2  A    between atoms: O_2  and  C_3
REMARK    3  A    between atoms: C_3  and  C_5
REMARK    4  A    between atoms: C_8  and  O_9
REMARK    5  A    between atoms: O_9  and  C_10
REMARK    6  A    between atoms: C_10  and  C_11
REMARK    7  A    between atoms: C_18  and  C_19
REMARK    8  A    between atoms: C_19  and  O_20
REMARK                            x       y       z     vdW  Elec       q    Type
REMARK                         _______ _______ _______ _____ _____    ______ ____
ROOT
ATOM      1  C   UNL     1       4.332   5.033  17.649  0.00  0.00    +0.000 C 
ATOM      2  C   UNL     1       4.913   5.283  18.831  0.00  0.00    +0.000 C 
ATOM      3  O   UNL     1       4.261   5.314  20.039  0.00  0.00    +0.000 OA
ATOM      4  C   UNL     1       2.836   5.525  19.930  0.00  0.00    +0.000 C 
ATOM      5  C   UNL     1       2.196   4.541  18.932  0.00  0.00    +0.000 C 
ATOM      6  C   UNL     1       2.278   3.064  19.238  0.00  0.00    +0.000 C 
ATOM      7  C   UNL     1       2.528   2.365  18.123  0.00  0.00    +0.000 C 
ATOM      8  C   UNL     1       2.675   3.257  16.927  0.00  0.00    +0.000 C 
ATOM      9  C   UNL     1       2.871   4.656  17.544  0.00  0.00    +0.000 C 
ENDROOT
BRANCH   1  10
ATOM     10  C   UNL     1       5.088   5.154  16.376  0.00  0.00    +0.000 C 
ATOM     11  O   UNL     1       5.060   6.162  15.686  0.00  0.00    +0.000 OA
BRANCH  10  13
ATOM     12  C   UNL     1       6.439   4.041  14.831  0.00  0.00    +0.000 C 
ATOM     13  O   UNL     1       5.743   4.006  16.077  0.00  0.00    +0.000 OA
ENDBRANCH  10  13
ENDBRANCH   1  10
BRANCH   4  14
ATOM     14  O   UNL     1       2.597   6.888  19.550  0.00  0.00    +0.000 OA
BRANCH  14  15
ATOM     15  C   UNL     1       1.903   7.641  20.538  0.00  0.00    +0.000 C 
BRANCH  15  16
ATOM     16  C   UNL     1       1.158   8.788  19.911  0.00  0.00    +0.000 A 
ATOM     17  C   UNL     1       1.333   9.130  18.562  0.00  0.00    +0.000 A 
ATOM     18  C   UNL     1       0.572  10.144  17.984  0.00  0.00    +0.000 A 
ATOM     19  C   UNL     1      -0.384  10.818  18.744  0.00  0.00    +0.000 A 
ATOM     20  C   UNL     1      -0.576  10.474  20.084  0.00  0.00    +0.000 A 
ATOM     21  C   UNL     1       0.189   9.465  20.666  0.00  0.00    +0.000 A 
ENDBRANCH  15  16
ENDBRANCH  14  15
ENDBRANCH   4  14
BRANCH   6  22
ATOM     22  C   UNL     1       1.962   2.519  20.587  0.00  0.00    +0.000 C 
BRANCH  22  23
ATOM     23  O   UNL     1       0.668   2.935  20.984  0.00  0.00    +0.000 OA
ATOM     24  H   UNL     1       0.221   3.289  20.194  0.00  0.00    +0.000 HD
ENDBRANCH  22  23
ENDBRANCH   6  22
TORSDOF 7
ENDMDL
MODEL 8
REMARK VINA RESULT:      -6.7      2.443      6.612
REMARK  Name = 
REMARK  8 active torsions:
REMARK  status: ('A' for Active; 'I' for Inactive)
REMARK    1  A    between atoms: C_1  and  O_2
REMARK    2  A    between atoms: O_2  and  C_3
REMARK    3  A    between atoms: C_3  and  C_5
REMARK    4  A    between atoms: C_8  and  O_9
REMARK    5  A    between atoms: O_9  and  C_10
REMARK    6  A    between atoms: C_10  and  C_11
REMARK    7  A    between atoms: C_18  and  C_19
REMARK    8  A    between atoms: C_19  and  O_20
REMARK                            x       y       z     vdW  Elec       q    Type
REMARK                         _______ _______ _______ _____ _____    ______ ____
ROOT
ATOM      1  C   UNL     1       5.744   5.265  18.069  0.00  0.00    +0.000 C 
ATOM      2  C   UNL     1       5.392   5.392  19.357  0.00  0.00    +0.000 C 
ATOM      3  O   UNL     1       4.102   5.508  19.814  0.00  0.00    +0.000 OA
ATOM      4  C   UNL     1       3.164   5.953  18.810  0.00  0.00    +0.000 C 
ATOM      5  C   UNL     1       3.268   5.108  17.526  0.00  0.00    +0.000 C 
ATOM      6  C   UNL     1       2.959   3.633  17.619  0.00  0.00    +0.000 C 
ATOM      7  C   UNL     1       3.822   2.924  16.878  0.00  0.00    +0.000 C 
ATOM      8  C   UNL     1       4.836   3.802  16.210  0.00  0.00    +0.000 C 
ATOM      9  C   UNL     1       4.713   5.137  16.971  0.00  0.00    +0.000 C 
ENDROOT
BRANCH   1  10
ATOM     10  C   UNL     1       7.169   5.284  17.653  0.00  0.00    +0.000 C 
ATOM     11  O   UNL     1       7.988   4.477  18.066  0.00  0.00    +0.000 OA
BRANCH  10  13
ATOM     12  C   UNL     1       7.618   7.569  17.490  0.00  0.00    +0.000 C 
ATOM     13  O   UNL     1       7.430   6.322  16.822  0.00  0.00    +0.000 OA
ENDBRANCH  10  13
ENDBRANCH   1  10
BRANCH   4  14
ATOM     14  O   UNL     1       3.395   7.344  18.544  0.00  0.00    +0.000 OA
BRANCH  14  15
ATOM     15  C   UNL     1       2.305   7.990  17.897  0.00  0.00    +0.000 C 
BRANCH  15  16
ATOM     16  C   UNL     1       1.571   8.890  18.854  0.00  0.00    +0.000 A 
ATOM     17  C   UNL     1       0.938  10.064  18.421  0.00  0.00    +0.000 A 
ATOM     18  C   UNL     1       0.196  10.838  19.311  0.00  0.00    +0.000 A 
ATOM     19  C   UNL     1       0.066  10.439  20.641  0.00  0.00    +0.000 A 
ATOM     20  C   UNL     1       0.680   9.264  21.078  0.00  0.00    +0.000 A 
ATOM     21  C   UNL     1       1.428   8.492  20.191  0.00  0.00    +0.000 A 
ENDBRANCH  15  16
ENDBRANCH  14  15
ENDBRANCH   4  14
BRANCH   6  22
ATOM     22  C   UNL     1       1.755   3.121  18.330  0.00  0.00    +0.000 C 
BRANCH  22  23
ATOM     23  O   UNL     1       2.054   2.924  19.700  0.00  0.00    +0.000 OA
ATOM     24  H   UNL     1       2.870   3.419  19.895  0.00  0.00    +0.000 HD
ENDBRANCH  22  23
ENDBRANCH   6  22
TORSDOF 7
ENDMDL
MODEL 9
REMARK VINA RESULT:      -6.7      2.739      6.952
REMARK  Name = 
REMARK  8 active torsions:
REMARK  status: ('A' for Active; 'I' for Inactive)
REMARK    1  A    between atoms: C_1  and  O_2
REMARK    2  A    between atoms: O_2  and  C_3
REMARK    3  A    between atoms: C_3  and  C_5
REMARK    4  A    between atoms: C_8  and  O_9
REMARK    5  A    between atoms: O_9  and  C_10
REMARK    6  A    between atoms: C_10  and  C_11
REMARK    7  A    between atoms: C_18  and  C_19
REMARK    8  A    between atoms: C_19  and  O_20
REMARK                            x       y       z     vdW  Elec       q    Type
REMARK                         _______ _______ _______ _____ _____    ______ ____
ROOT
ATOM      1  C   UNL     1       4.025   4.501  17.967  0.00  0.00    +0.000 C 
ATOM      2  C   UNL     1       4.370   5.203  19.056  0.00  0.00    +0.000 C 
ATOM      3  O   UNL     1       3.516   5.548  20.075  0.00  0.00    +0.000 OA
ATOM      4  C   UNL     1       2.121   5.521  19.703  0.00  0.00    +0.000 C 
ATOM      5  C   UNL     1       1.741   4.187  19.033  0.00  0.00    +0.000 C 
ATOM      6  C   UNL     1       1.879   2.920  19.843  0.00  0.00    +0.000 C 
ATOM      7  C   UNL     1       2.373   1.930  19.087  0.00  0.00    +0.000 C 
ATOM      8  C   UNL     1       2.658   2.385  17.688  0.00  0.00    +0.000 C 
ATOM      9  C   UNL     1       2.638   3.922  17.799  0.00  0.00    +0.000 C 
ENDROOT
BRANCH   1  10
ATOM     10  C   UNL     1       4.980   4.291  16.850  0.00  0.00    +0.000 C 
ATOM     11  O   UNL     1       4.617   4.121  15.695  0.00  0.00    +0.000 OA
BRANCH  10  13
ATOM     12  C   UNL     1       7.226   4.614  16.300  0.00  0.00    +0.000 C 
ATOM     13  O   UNL     1       6.261   4.260  17.291  0.00  0.00    +0.000 OA
ENDBRANCH  10  13
ENDBRANCH   1  10
BRANCH   4  14
ATOM     14  O   UNL     1       1.849   6.638  18.843  0.00  0.00    +0.000 OA
BRANCH  14  15
ATOM     15  C   UNL     1       2.381   7.868  19.321  0.00  0.00    +0.000 C 
BRANCH  15  16
ATOM     16  C   UNL     1       1.351   8.623  20.117  0.00  0.00    +0.000 A 
ATOM     17  C   UNL     1       1.166   8.392  21.488  0.00  0.00    +0.000 A 
ATOM     18  C   UNL     1       0.264   9.160  22.220  0.00  0.00    +0.000 A 
ATOM     19  C   UNL     1      -0.454  10.178  21.594  0.00  0.00    +0.000 A 
ATOM     20  C   UNL     1      -0.265  10.426  20.233  0.00  0.00    +0.000 A 
ATOM     21  C   UNL     1       0.632   9.654  19.497  0.00  0.00    +0.000 A 
ENDBRANCH  15  16
ENDBRANCH  14  15
ENDBRANCH   4  14
BRANCH   6  22
ATOM     22  C   UNL     1       1.374   2.816  21.240  0.00  0.00    +0.000 C 
BRANCH  22  23
ATOM     23  O   UNL     1       2.457   2.888  22.149  0.00  0.00    +0.000 OA
ATOM     24  H   UNL     1       3.048   2.137  21.958  0.00  0.00    +0.000 HD
ENDBRANCH  22  23
ENDBRANCH   6  22
TORSDOF 7
ENDMDL
