MODEL 1
REMARK VINA RESULT:      -7.6      0.000      0.000
REMARK  Name = 
REMARK  5 active torsions:
REMARK  status: ('A' for Active; 'I' for Inactive)
REMARK    1  A    between atoms: C_2  and  C_3
REMARK    2  A    between atoms: C_4  and  N_5
REMARK    3  A    between atoms: N_5  and  C_6
REMARK    4  A    between atoms: C_6  and  N_8
REMARK    5  A    between atoms: C_9  and  C_11
REMARK                            x       y       z     vdW  Elec       q    Type
REMARK                         _______ _______ _______ _____ _____    ______ ____
ROOT
ATOM      1  N   UNL     1       6.286   5.990  18.625  0.00  0.00    +0.000 N 
ATOM      2  H   UNL     1       6.887   5.746  19.415  0.00  0.00    +0.000 HD
ENDROOT
BRANCH   1   4
ATOM      3  C   UNL     1       3.724   5.772  18.441  0.00  0.00    +0.000 A 
ATOM      4  C   UNL     1       5.038   5.414  18.700  0.00  0.00    +0.000 A 
ATOM      5  S   UNL     1       5.170   3.736  19.150  0.00  0.00    +0.000 S 
ATOM      6  C   UNL     1       3.522   3.526  18.993  0.00  0.00    +0.000 A 
ATOM      7  C   UNL     1       2.868   4.658  18.608  0.00  0.00    +0.000 A 
ATOM      8  C   UNL     1       1.418   4.408  18.417  0.00  0.00    +0.000 C 
ATOM      9  C   UNL     1       1.230   3.044  19.141  0.00  0.00    +0.000 C 
ATOM     10  C   UNL     1       2.632   2.349  19.147  0.00  0.00    +0.000 C 
BRANCH   3  12
ATOM     11  N   UNL     1       2.733   8.031  17.675  0.00  0.00    +0.000 NA
ATOM     12  C   UNL     1       3.215   7.013  17.959  0.00  0.00    +0.000 C 
ENDBRANCH   3  12
ENDBRANCH   1   4
BRANCH   1  13
ATOM     13  C   UNL     1       6.898   6.712  17.633  0.00  0.00    +0.000 C 
ATOM     14  S   UNL     1       7.865   8.064  17.755  0.00  0.00    +0.000 S 
BRANCH  13  15
ATOM     15  N   UNL     1       6.731   6.198  16.355  0.00  0.00    +0.000 N 
ATOM     16  C   UNL     1       7.209   4.992  15.870  0.00  0.00    +0.000 C 
ATOM     17  O   UNL     1       7.828   4.184  16.568  0.00  0.00    +0.000 OA
ATOM     18  H   UNL     1       6.264   6.836  15.723  0.00  0.00    +0.000 HD
BRANCH  16  19
ATOM     19  C   UNL     1       7.040   4.715  14.421  0.00  0.00    +0.000 A 
ATOM     20  C   UNL     1       6.029   3.805  14.077  0.00  0.00    +0.000 A 
ATOM     21  C   UNL     1       5.837   3.426  12.753  0.00  0.00    +0.000 A 
ATOM     22  C   UNL     1       6.643   3.968  11.756  0.00  0.00    +0.000 A 
ATOM     23  C   UNL     1       7.626   4.906  12.082  0.00  0.00    +0.000 A 
ATOM     24  C   UNL     1       7.829   5.285  13.415  0.00  0.00    +0.000 A 
ENDBRANCH  16  19
ENDBRANCH  13  15
ENDBRANCH   1  13
TORSDOF 5
ENDMDL
MODEL 2
REMARK VINA RESULT:      -7.6      0.373      1.095
REMARK  Name = 
REMARK  5 active torsions:
REMARK  status: ('A' for Active; 'I' for Inactive)
REMARK    1  A    between atoms: C_2  and  C_3
REMARK    2  A    between atoms: C_4  and  N_5
REMARK    3  A    between atoms: N_5  and  C_6
REMARK    4  A    between atoms: C_6  and  N_8
REMARK    5  A    between atoms: C_9  and  C_11
REMARK                            x       y       z     vdW  Elec       q    Type
REMARK                         _______ _______ _______ _____ _____    ______ ____
ROOT
ATOM      1  N   UNL     1       5.882   6.221  18.601  0.00  0.00    +0.000 N 
ATOM      2  H   UNL     1       6.310   6.252  19.529  0.00  0.00    +0.000 HD
ENDROOT
BRANCH   1   4
ATOM      3  C   UNL     1       3.364   5.728  18.357  0.00  0.00    +0.000 A 
ATOM      4  C   UNL     1       4.714   5.494  18.570  0.00  0.00    +0.000 A 
ATOM      5  S   UNL     1       5.051   3.795  18.750  0.00  0.00    +0.000 S 
ATOM      6  C   UNL     1       3.439   3.415  18.543  0.00  0.00    +0.000 A 
ATOM      7  C   UNL     1       2.650   4.507  18.335  0.00  0.00    +0.000 A 
ATOM      8  C   UNL     1       1.239   4.117  18.092  0.00  0.00    +0.000 C 
ATOM      9  C   UNL     1       1.224   2.643  18.588  0.00  0.00    +0.000 C 
ATOM     10  C   UNL     1       2.699   2.130  18.499  0.00  0.00    +0.000 C 
BRANCH   3  12
ATOM     11  N   UNL     1       2.273   7.994  17.771  0.00  0.00    +0.000 NA
ATOM     12  C   UNL     1       2.705   6.960  18.072  0.00  0.00    +0.000 C 
ENDBRANCH   3  12
ENDBRANCH   1   4
BRANCH   1  13
ATOM     13  C   UNL     1       6.628   6.790  17.601  0.00  0.00    +0.000 C 
ATOM     14  S   UNL     1       7.705   8.059  17.680  0.00  0.00    +0.000 S 
BRANCH  13  15
ATOM     15  N   UNL     1       6.505   6.174  16.364  0.00  0.00    +0.000 N 
ATOM     16  C   UNL     1       7.151   5.026  15.936  0.00  0.00    +0.000 C 
ATOM     17  O   UNL     1       7.909   4.371  16.656  0.00  0.00    +0.000 OA
ATOM     18  H   UNL     1       5.927   6.689  15.713  0.00  0.00    +0.000 HD
BRANCH  16  19
ATOM     19  C   UNL     1       6.985   4.631  14.513  0.00  0.00    +0.000 A 
ATOM     20  C   UNL     1       7.819   5.277  13.589  0.00  0.00    +0.000 A 
ATOM     21  C   UNL     1       7.693   5.028  12.226  0.00  0.00    +0.000 A 
ATOM     22  C   UNL     1       6.743   4.115  11.776  0.00  0.00    +0.000 A 
ATOM     23  C   UNL     1       5.935   3.436  12.691  0.00  0.00    +0.000 A 
ATOM     24  C   UNL     1       6.053   3.689  14.063  0.00  0.00    +0.000 A 
ENDBRANCH  16  19
ENDBRANCH  13  15
ENDBRANCH   1  13
TORSDOF 5
ENDMDL
MODEL 3
REMARK VINA RESULT:      -7.4      1.345      1.711
REMARK  Name = 
REMARK  5 active torsions:
REMARK  status: ('A' for Active; 'I' for Inactive)
REMARK    1  A    between atoms: C_2  and  C_3
REMARK    2  A    between atoms: C_4  and  N_5
REMARK    3  A    between atoms: N_5  and  C_6
REMARK    4  A    between atoms: C_6  and  N_8
REMARK    5  A    between atoms: C_9  and  C_11
REMARK                            x       y       z     vdW  Elec       q    Type
REMARK                         _______ _______ _______ _____ _____    ______ ____
ROOT
ATOM      1  N   UNL     1       6.247   4.097  18.658  0.00  0.00    +0.000 N 
ATOM      2  H   UNL     1       6.756   3.236  18.868  0.00  0.00    +0.000 HD
ENDROOT
BRANCH   1   4
ATOM      3  C   UNL     1       3.817   4.880  19.016  0.00  0.00    +0.000 A 
ATOM      4  C   UNL     1       4.934   4.060  19.070  0.00  0.00    +0.000 A 
ATOM      5  S   UNL     1       4.557   2.505  19.759  0.00  0.00    +0.000 S 
ATOM      6  C   UNL     1       2.960   2.941  19.963  0.00  0.00    +0.000 A 
ATOM      7  C   UNL     1       2.685   4.204  19.530  0.00  0.00    +0.000 A 
ATOM      8  C   UNL     1       1.243   4.523  19.670  0.00  0.00    +0.000 C 
ATOM      9  C   UNL     1       0.759   3.402  20.634  0.00  0.00    +0.000 C 
ATOM     10  C   UNL     1       1.772   2.220  20.483  0.00  0.00    +0.000 C 
BRANCH   3  12
ATOM     11  N   UNL     1       3.476   7.247  18.043  0.00  0.00    +0.000 NA
ATOM     12  C   UNL     1       3.688   6.178  18.442  0.00  0.00    +0.000 C 
ENDBRANCH   3  12
ENDBRANCH   1   4
BRANCH   1  13
ATOM     13  C   UNL     1       6.942   5.015  17.914  0.00  0.00    +0.000 C 
ATOM     14  S   UNL     1       7.728   6.398  18.409  0.00  0.00    +0.000 S 
BRANCH  13  15
ATOM     15  N   UNL     1       7.052   4.704  16.566  0.00  0.00    +0.000 N 
ATOM     16  C   UNL     1       6.408   5.328  15.510  0.00  0.00    +0.000 C 
ATOM     17  O   UNL     1       5.665   6.302  15.655  0.00  0.00    +0.000 OA
ATOM     18  H   UNL     1       7.618   3.885  16.386  0.00  0.00    +0.000 HD
BRANCH  16  19
ATOM     19  C   UNL     1       6.557   4.728  14.159  0.00  0.00    +0.000 A 
ATOM     20  C   UNL     1       7.581   5.252  13.357  0.00  0.00    +0.000 A 
ATOM     21  C   UNL     1       7.758   4.806  12.052  0.00  0.00    +0.000 A 
ATOM     22  C   UNL     1       6.922   3.817  11.541  0.00  0.00    +0.000 A 
ATOM     23  C   UNL     1       5.924   3.260  12.344  0.00  0.00    +0.000 A 
ATOM     24  C   UNL     1       5.737   3.710  13.657  0.00  0.00    +0.000 A 
ENDBRANCH  16  19
ENDBRANCH  13  15
ENDBRANCH   1  13
TORSDOF 5
ENDMDL
MODEL 4
REMARK VINA RESULT:      -7.4      1.508      1.838
REMARK  Name = 
REMARK  5 active torsions:
REMARK  status: ('A' for Active; 'I' for Inactive)
REMARK    1  A    between atoms: C_2  and  C_3
REMARK    2  A    between atoms: C_4  and  N_5
REMARK    3  A    between atoms: N_5  and  C_6
REMARK    4  A    between atoms: C_6  and  N_8
REMARK    5  A    between atoms: C_9  and  C_11
REMARK                            x       y       z     vdW  Elec       q    Type
REMARK                         _______ _______ _______ _____ _____    ______ ____
ROOT
ATOM      1  N   UNL     1       5.233   6.087  18.285  0.00  0.00    +0.000 N 
ATOM      2  H   UNL     1       5.002   7.055  18.054  0.00  0.00    +0.000 HD
ENDROOT
BRANCH   1   4
ATOM      3  C   UNL     1       3.013   5.760  19.554  0.00  0.00    +0.000 A 
ATOM      4  C   UNL     1       4.224   5.438  18.960  0.00  0.00    +0.000 A 
ATOM      5  S   UNL     1       4.510   3.720  18.976  0.00  0.00    +0.000 S 
ATOM      6  C   UNL     1       3.057   3.447  19.748  0.00  0.00    +0.000 A 
ATOM      7  C   UNL     1       2.353   4.589  19.992  0.00  0.00    +0.000 A 
ATOM      8  C   UNL     1       1.041   4.292  20.620  0.00  0.00    +0.000 C 
ATOM      9  C   UNL     1       1.235   2.822  21.089  0.00  0.00    +0.000 C 
ATOM     10  C   UNL     1       2.359   2.213  20.187  0.00  0.00    +0.000 C 
BRANCH   3  12
ATOM     11  N   UNL     1       1.862   8.071  19.607  0.00  0.00    +0.000 NA
ATOM     12  C   UNL     1       2.378   7.033  19.654  0.00  0.00    +0.000 C 
ENDBRANCH   3  12
ENDBRANCH   1   4
BRANCH   1  13
ATOM     13  C   UNL     1       6.519   5.712  17.990  0.00  0.00    +0.000 C 
ATOM     14  S   UNL     1       7.863   5.689  18.974  0.00  0.00    +0.000 S 
BRANCH  13  15
ATOM     15  N   UNL     1       6.701   5.229  16.702  0.00  0.00    +0.000 N 
ATOM     16  C   UNL     1       6.108   5.700  15.542  0.00  0.00    +0.000 C 
ATOM     17  O   UNL     1       5.353   6.675  15.520  0.00  0.00    +0.000 OA
ATOM     18  H   UNL     1       7.280   4.400  16.661  0.00  0.00    +0.000 HD
BRANCH  16  19
ATOM     19  C   UNL     1       6.331   4.930  14.291  0.00  0.00    +0.000 A 
ATOM     20  C   UNL     1       7.469   5.272  13.546  0.00  0.00    +0.000 A 
ATOM     21  C   UNL     1       7.729   4.657  12.326  0.00  0.00    +0.000 A 
ATOM     22  C   UNL     1       6.861   3.681  11.847  0.00  0.00    +0.000 A 
ATOM     23  C   UNL     1       5.746   3.304  12.599  0.00  0.00    +0.000 A 
ATOM     24  C   UNL     1       5.476   3.924  13.825  0.00  0.00    +0.000 A 
ENDBRANCH  16  19
ENDBRANCH  13  15
ENDBRANCH   1  13
TORSDOF 5
ENDMDL
MODEL 5
REMARK VINA RESULT:      -7.3      1.659      1.760
REMARK  Name = 
REMARK  5 active torsions:
REMARK  status: ('A' for Active; 'I' for Inactive)
REMARK    1  A    between atoms: C_2  and  C_3
REMARK    2  A    between atoms: C_4  and  N_5
REMARK    3  A    between atoms: N_5  and  C_6
REMARK    4  A    between atoms: C_6  and  N_8
REMARK    5  A    between atoms: C_9  and  C_11
REMARK                            x       y       z     vdW  Elec       q    Type
REMARK                         _______ _______ _______ _____ _____    ______ ____
ROOT
ATOM      1  N   UNL     1       5.982   3.724  18.502  0.00  0.00    +0.000 N 
ATOM      2  H   UNL     1       6.248   2.792  18.175  0.00  0.00    +0.000 HD
ENDROOT
BRANCH   1   4
ATOM      3  C   UNL     1       3.695   4.552  19.356  0.00  0.00    +0.000 A 
ATOM      4  C   UNL     1       4.802   3.730  19.211  0.00  0.00    +0.000 A 
ATOM      5  S   UNL     1       4.612   2.237  20.088  0.00  0.00    +0.000 S 
ATOM      6  C   UNL     1       3.102   2.700  20.625  0.00  0.00    +0.000 A 
ATOM      7  C   UNL     1       2.721   3.928  20.170  0.00  0.00    +0.000 A 
ATOM      8  C   UNL     1       1.348   4.270  20.618  0.00  0.00    +0.000 C 
ATOM      9  C   UNL     1       1.114   3.231  21.752  0.00  0.00    +0.000 C 
ATOM     10  C   UNL     1       2.075   2.032  21.462  0.00  0.00    +0.000 C 
BRANCH   3  12
ATOM     11  N   UNL     1       3.299   6.869  18.286  0.00  0.00    +0.000 NA
ATOM     12  C   UNL     1       3.423   5.803  18.728  0.00  0.00    +0.000 C 
ENDBRANCH   3  12
ENDBRANCH   1   4
BRANCH   1  13
ATOM     13  C   UNL     1       6.781   4.744  18.054  0.00  0.00    +0.000 C 
ATOM     14  S   UNL     1       7.618   5.890  18.927  0.00  0.00    +0.000 S 
BRANCH  13  15
ATOM     15  N   UNL     1       6.959   4.779  16.679  0.00  0.00    +0.000 N 
ATOM     16  C   UNL     1       5.988   4.605  15.706  0.00  0.00    +0.000 C 
ATOM     17  O   UNL     1       4.795   4.435  15.970  0.00  0.00    +0.000 OA
ATOM     18  H   UNL     1       7.927   4.875  16.400  0.00  0.00    +0.000 HD
BRANCH  16  19
ATOM     19  C   UNL     1       6.433   4.531  14.291  0.00  0.00    +0.000 A 
ATOM     20  C   UNL     1       5.762   3.607  13.477  0.00  0.00    +0.000 A 
ATOM     21  C   UNL     1       6.151   3.413  12.156  0.00  0.00    +0.000 A 
ATOM     22  C   UNL     1       7.205   4.154  11.631  0.00  0.00    +0.000 A 
ATOM     23  C   UNL     1       7.854   5.106  12.420  0.00  0.00    +0.000 A 
ATOM     24  C   UNL     1       7.472   5.300  13.753  0.00  0.00    +0.000 A 
ENDBRANCH  16  19
ENDBRANCH  13  15
ENDBRANCH   1  13
TORSDOF 5
ENDMDL
MODEL 6
REMARK VINA RESULT:      -7.3      1.911      2.729
REMARK  Name = 
REMARK  5 active torsions:
REMARK  status: ('A' for Active; 'I' for Inactive)
REMARK    1  A    between atoms: C_2  and  C_3
REMARK    2  A    between atoms: C_4  and  N_5
REMARK    3  A    between atoms: N_5  and  C_6
REMARK    4  A    between atoms: C_6  and  N_8
REMARK    5  A    between atoms: C_9  and  C_11
REMARK                            x       y       z     vdW  Elec       q    Type
REMARK                         _______ _______ _______ _____ _____    ______ ____
ROOT
ATOM      1  N   UNL     1       6.440   4.012  18.608  0.00  0.00    +0.000 N 
ATOM      2  H   UNL     1       7.114   3.378  19.042  0.00  0.00    +0.000 HD
ENDROOT
BRANCH   1   4
ATOM      3  C   UNL     1       4.427   2.769  19.632  0.00  0.00    +0.000 A 
ATOM      4  C   UNL     1       5.133   3.621  18.798  0.00  0.00    +0.000 A 
ATOM      5  S   UNL     1       4.070   4.534  17.763  0.00  0.00    +0.000 S 
ATOM      6  C   UNL     1       2.729   3.800  18.430  0.00  0.00    +0.000 A 
ATOM      7  C   UNL     1       3.037   2.899  19.407  0.00  0.00    +0.000 A 
ATOM      8  C   UNL     1       1.813   2.321  20.016  0.00  0.00    +0.000 C 
ATOM      9  C   UNL     1       0.723   2.710  18.976  0.00  0.00    +0.000 C 
ATOM     10  C   UNL     1       1.271   3.956  18.205  0.00  0.00    +0.000 C 
BRANCH   3  12
ATOM     11  N   UNL     1       5.305   1.156  21.448  0.00  0.00    +0.000 NA
ATOM     12  C   UNL     1       4.918   1.934  20.678  0.00  0.00    +0.000 C 
ENDBRANCH   3  12
ENDBRANCH   1   4
BRANCH   1  13
ATOM     13  C   UNL     1       6.991   5.009  17.844  0.00  0.00    +0.000 C 
ATOM     14  S   UNL     1       7.623   6.476  18.320  0.00  0.00    +0.000 S 
BRANCH  13  15
ATOM     15  N   UNL     1       7.085   4.718  16.491  0.00  0.00    +0.000 N 
ATOM     16  C   UNL     1       6.510   5.419  15.444  0.00  0.00    +0.000 C 
ATOM     17  O   UNL     1       5.857   6.453  15.604  0.00  0.00    +0.000 OA
ATOM     18  H   UNL     1       7.576   3.854  16.299  0.00  0.00    +0.000 HD
BRANCH  16  19
ATOM     19  C   UNL     1       6.617   4.836  14.082  0.00  0.00    +0.000 A 
ATOM     20  C   UNL     1       5.655   3.874  13.742  0.00  0.00    +0.000 A 
ATOM     21  C   UNL     1       5.710   3.219  12.516  0.00  0.00    +0.000 A 
ATOM     22  C   UNL     1       6.719   3.532  11.611  0.00  0.00    +0.000 A 
ATOM     23  C   UNL     1       7.660   4.517  11.923  0.00  0.00    +0.000 A 
ATOM     24  C   UNL     1       7.613   5.175  13.158  0.00  0.00    +0.000 A 
ENDBRANCH  16  19
ENDBRANCH  13  15
ENDBRANCH   1  13
TORSDOF 5
ENDMDL
MODEL 7
REMARK VINA RESULT:      -7.3      1.852      2.888
REMARK  Name = 
REMARK  5 active torsions:
REMARK  status: ('A' for Active; 'I' for Inactive)
REMARK    1  A    between atoms: C_2  and  C_3
REMARK    2  A    between atoms: C_4  and  N_5
REMARK    3  A    between atoms: N_5  and  C_6
REMARK    4  A    between atoms: C_6  and  N_8
REMARK    5  A    between atoms: C_9  and  C_11
REMARK                            x       y       z     vdW  Elec       q    Type
REMARK                         _______ _______ _______ _____ _____    ______ ____
ROOT
ATOM      1  N   UNL     1       6.402   4.245  18.757  0.00  0.00    +0.000 N 
ATOM      2  H   UNL     1       7.076   3.727  19.324  0.00  0.00    +0.000 HD
ENDROOT
BRANCH   1   4
ATOM      3  C   UNL     1       4.439   2.823  19.636  0.00  0.00    +0.000 A 
ATOM      4  C   UNL     1       5.113   3.778  18.890  0.00  0.00    +0.000 A 
ATOM      5  S   UNL     1       4.020   4.725  17.920  0.00  0.00    +0.000 S 
ATOM      6  C   UNL     1       2.708   3.872  18.498  0.00  0.00    +0.000 A 
ATOM      7  C   UNL     1       3.047   2.906  19.399  0.00  0.00    +0.000 A 
ATOM      8  C   UNL     1       1.846   2.219  19.934  0.00  0.00    +0.000 C 
ATOM      9  C   UNL     1       0.752   2.645  18.913  0.00  0.00    +0.000 C 
ATOM     10  C   UNL     1       1.247   3.978  18.262  0.00  0.00    +0.000 C 
BRANCH   3  12
ATOM     11  N   UNL     1       5.323   1.269  21.499  0.00  0.00    +0.000 NA
ATOM     12  C   UNL     1       4.957   1.925  20.615  0.00  0.00    +0.000 C 
ENDBRANCH   3  12
ENDBRANCH   1   4
BRANCH   1  13
ATOM     13  C   UNL     1       6.949   5.180  17.917  0.00  0.00    +0.000 C 
ATOM     14  S   UNL     1       7.606   6.668  18.278  0.00  0.00    +0.000 S 
BRANCH  13  15
ATOM     15  N   UNL     1       7.016   4.794  16.586  0.00  0.00    +0.000 N 
ATOM     16  C   UNL     1       6.424   5.424  15.503  0.00  0.00    +0.000 C 
ATOM     17  O   UNL     1       5.780   6.470  15.603  0.00  0.00    +0.000 OA
ATOM     18  H   UNL     1       7.499   3.916  16.445  0.00  0.00    +0.000 HD
BRANCH  16  19
ATOM     19  C   UNL     1       6.502   4.746  14.184  0.00  0.00    +0.000 A 
ATOM     20  C   UNL     1       7.560   5.135  13.348  0.00  0.00    +0.000 A 
ATOM     21  C   UNL     1       7.680   4.610  12.066  0.00  0.00    +0.000 A 
ATOM     22  C   UNL     1       6.752   3.677  11.613  0.00  0.00    +0.000 A 
ATOM     23  C   UNL     1       5.718   3.252  12.451  0.00  0.00    +0.000 A 
ATOM     24  C   UNL     1       5.588   3.783  13.740  0.00  0.00    +0.000 A 
ENDBRANCH  16  19
ENDBRANCH  13  15
ENDBRANCH   1  13
TORSDOF 5
ENDMDL
MODEL 8
REMARK VINA RESULT:      -7.2      3.790      7.820
REMARK  Name = 
REMARK  5 active torsions:
REMARK  status: ('A' for Active; 'I' for Inactive)
REMARK    1  A    between atoms: C_2  and  C_3
REMARK    2  A    between atoms: C_4  and  N_5
REMARK    3  A    between atoms: N_5  and  C_6
REMARK    4  A    between atoms: C_6  and  N_8
REMARK    5  A    between atoms: C_9  and  C_11
REMARK                            x       y       z     vdW  Elec       q    Type
REMARK                         _______ _______ _______ _____ _____    ______ ____
ROOT
ATOM      1  N   UNL     1       3.678   5.564  20.080  0.00  0.00    +0.000 N 
ATOM      2  H   UNL     1       4.170   6.020  20.852  0.00  0.00    +0.000 HD
ENDROOT
BRANCH   1   4
ATOM      3  C   UNL     1       5.836   5.241  18.708  0.00  0.00    +0.000 A 
ATOM      4  C   UNL     1       4.482   5.344  18.984  0.00  0.00    +0.000 A 
ATOM      5  S   UNL     1       3.512   5.002  17.578  0.00  0.00    +0.000 S 
ATOM      6  C   UNL     1       4.875   4.728  16.657  0.00  0.00    +0.000 A 
ATOM      7  C   UNL     1       6.037   4.872  17.356  0.00  0.00    +0.000 A 
ATOM      8  C   UNL     1       7.218   4.555  16.516  0.00  0.00    +0.000 C 
ATOM      9  C   UNL     1       6.611   4.590  15.084  0.00  0.00    +0.000 C 
ATOM     10  C   UNL     1       5.079   4.321  15.245  0.00  0.00    +0.000 C 
BRANCH   3  12
ATOM     11  N   UNL     1       7.913   5.463  20.226  0.00  0.00    +0.000 NA
ATOM     12  C   UNL     1       6.942   5.349  19.602  0.00  0.00    +0.000 C 
ENDBRANCH   3  12
ENDBRANCH   1   4
BRANCH   1  13
ATOM     13  C   UNL     1       2.330   5.401  20.268  0.00  0.00    +0.000 C 
ATOM     14  S   UNL     1       1.406   4.021  20.141  0.00  0.00    +0.000 S 
BRANCH  13  15
ATOM     15  N   UNL     1       1.661   6.544  20.683  0.00  0.00    +0.000 N 
ATOM     16  C   UNL     1       1.703   7.797  20.092  0.00  0.00    +0.000 C 
ATOM     17  O   UNL     1       2.334   8.033  19.060  0.00  0.00    +0.000 OA
ATOM     18  H   UNL     1       1.157   6.423  21.552  0.00  0.00    +0.000 HD
BRANCH  16  19
ATOM     19  C   UNL     1       1.026   8.915  20.798  0.00  0.00    +0.000 A 
ATOM     20  C   UNL     1       0.714   8.698  22.148  0.00  0.00    +0.000 A 
ATOM     21  C   UNL     1       0.019   9.657  22.878  0.00  0.00    +0.000 A 
ATOM     22  C   UNL     1      -0.357  10.850  22.267  0.00  0.00    +0.000 A 
ATOM     23  C   UNL     1      -0.017  11.093  20.935  0.00  0.00    +0.000 A 
ATOM     24  C   UNL     1       0.677  10.129  20.194  0.00  0.00    +0.000 A 
ENDBRANCH  16  19
ENDBRANCH  13  15
ENDBRANCH   1  13
TORSDOF 5
ENDMDL
MODEL 9
REMARK VINA RESULT:      -7.2      3.838      7.907
REMARK  Name = 
REMARK  5 active torsions:
REMARK  status: ('A' for Active; 'I' for Inactive)
REMARK    1  A    between atoms: C_2  and  C_3
REMARK    2  A    between atoms: C_4  and  N_5
REMARK    3  A    between atoms: N_5  and  C_6
REMARK    4  A    between atoms: C_6  and  N_8
REMARK    5  A    between atoms: C_9  and  C_11
REMARK                            x       y       z     vdW  Elec       q    Type
REMARK                         _______ _______ _______ _____ _____    ______ ____
ROOT
ATOM      1  N   UNL     1       3.751   5.745  20.013  0.00  0.00    +0.000 N 
ATOM      2  H   UNL     1       4.188   6.376  20.688  0.00  0.00    +0.000 HD
ENDROOT
BRANCH   1   4
ATOM      3  C   UNL     1       5.909   5.313  18.671  0.00  0.00    +0.000 A 
ATOM      4  C   UNL     1       4.556   5.472  18.930  0.00  0.00    +0.000 A 
ATOM      5  S   UNL     1       3.588   5.137  17.522  0.00  0.00    +0.000 S 
ATOM      6  C   UNL     1       4.950   4.793  16.621  0.00  0.00    +0.000 A 
ATOM      7  C   UNL     1       6.109   4.909  17.330  0.00  0.00    +0.000 A 
ATOM      8  C   UNL     1       7.286   4.531  16.509  0.00  0.00    +0.000 C 
ATOM      9  C   UNL     1       6.695   4.558  15.070  0.00  0.00    +0.000 C 
ATOM     10  C   UNL     1       5.152   4.348  15.220  0.00  0.00    +0.000 C 
BRANCH   3  12
ATOM     11  N   UNL     1       7.976   5.424  20.215  0.00  0.00    +0.000 NA
ATOM     12  C   UNL     1       7.008   5.400  19.575  0.00  0.00    +0.000 C 
ENDBRANCH   3  12
ENDBRANCH   1   4
BRANCH   1  13
ATOM     13  C   UNL     1       2.442   5.431  20.277  0.00  0.00    +0.000 C 
ATOM     14  S   UNL     1       1.676   3.954  20.200  0.00  0.00    +0.000 S 
BRANCH  13  15
ATOM     15  N   UNL     1       1.672   6.492  20.730  0.00  0.00    +0.000 N 
ATOM     16  C   UNL     1       1.606   7.767  20.191  0.00  0.00    +0.000 C 
ATOM     17  O   UNL     1       2.222   8.100  19.176  0.00  0.00    +0.000 OA
ATOM     18  H   UNL     1       1.175   6.291  21.588  0.00  0.00    +0.000 HD
BRANCH  16  19
ATOM     19  C   UNL     1       0.828   8.791  20.934  0.00  0.00    +0.000 A 
ATOM     20  C   UNL     1       0.221   9.790  20.160  0.00  0.00    +0.000 A 
ATOM     21  C   UNL     1      -0.472  10.833  20.766  0.00  0.00    +0.000 A 
ATOM     22  C   UNL     1      -0.579  10.877  22.153  0.00  0.00    +0.000 A 
ATOM     23  C   UNL     1      -0.012   9.865  22.931  0.00  0.00    +0.000 A 
ATOM     24  C   UNL     1       0.692   8.817  22.327  0.00  0.00    +0.000 A 
ENDBRANCH  16  19
ENDBRANCH  13  15
ENDBRANCH   1  13
TORSDOF 5
ENDMDL
