MODEL 1
REMARK VINA RESULT:      -7.4      0.000      0.000
REMARK  Name = 
REMARK  13 active torsions:
REMARK  status: ('A' for Active; 'I' for Inactive)
REMARK    1  A    between atoms: C_1  and  C_2
REMARK    2  A    between atoms: C_2  and  C_3
REMARK    3  A    between atoms: C_2  and  C_4
REMARK    4  A    between atoms: C_4  and  C_5
REMARK    5  A    between atoms: C_5  and  C_6
REMARK    6  A    between atoms: C_5  and  C_11
REMARK    7  A    between atoms: C_6  and  C_7
REMARK    8  A    between atoms: N_9  and  O_10
REMARK    9  A    between atoms: N_13  and  C_14
REMARK   10  A    between atoms: N_19  and  C_20
REMARK   11  A    between atoms: C_20  and  C_21
REMARK   12  A    between atoms: C_21  and  O_22
REMARK   13  A    between atoms: O_22  and  C_23
REMARK                            x       y       z     vdW  Elec       q    Type
REMARK                         _______ _______ _______ _____ _____    ______ ____
ROOT
ATOM      1  C   UNL     1       2.787   6.484  18.658  0.00  0.00    +0.000 C 
ATOM      2  C   UNL     1       1.947   5.370  18.016  0.00  0.00    +0.000 C 
ATOM      3  C   UNL     1       2.095   4.026  18.719  0.00  0.00    +0.000 C 
ATOM      4  C   UNL     1       3.472   3.399  18.540  0.00  0.00    +0.000 C 
ATOM      5  C   UNL     1       4.581   4.231  19.171  0.00  0.00    +0.000 C 
ATOM      6  N   UNL     1       5.022   5.334  18.319  0.00  0.00    +0.000 N 
ATOM      7  C   UNL     1       4.237   6.469  18.104  0.00  0.00    +0.000 C 
ATOM      8  O   UNL     1       4.631   7.455  17.468  0.00  0.00    +0.000 OA
ENDROOT
BRANCH   1  11
ATOM      9  C   UNL     1       1.618   8.588  19.322  0.00  0.00    +0.000 C 
ATOM     10  O   UNL     1       1.618   8.223  20.495  0.00  0.00    +0.000 OA
ATOM     11  N   UNL     1       2.194   7.801  18.347  0.00  0.00    +0.000 N 
ATOM     12  H   UNL     1       2.292   8.119  17.387  0.00  0.00    +0.000 HD
BRANCH   9  13
ATOM     13  C   UNL     1       0.957   9.896  18.848  0.00  0.00    +0.000 C 
BRANCH  13  14
ATOM     14  C   UNL     1      -0.253   9.613  17.908  0.00  0.00    +0.000 C 
BRANCH  14  16
ATOM     15  C   UNL     1      -1.533  11.831  18.183  0.00  0.00    +0.000 C 
ATOM     16  C   UNL     1      -1.609  10.307  18.193  0.00  0.00    +0.000 C 
ATOM     17  C   UNL     1      -2.646   9.835  17.163  0.00  0.00    +0.000 C 
ENDBRANCH  14  16
ENDBRANCH  13  14
BRANCH  13  18
ATOM     18  C   UNL     1       2.039  10.713  18.096  0.00  0.00    +0.000 C 
BRANCH  18  19
ATOM     19  C   UNL     1       2.171  12.179  18.477  0.00  0.00    +0.000 C 
ATOM     20  O   UNL     1       1.923  12.614  19.595  0.00  0.00    +0.000 OA
ATOM     21  N   UNL     1       2.617  12.944  17.411  0.00  0.00    +0.000 N 
ATOM     22  H   UNL     1       3.218  12.519  16.710  0.00  0.00    +0.000 HD
BRANCH  21  23
ATOM     23  O   UNL     1       2.932  14.287  17.716  0.00  0.00    +0.000 OA
ATOM     24  H   UNL     1       3.258  14.618  16.857  0.00  0.00    +0.000 HD
ENDBRANCH  21  23
ENDBRANCH  18  19
ENDBRANCH  13  18
ENDBRANCH   9  13
ENDBRANCH   1  11
BRANCH   6  25
ATOM     25  C   UNL     1       6.396   5.190  17.777  0.00  0.00    +0.000 C 
BRANCH  25  26
ATOM     26  C   UNL     1       6.634   4.154  16.679  0.00  0.00    +0.000 C 
BRANCH  26  27
ATOM     27  O   UNL     1       5.669   4.293  15.632  0.00  0.00    +0.000 OA
BRANCH  27  28
ATOM     28  C   UNL     1       6.236   4.336  14.376  0.00  0.00    +0.000 A 
ATOM     29  C   UNL     1       5.661   3.513  13.410  0.00  0.00    +0.000 A 
ATOM     30  C   UNL     1       6.183   3.482  12.111  0.00  0.00    +0.000 A 
ATOM     31  C   UNL     1       7.266   4.291  11.773  0.00  0.00    +0.000 A 
ATOM     32  C   UNL     1       7.824   5.139  12.727  0.00  0.00    +0.000 A 
ATOM     33  C   UNL     1       7.306   5.162  14.024  0.00  0.00    +0.000 A 
ENDBRANCH  27  28
ENDBRANCH  26  27
ENDBRANCH  25  26
ENDBRANCH   6  25
TORSDOF 11
ENDMDL
MODEL 2
REMARK VINA RESULT:      -7.4      3.014      8.666
REMARK  Name = 
REMARK  13 active torsions:
REMARK  status: ('A' for Active; 'I' for Inactive)
REMARK    1  A    between atoms: C_1  and  C_2
REMARK    2  A    between atoms: C_2  and  C_3
REMARK    3  A    between atoms: C_2  and  C_4
REMARK    4  A    between atoms: C_4  and  C_5
REMARK    5  A    between atoms: C_5  and  C_6
REMARK    6  A    between atoms: C_5  and  C_11
REMARK    7  A    between atoms: C_6  and  C_7
REMARK    8  A    between atoms: N_9  and  O_10
REMARK    9  A    between atoms: N_13  and  C_14
REMARK   10  A    between atoms: N_19  and  C_20
REMARK   11  A    between atoms: C_20  and  C_21
REMARK   12  A    between atoms: C_21  and  O_22
REMARK   13  A    between atoms: O_22  and  C_23
REMARK                            x       y       z     vdW  Elec       q    Type
REMARK                         _______ _______ _______ _____ _____    ______ ____
ROOT
ATOM      1  C   UNL     1       3.449   3.852  17.800  0.00  0.00    +0.000 C 
ATOM      2  C   UNL     1       3.181   2.401  18.227  0.00  0.00    +0.000 C 
ATOM      3  C   UNL     1       1.698   2.086  18.385  0.00  0.00    +0.000 C 
ATOM      4  C   UNL     1       1.055   2.791  19.572  0.00  0.00    +0.000 C 
ATOM      5  C   UNL     1       1.061   4.308  19.426  0.00  0.00    +0.000 C 
ATOM      6  N   UNL     1       2.335   4.913  19.815  0.00  0.00    +0.000 N 
ATOM      7  C   UNL     1       3.486   4.792  19.034  0.00  0.00    +0.000 C 
ATOM      8  O   UNL     1       4.546   5.377  19.293  0.00  0.00    +0.000 OA
ENDROOT
BRANCH   1  11
ATOM      9  C   UNL     1       5.122   5.047  16.383  0.00  0.00    +0.000 C 
ATOM     10  O   UNL     1       4.371   6.015  16.304  0.00  0.00    +0.000 OA
ATOM     11  N   UNL     1       4.758   3.940  17.120  0.00  0.00    +0.000 N 
ATOM     12  H   UNL     1       5.397   3.166  17.280  0.00  0.00    +0.000 HD
BRANCH   9  13
ATOM     13  C   UNL     1       6.477   4.971  15.653  0.00  0.00    +0.000 C 
BRANCH  13  14
ATOM     14  C   UNL     1       6.465   3.876  14.545  0.00  0.00    +0.000 C 
BRANCH  14  16
ATOM     15  C   UNL     1       7.636   4.999  12.544  0.00  0.00    +0.000 C 
ATOM     16  C   UNL     1       6.377   4.306  13.059  0.00  0.00    +0.000 C 
ATOM     17  C   UNL     1       6.075   3.075  12.192  0.00  0.00    +0.000 C 
ENDBRANCH  14  16
ENDBRANCH  13  14
BRANCH  13  18
ATOM     18  C   UNL     1       7.557   4.645  16.716  0.00  0.00    +0.000 C 
BRANCH  18  19
ATOM     19  C   UNL     1       7.640   5.581  17.911  0.00  0.00    +0.000 C 
ATOM     20  O   UNL     1       7.642   6.803  17.816  0.00  0.00    +0.000 OA
ATOM     21  N   UNL     1       7.697   4.880  19.105  0.00  0.00    +0.000 N 
ATOM     22  H   UNL     1       7.247   3.971  19.171  0.00  0.00    +0.000 HD
BRANCH  21  23
ATOM     23  O   UNL     1       7.604   5.665  20.276  0.00  0.00    +0.000 OA
ATOM     24  H   UNL     1       7.794   6.560  19.935  0.00  0.00    +0.000 HD
ENDBRANCH  21  23
ENDBRANCH  18  19
ENDBRANCH  13  18
ENDBRANCH   9  13
ENDBRANCH   1  11
BRANCH   6  25
ATOM     25  C   UNL     1       2.282   5.732  21.051  0.00  0.00    +0.000 C 
BRANCH  25  26
ATOM     26  C   UNL     1       1.131   6.724  21.211  0.00  0.00    +0.000 C 
BRANCH  26  27
ATOM     27  O   UNL     1       1.497   8.013  20.711  0.00  0.00    +0.000 OA
BRANCH  27  28
ATOM     28  C   UNL     1       0.785   9.042  21.289  0.00  0.00    +0.000 A 
ATOM     29  C   UNL     1       0.814  10.265  20.625  0.00  0.00    +0.000 A 
ATOM     30  C   UNL     1       0.130  11.368  21.150  0.00  0.00    +0.000 A 
ATOM     31  C   UNL     1      -0.600  11.241  22.330  0.00  0.00    +0.000 A 
ATOM     32  C   UNL     1      -0.658  10.012  22.982  0.00  0.00    +0.000 A 
ATOM     33  C   UNL     1       0.030   8.915  22.459  0.00  0.00    +0.000 A 
ENDBRANCH  27  28
ENDBRANCH  26  27
ENDBRANCH  25  26
ENDBRANCH   6  25
TORSDOF 11
ENDMDL
MODEL 3
REMARK VINA RESULT:      -7.2      3.307     10.217
REMARK  Name = 
REMARK  13 active torsions:
REMARK  status: ('A' for Active; 'I' for Inactive)
REMARK    1  A    between atoms: C_1  and  C_2
REMARK    2  A    between atoms: C_2  and  C_3
REMARK    3  A    between atoms: C_2  and  C_4
REMARK    4  A    between atoms: C_4  and  C_5
REMARK    5  A    between atoms: C_5  and  C_6
REMARK    6  A    between atoms: C_5  and  C_11
REMARK    7  A    between atoms: C_6  and  C_7
REMARK    8  A    between atoms: N_9  and  O_10
REMARK    9  A    between atoms: N_13  and  C_14
REMARK   10  A    between atoms: N_19  and  C_20
REMARK   11  A    between atoms: C_20  and  C_21
REMARK   12  A    between atoms: C_21  and  O_22
REMARK   13  A    between atoms: O_22  and  C_23
REMARK                            x       y       z     vdW  Elec       q    Type
REMARK                         _______ _______ _______ _____ _____    ______ ____
ROOT
ATOM      1  C   UNL     1       1.841   8.460  19.441  0.00  0.00    +0.000 C 
ATOM      2  C   UNL     1       0.949   9.187  18.424  0.00  0.00    +0.000 C 
ATOM      3  C   UNL     1       1.129  10.700  18.442  0.00  0.00    +0.000 C 
ATOM      4  C   UNL     1       0.603  11.356  19.712  0.00  0.00    +0.000 C 
ATOM      5  C   UNL     1       1.361  10.914  20.957  0.00  0.00    +0.000 C 
ATOM      6  N   UNL     1       0.897   9.630  21.482  0.00  0.00    +0.000 N 
ATOM      7  C   UNL     1       1.168   8.421  20.838  0.00  0.00    +0.000 C 
ATOM      8  O   UNL     1       0.871   7.318  21.314  0.00  0.00    +0.000 OA
ENDROOT
BRANCH   1  11
ATOM      9  C   UNL     1       3.038   6.739  18.083  0.00  0.00    +0.000 C 
ATOM     10  O   UNL     1       3.777   7.607  17.625  0.00  0.00    +0.000 OA
ATOM     11  N   UNL     1       2.065   7.066  19.004  0.00  0.00    +0.000 N 
ATOM     12  H   UNL     1       1.504   6.358  19.468  0.00  0.00    +0.000 HD
BRANCH   9  13
ATOM     13  C   UNL     1       3.105   5.263  17.648  0.00  0.00    +0.000 C 
BRANCH  13  14
ATOM     14  C   UNL     1       1.783   4.510  17.986  0.00  0.00    +0.000 C 
BRANCH  14  16
ATOM     15  C   UNL     1       0.947   3.969  20.361  0.00  0.00    +0.000 C 
ATOM     16  C   UNL     1       1.767   3.501  19.161  0.00  0.00    +0.000 C 
ATOM     17  C   UNL     1       1.231   2.151  18.664  0.00  0.00    +0.000 C 
ENDBRANCH  14  16
ENDBRANCH  13  14
BRANCH  13  18
ATOM     18  C   UNL     1       4.297   4.615  18.399  0.00  0.00    +0.000 C 
BRANCH  18  19
ATOM     19  C   UNL     1       5.579   4.423  17.605  0.00  0.00    +0.000 C 
ATOM     20  O   UNL     1       5.647   4.547  16.387  0.00  0.00    +0.000 OA
ATOM     21  N   UNL     1       6.647   4.108  18.429  0.00  0.00    +0.000 N 
ATOM     22  H   UNL     1       6.659   4.457  19.383  0.00  0.00    +0.000 HD
BRANCH  21  23
ATOM     23  O   UNL     1       7.912   4.079  17.800  0.00  0.00    +0.000 OA
ATOM     24  H   UNL     1       8.494   4.431  18.501  0.00  0.00    +0.000 HD
ENDBRANCH  21  23
ENDBRANCH  18  19
ENDBRANCH  13  18
ENDBRANCH   9  13
ENDBRANCH   1  11
BRANCH   6  25
ATOM     25  C   UNL     1       0.198   9.709  22.788  0.00  0.00    +0.000 C 
BRANCH  25  26
ATOM     26  C   UNL     1      -1.036  10.604  22.894  0.00  0.00    +0.000 C 
BRANCH  26  27
ATOM     27  O   UNL     1      -0.666  11.941  23.243  0.00  0.00    +0.000 OA
BRANCH  27  28
ATOM     28  C   UNL     1      -1.748  12.784  23.379  0.00  0.00    +0.000 A 
ATOM     29  C   UNL     1      -3.003  12.180  23.413  0.00  0.00    +0.000 A 
ATOM     30  C   UNL     1      -4.158  12.963  23.534  0.00  0.00    +0.000 A 
ATOM     31  C   UNL     1      -4.055  14.348  23.641  0.00  0.00    +0.000 A 
ATOM     32  C   UNL     1      -2.802  14.955  23.639  0.00  0.00    +0.000 A 
ATOM     33  C   UNL     1      -1.652  14.172  23.511  0.00  0.00    +0.000 A 
ENDBRANCH  27  28
ENDBRANCH  26  27
ENDBRANCH  25  26
ENDBRANCH   6  25
TORSDOF 11
ENDMDL
MODEL 4
REMARK VINA RESULT:      -7.2      3.651     10.695
REMARK  Name = 
REMARK  13 active torsions:
REMARK  status: ('A' for Active; 'I' for Inactive)
REMARK    1  A    between atoms: C_1  and  C_2
REMARK    2  A    between atoms: C_2  and  C_3
REMARK    3  A    between atoms: C_2  and  C_4
REMARK    4  A    between atoms: C_4  and  C_5
REMARK    5  A    between atoms: C_5  and  C_6
REMARK    6  A    between atoms: C_5  and  C_11
REMARK    7  A    between atoms: C_6  and  C_7
REMARK    8  A    between atoms: N_9  and  O_10
REMARK    9  A    between atoms: N_13  and  C_14
REMARK   10  A    between atoms: N_19  and  C_20
REMARK   11  A    between atoms: C_20  and  C_21
REMARK   12  A    between atoms: C_21  and  O_22
REMARK   13  A    between atoms: O_22  and  C_23
REMARK                            x       y       z     vdW  Elec       q    Type
REMARK                         _______ _______ _______ _____ _____    ______ ____
ROOT
ATOM      1  C   UNL     1       1.584   8.932  19.762  0.00  0.00    +0.000 C 
ATOM      2  C   UNL     1       0.964   9.511  18.482  0.00  0.00    +0.000 C 
ATOM      3  C   UNL     1       1.340  10.968  18.238  0.00  0.00    +0.000 C 
ATOM      4  C   UNL     1       0.719  11.929  19.243  0.00  0.00    +0.000 C 
ATOM      5  C   UNL     1       1.212  11.689  20.665  0.00  0.00    +0.000 C 
ATOM      6  N   UNL     1       0.505  10.600  21.337  0.00  0.00    +0.000 N 
ATOM      7  C   UNL     1       0.706   9.260  20.998  0.00  0.00    +0.000 C 
ATOM      8  O   UNL     1       0.194   8.320  21.619  0.00  0.00    +0.000 OA
ENDROOT
BRANCH   1  11
ATOM      9  C   UNL     1       2.571   6.856  18.787  0.00  0.00    +0.000 C 
ATOM     10  O   UNL     1       3.338   7.534  18.108  0.00  0.00    +0.000 OA
ATOM     11  N   UNL     1       1.683   7.463  19.650  0.00  0.00    +0.000 N 
ATOM     12  H   UNL     1       1.104   6.927  20.291  0.00  0.00    +0.000 HD
BRANCH   9  13
ATOM     13  C   UNL     1       2.508   5.319  18.703  0.00  0.00    +0.000 C 
BRANCH  13  14
ATOM     14  C   UNL     1       2.378   4.678  20.117  0.00  0.00    +0.000 C 
BRANCH  14  16
ATOM     15  C   UNL     1       0.824   2.854  19.172  0.00  0.00    +0.000 C 
ATOM     16  C   UNL     1       1.225   3.680  20.392  0.00  0.00    +0.000 C 
ATOM     17  C   UNL     1       1.627   2.743  21.540  0.00  0.00    +0.000 C 
ENDBRANCH  14  16
ENDBRANCH  13  14
BRANCH  13  18
ATOM     18  C   UNL     1       3.813   4.841  18.017  0.00  0.00    +0.000 C 
BRANCH  18  19
ATOM     19  C   UNL     1       4.786   4.051  18.878  0.00  0.00    +0.000 C 
ATOM     20  O   UNL     1       5.738   4.555  19.461  0.00  0.00    +0.000 OA
ATOM     21  N   UNL     1       4.447   2.707  18.927  0.00  0.00    +0.000 N 
ATOM     22  H   UNL     1       3.472   2.436  18.839  0.00  0.00    +0.000 HD
BRANCH  21  23
ATOM     23  O   UNL     1       5.193   1.926  19.839  0.00  0.00    +0.000 OA
ATOM     24  H   UNL     1       4.926   1.020  19.593  0.00  0.00    +0.000 HD
ENDBRANCH  21  23
ENDBRANCH  18  19
ENDBRANCH  13  18
ENDBRANCH   9  13
ENDBRANCH   1  11
BRANCH   6  25
ATOM     25  C   UNL     1      -0.369  11.026  22.459  0.00  0.00    +0.000 C 
BRANCH  25  26
ATOM     26  C   UNL     1      -1.583  11.897  22.138  0.00  0.00    +0.000 C 
BRANCH  26  27
ATOM     27  O   UNL     1      -2.158  12.428  23.335  0.00  0.00    +0.000 OA
BRANCH  27  28
ATOM     28  C   UNL     1      -3.526  12.579  23.258  0.00  0.00    +0.000 A 
ATOM     29  C   UNL     1      -4.061  12.722  21.980  0.00  0.00    +0.000 A 
ATOM     30  C   UNL     1      -5.440  12.896  21.809  0.00  0.00    +0.000 A 
ATOM     31  C   UNL     1      -6.286  12.906  22.917  0.00  0.00    +0.000 A 
ATOM     32  C   UNL     1      -5.759  12.731  24.195  0.00  0.00    +0.000 A 
ATOM     33  C   UNL     1      -4.383  12.565  24.362  0.00  0.00    +0.000 A 
ENDBRANCH  27  28
ENDBRANCH  26  27
ENDBRANCH  25  26
ENDBRANCH   6  25
TORSDOF 11
ENDMDL
MODEL 5
REMARK VINA RESULT:      -7.1      2.448      3.464
REMARK  Name = 
REMARK  13 active torsions:
REMARK  status: ('A' for Active; 'I' for Inactive)
REMARK    1  A    between atoms: C_1  and  C_2
REMARK    2  A    between atoms: C_2  and  C_3
REMARK    3  A    between atoms: C_2  and  C_4
REMARK    4  A    between atoms: C_4  and  C_5
REMARK    5  A    between atoms: C_5  and  C_6
REMARK    6  A    between atoms: C_5  and  C_11
REMARK    7  A    between atoms: C_6  and  C_7
REMARK    8  A    between atoms: N_9  and  O_10
REMARK    9  A    between atoms: N_13  and  C_14
REMARK   10  A    between atoms: N_19  and  C_20
REMARK   11  A    between atoms: C_20  and  C_21
REMARK   12  A    between atoms: C_21  and  O_22
REMARK   13  A    between atoms: O_22  and  C_23
REMARK                            x       y       z     vdW  Elec       q    Type
REMARK                         _______ _______ _______ _____ _____    ______ ____
ROOT
ATOM      1  C   UNL     1       2.372   6.131  19.918  0.00  0.00    +0.000 C 
ATOM      2  C   UNL     1       1.161   5.310  20.384  0.00  0.00    +0.000 C 
ATOM      3  C   UNL     1       1.548   3.993  21.045  0.00  0.00    +0.000 C 
ATOM      4  C   UNL     1       2.142   2.981  20.074  0.00  0.00    +0.000 C 
ATOM      5  C   UNL     1       3.460   3.453  19.471  0.00  0.00    +0.000 C 
ATOM      6  N   UNL     1       3.277   4.363  18.342  0.00  0.00    +0.000 N 
ATOM      7  C   UNL     1       2.836   5.677  18.508  0.00  0.00    +0.000 C 
ATOM      8  O   UNL     1       2.769   6.493  17.579  0.00  0.00    +0.000 OA
ENDROOT
BRANCH   1  11
ATOM      9  C   UNL     1       1.400   8.215  20.890  0.00  0.00    +0.000 C 
ATOM     10  O   UNL     1       1.175   7.625  21.943  0.00  0.00    +0.000 OA
ATOM     11  N   UNL     1       2.009   7.561  19.840  0.00  0.00    +0.000 N 
ATOM     12  H   UNL     1       2.291   8.047  18.993  0.00  0.00    +0.000 HD
BRANCH   9  13
ATOM     13  C   UNL     1       0.993   9.681  20.643  0.00  0.00    +0.000 C 
BRANCH  13  14
ATOM     14  C   UNL     1      -0.157  10.120  21.598  0.00  0.00    +0.000 C 
BRANCH  14  16
ATOM     15  C   UNL     1      -1.893  11.831  22.432  0.00  0.00    +0.000 C 
ATOM     16  C   UNL     1      -0.804  11.516  21.410  0.00  0.00    +0.000 C 
ATOM     17  C   UNL     1       0.289  12.593  21.470  0.00  0.00    +0.000 C 
ENDBRANCH  14  16
ENDBRANCH  13  14
BRANCH  13  18
ATOM     18  C   UNL     1       0.534   9.790  19.166  0.00  0.00    +0.000 C 
BRANCH  18  19
ATOM     19  C   UNL     1       1.564  10.296  18.169  0.00  0.00    +0.000 C 
ATOM     20  O   UNL     1       2.133   9.576  17.357  0.00  0.00    +0.000 OA
ATOM     21  N   UNL     1       1.760  11.663  18.289  0.00  0.00    +0.000 N 
ATOM     22  H   UNL     1       0.994  12.250  18.608  0.00  0.00    +0.000 HD
BRANCH  21  23
ATOM     23  O   UNL     1       2.571  12.250  17.292  0.00  0.00    +0.000 OA
ATOM     24  H   UNL     1       1.916  12.472  16.603  0.00  0.00    +0.000 HD
ENDBRANCH  21  23
ENDBRANCH  18  19
ENDBRANCH  13  18
ENDBRANCH   9  13
ENDBRANCH   1  11
BRANCH   6  25
ATOM     25  C   UNL     1       3.680   3.808  17.025  0.00  0.00    +0.000 C 
BRANCH  25  26
ATOM     26  C   UNL     1       5.170   3.619  16.747  0.00  0.00    +0.000 C 
BRANCH  26  27
ATOM     27  O   UNL     1       5.733   4.800  16.168  0.00  0.00    +0.000 OA
BRANCH  27  28
ATOM     28  C   UNL     1       6.527   5.507  17.046  0.00  0.00    +0.000 A 
ATOM     29  C   UNL     1       6.758   6.843  16.732  0.00  0.00    +0.000 A 
ATOM     30  C   UNL     1       7.566   7.633  17.560  0.00  0.00    +0.000 A 
ATOM     31  C   UNL     1       8.126   7.088  18.714  0.00  0.00    +0.000 A 
ATOM     32  C   UNL     1       7.873   5.760  19.049  0.00  0.00    +0.000 A 
ATOM     33  C   UNL     1       7.073   4.974  18.217  0.00  0.00    +0.000 A 
ENDBRANCH  27  28
ENDBRANCH  26  27
ENDBRANCH  25  26
ENDBRANCH   6  25
TORSDOF 11
ENDMDL
MODEL 6
REMARK VINA RESULT:      -7.1      2.524      3.528
REMARK  Name = 
REMARK  13 active torsions:
REMARK  status: ('A' for Active; 'I' for Inactive)
REMARK    1  A    between atoms: C_1  and  C_2
REMARK    2  A    between atoms: C_2  and  C_3
REMARK    3  A    between atoms: C_2  and  C_4
REMARK    4  A    between atoms: C_4  and  C_5
REMARK    5  A    between atoms: C_5  and  C_6
REMARK    6  A    between atoms: C_5  and  C_11
REMARK    7  A    between atoms: C_6  and  C_7
REMARK    8  A    between atoms: N_9  and  O_10
REMARK    9  A    between atoms: N_13  and  C_14
REMARK   10  A    between atoms: N_19  and  C_20
REMARK   11  A    between atoms: C_20  and  C_21
REMARK   12  A    between atoms: C_21  and  O_22
REMARK   13  A    between atoms: O_22  and  C_23
REMARK                            x       y       z     vdW  Elec       q    Type
REMARK                         _______ _______ _______ _____ _____    ______ ____
ROOT
ATOM      1  C   UNL     1       2.184   7.169  20.114  0.00  0.00    +0.000 C 
ATOM      2  C   UNL     1       1.193   6.079  20.548  0.00  0.00    +0.000 C 
ATOM      3  C   UNL     1       1.874   4.849  21.135  0.00  0.00    +0.000 C 
ATOM      4  C   UNL     1       2.656   4.043  20.107  0.00  0.00    +0.000 C 
ATOM      5  C   UNL     1       3.826   4.823  19.518  0.00  0.00    +0.000 C 
ATOM      6  N   UNL     1       3.424   5.724  18.439  0.00  0.00    +0.000 N 
ATOM      7  C   UNL     1       2.708   6.899  18.678  0.00  0.00    +0.000 C 
ATOM      8  O   UNL     1       2.444   7.724  17.794  0.00  0.00    +0.000 OA
ENDROOT
BRANCH   1  11
ATOM      9  C   UNL     1       1.308   9.197  21.278  0.00  0.00    +0.000 C 
ATOM     10  O   UNL     1       1.717   8.764  22.351  0.00  0.00    +0.000 OA
ATOM     11  N   UNL     1       1.513   8.485  20.115  0.00  0.00    +0.000 N 
ATOM     12  H   UNL     1       1.270   8.862  19.203  0.00  0.00    +0.000 HD
BRANCH   9  13
ATOM     13  C   UNL     1       0.516  10.513  21.148  0.00  0.00    +0.000 C 
BRANCH  13  14
ATOM     14  C   UNL     1      -0.648  10.580  22.180  0.00  0.00    +0.000 C 
BRANCH  14  16
ATOM     15  C   UNL     1      -0.338  13.136  22.124  0.00  0.00    +0.000 C 
ATOM     16  C   UNL     1      -1.066  11.955  22.759  0.00  0.00    +0.000 C 
ATOM     17  C   UNL     1      -2.582  12.135  22.596  0.00  0.00    +0.000 C 
ENDBRANCH  14  16
ENDBRANCH  13  14
BRANCH  13  18
ATOM     18  C   UNL     1      -0.045  10.572  19.704  0.00  0.00    +0.000 C 
BRANCH  18  19
ATOM     19  C   UNL     1       0.532  11.645  18.793  0.00  0.00    +0.000 C 
ATOM     20  O   UNL     1       0.009  12.740  18.620  0.00  0.00    +0.000 OA
ATOM     21  N   UNL     1       1.716  11.231  18.205  0.00  0.00    +0.000 N 
ATOM     22  H   UNL     1       2.313  10.573  18.698  0.00  0.00    +0.000 HD
BRANCH  21  23
ATOM     23  O   UNL     1       2.412  12.222  17.477  0.00  0.00    +0.000 OA
ATOM     24  H   UNL     1       2.946  12.648  18.175  0.00  0.00    +0.000 HD
ENDBRANCH  21  23
ENDBRANCH  18  19
ENDBRANCH  13  18
ENDBRANCH   9  13
ENDBRANCH   1  11
BRANCH   6  25
ATOM     25  C   UNL     1       3.912   5.337  17.092  0.00  0.00    +0.000 C 
BRANCH  25  26
ATOM     26  C   UNL     1       4.787   4.091  16.972  0.00  0.00    +0.000 C 
BRANCH  26  27
ATOM     27  O   UNL     1       6.057   4.415  16.399  0.00  0.00    +0.000 OA
BRANCH  27  28
ATOM     28  C   UNL     1       6.756   5.353  17.129  0.00  0.00    +0.000 A 
ATOM     29  C   UNL     1       7.308   4.916  18.330  0.00  0.00    +0.000 A 
ATOM     30  C   UNL     1       8.022   5.806  19.142  0.00  0.00    +0.000 A 
ATOM     31  C   UNL     1       8.200   7.128  18.741  0.00  0.00    +0.000 A 
ATOM     32  C   UNL     1       7.677   7.562  17.525  0.00  0.00    +0.000 A 
ATOM     33  C   UNL     1       6.960   6.674  16.721  0.00  0.00    +0.000 A 
ENDBRANCH  27  28
ENDBRANCH  26  27
ENDBRANCH  25  26
ENDBRANCH   6  25
TORSDOF 11
ENDMDL
MODEL 7
REMARK VINA RESULT:      -7.1      3.396      9.615
REMARK  Name = 
REMARK  13 active torsions:
REMARK  status: ('A' for Active; 'I' for Inactive)
REMARK    1  A    between atoms: C_1  and  C_2
REMARK    2  A    between atoms: C_2  and  C_3
REMARK    3  A    between atoms: C_2  and  C_4
REMARK    4  A    between atoms: C_4  and  C_5
REMARK    5  A    between atoms: C_5  and  C_6
REMARK    6  A    between atoms: C_5  and  C_11
REMARK    7  A    between atoms: C_6  and  C_7
REMARK    8  A    between atoms: N_9  and  O_10
REMARK    9  A    between atoms: N_13  and  C_14
REMARK   10  A    between atoms: N_19  and  C_20
REMARK   11  A    between atoms: C_20  and  C_21
REMARK   12  A    between atoms: C_21  and  O_22
REMARK   13  A    between atoms: O_22  and  C_23
REMARK                            x       y       z     vdW  Elec       q    Type
REMARK                         _______ _______ _______ _____ _____    ______ ____
ROOT
ATOM      1  C   UNL     1       2.550   7.634  18.973  0.00  0.00    +0.000 C 
ATOM      2  C   UNL     1       1.752   8.231  17.805  0.00  0.00    +0.000 C 
ATOM      3  C   UNL     1       1.687   9.753  17.839  0.00  0.00    +0.000 C 
ATOM      4  C   UNL     1       0.845  10.297  18.986  0.00  0.00    +0.000 C 
ATOM      5  C   UNL     1       1.427   9.956  20.353  0.00  0.00    +0.000 C 
ATOM      6  N   UNL     1       1.083   8.607  20.798  0.00  0.00    +0.000 N 
ATOM      7  C   UNL     1       1.650   7.466  20.227  0.00  0.00    +0.000 C 
ATOM      8  O   UNL     1       1.449   6.322  20.654  0.00  0.00    +0.000 OA
ENDROOT
BRANCH   1  11
ATOM      9  C   UNL     1       4.173   6.147  17.795  0.00  0.00    +0.000 C 
ATOM     10  O   UNL     1       4.791   7.130  17.395  0.00  0.00    +0.000 OA
ATOM     11  N   UNL     1       3.063   6.300  18.599  0.00  0.00    +0.000 N 
ATOM     12  H   UNL     1       2.590   5.506  19.020  0.00  0.00    +0.000 HD
BRANCH   9  13
ATOM     13  C   UNL     1       4.548   4.703  17.408  0.00  0.00    +0.000 C 
BRANCH  13  14
ATOM     14  C   UNL     1       3.306   3.764  17.447  0.00  0.00    +0.000 C 
BRANCH  14  16
ATOM     15  C   UNL     1       1.651   2.913  19.227  0.00  0.00    +0.000 C 
ATOM     16  C   UNL     1       3.077   2.863  18.686  0.00  0.00    +0.000 C 
ATOM     17  C   UNL     1       3.446   1.414  18.336  0.00  0.00    +0.000 C 
ENDBRANCH  14  16
ENDBRANCH  13  14
BRANCH  13  18
ATOM     18  C   UNL     1       5.617   4.218  18.420  0.00  0.00    +0.000 C 
BRANCH  18  19
ATOM     19  C   UNL     1       6.994   4.855  18.314  0.00  0.00    +0.000 C 
ATOM     20  O   UNL     1       7.774   4.634  17.396  0.00  0.00    +0.000 OA
ATOM     21  N   UNL     1       7.238   5.719  19.370  0.00  0.00    +0.000 N 
ATOM     22  H   UNL     1       6.459   6.203  19.808  0.00  0.00    +0.000 HD
BRANCH  21  23
ATOM     23  O   UNL     1       8.421   6.485  19.267  0.00  0.00    +0.000 OA
ATOM     24  H   UNL     1       8.994   6.063  19.935  0.00  0.00    +0.000 HD
ENDBRANCH  21  23
ENDBRANCH  18  19
ENDBRANCH  13  18
ENDBRANCH   9  13
ENDBRANCH   1  11
BRANCH   6  25
ATOM     25  C   UNL     1       0.157   8.553  21.957  0.00  0.00    +0.000 C 
BRANCH  25  26
ATOM     26  C   UNL     1       0.166   9.719  22.944  0.00  0.00    +0.000 C 
BRANCH  26  27
ATOM     27  O   UNL     1      -1.168  10.116  23.273  0.00  0.00    +0.000 OA
BRANCH  27  28
ATOM     28  C   UNL     1      -1.434  11.433  22.961  0.00  0.00    +0.000 A 
ATOM     29  C   UNL     1      -2.655  11.938  23.399  0.00  0.00    +0.000 A 
ATOM     30  C   UNL     1      -3.014  13.261  23.112  0.00  0.00    +0.000 A 
ATOM     31  C   UNL     1      -2.139  14.084  22.405  0.00  0.00    +0.000 A 
ATOM     32  C   UNL     1      -0.903  13.593  21.993  0.00  0.00    +0.000 A 
ATOM     33  C   UNL     1      -0.552  12.271  22.274  0.00  0.00    +0.000 A 
ENDBRANCH  27  28
ENDBRANCH  26  27
ENDBRANCH  25  26
ENDBRANCH   6  25
TORSDOF 11
ENDMDL
MODEL 8
REMARK VINA RESULT:      -7.1      2.803      8.977
REMARK  Name = 
REMARK  13 active torsions:
REMARK  status: ('A' for Active; 'I' for Inactive)
REMARK    1  A    between atoms: C_1  and  C_2
REMARK    2  A    between atoms: C_2  and  C_3
REMARK    3  A    between atoms: C_2  and  C_4
REMARK    4  A    between atoms: C_4  and  C_5
REMARK    5  A    between atoms: C_5  and  C_6
REMARK    6  A    between atoms: C_5  and  C_11
REMARK    7  A    between atoms: C_6  and  C_7
REMARK    8  A    between atoms: N_9  and  O_10
REMARK    9  A    between atoms: N_13  and  C_14
REMARK   10  A    between atoms: N_19  and  C_20
REMARK   11  A    between atoms: C_20  and  C_21
REMARK   12  A    between atoms: C_21  and  O_22
REMARK   13  A    between atoms: O_22  and  C_23
REMARK                            x       y       z     vdW  Elec       q    Type
REMARK                         _______ _______ _______ _____ _____    ______ ____
ROOT
ATOM      1  C   UNL     1       3.331   4.891  18.598  0.00  0.00    +0.000 C 
ATOM      2  C   UNL     1       4.124   4.043  19.603  0.00  0.00    +0.000 C 
ATOM      3  C   UNL     1       3.273   2.987  20.300  0.00  0.00    +0.000 C 
ATOM      4  C   UNL     1       2.248   3.574  21.261  0.00  0.00    +0.000 C 
ATOM      5  C   UNL     1       1.205   4.431  20.554  0.00  0.00    +0.000 C 
ATOM      6  N   UNL     1       1.670   5.792  20.288  0.00  0.00    +0.000 N 
ATOM      7  C   UNL     1       2.625   6.075  19.310  0.00  0.00    +0.000 C 
ATOM      8  O   UNL     1       2.959   7.226  19.002  0.00  0.00    +0.000 OA
ENDROOT
BRANCH   1  11
ATOM      9  C   UNL     1       4.985   4.642  16.743  0.00  0.00    +0.000 C 
ATOM     10  O   UNL     1       4.868   3.420  16.797  0.00  0.00    +0.000 OA
ATOM     11  N   UNL     1       4.247   5.450  17.582  0.00  0.00    +0.000 N 
ATOM     12  H   UNL     1       4.253   6.463  17.496  0.00  0.00    +0.000 HD
BRANCH   9  13
ATOM     13  C   UNL     1       5.967   5.352  15.793  0.00  0.00    +0.000 C 
BRANCH  13  14
ATOM     14  C   UNL     1       6.629   4.347  14.804  0.00  0.00    +0.000 C 
BRANCH  14  16
ATOM     15  C   UNL     1       7.948   5.229  12.775  0.00  0.00    +0.000 C 
ATOM     16  C   UNL     1       6.625   4.665  13.288  0.00  0.00    +0.000 C 
ATOM     17  C   UNL     1       6.268   3.394  12.504  0.00  0.00    +0.000 C 
ENDBRANCH  14  16
ENDBRANCH  13  14
BRANCH  13  18
ATOM     18  C   UNL     1       7.050   6.030  16.671  0.00  0.00    +0.000 C 
BRANCH  18  19
ATOM     19  C   UNL     1       7.569   5.226  17.853  0.00  0.00    +0.000 C 
ATOM     20  O   UNL     1       8.172   4.165  17.738  0.00  0.00    +0.000 OA
ATOM     21  N   UNL     1       7.287   5.850  19.057  0.00  0.00    +0.000 N 
ATOM     22  H   UNL     1       7.223   6.863  19.090  0.00  0.00    +0.000 HD
BRANCH  21  23
ATOM     23  O   UNL     1       7.879   5.264  20.199  0.00  0.00    +0.000 OA
ATOM     24  H   UNL     1       8.758   5.006  19.860  0.00  0.00    +0.000 HD
ENDBRANCH  21  23
ENDBRANCH  18  19
ENDBRANCH  13  18
ENDBRANCH   9  13
ENDBRANCH   1  11
BRANCH   6  25
ATOM     25  C   UNL     1       0.984   6.847  21.075  0.00  0.00    +0.000 C 
BRANCH  25  26
ATOM     26  C   UNL     1       1.502   8.280  20.965  0.00  0.00    +0.000 C 
BRANCH  26  27
ATOM     27  O   UNL     1       0.557   9.111  20.285  0.00  0.00    +0.000 OA
BRANCH  27  28
ATOM     28  C   UNL     1       0.022  10.094  21.089  0.00  0.00    +0.000 A 
ATOM     29  C   UNL     1      -0.478   9.681  22.321  0.00  0.00    +0.000 A 
ATOM     30  C   UNL     1      -1.054  10.611  23.196  0.00  0.00    +0.000 A 
ATOM     31  C   UNL     1      -1.110  11.959  22.845  0.00  0.00    +0.000 A 
ATOM     32  C   UNL     1      -0.582  12.382  21.627  0.00  0.00    +0.000 A 
ATOM     33  C   UNL     1      -0.016  11.450  20.755  0.00  0.00    +0.000 A 
ENDBRANCH  27  28
ENDBRANCH  26  27
ENDBRANCH  25  26
ENDBRANCH   6  25
TORSDOF 11
ENDMDL
MODEL 9
REMARK VINA RESULT:      -7.1      3.198      9.750
REMARK  Name = 
REMARK  13 active torsions:
REMARK  status: ('A' for Active; 'I' for Inactive)
REMARK    1  A    between atoms: C_1  and  C_2
REMARK    2  A    between atoms: C_2  and  C_3
REMARK    3  A    between atoms: C_2  and  C_4
REMARK    4  A    between atoms: C_4  and  C_5
REMARK    5  A    between atoms: C_5  and  C_6
REMARK    6  A    between atoms: C_5  and  C_11
REMARK    7  A    between atoms: C_6  and  C_7
REMARK    8  A    between atoms: N_9  and  O_10
REMARK    9  A    between atoms: N_13  and  C_14
REMARK   10  A    between atoms: N_19  and  C_20
REMARK   11  A    between atoms: C_20  and  C_21
REMARK   12  A    between atoms: C_21  and  O_22
REMARK   13  A    between atoms: O_22  and  C_23
REMARK                            x       y       z     vdW  Elec       q    Type
REMARK                         _______ _______ _______ _____ _____    ______ ____
ROOT
ATOM      1  C   UNL     1       2.573   7.054  18.936  0.00  0.00    +0.000 C 
ATOM      2  C   UNL     1       1.840   7.755  17.783  0.00  0.00    +0.000 C 
ATOM      3  C   UNL     1       1.954   9.274  17.835  0.00  0.00    +0.000 C 
ATOM      4  C   UNL     1       1.191   9.897  18.997  0.00  0.00    +0.000 C 
ATOM      5  C   UNL     1       1.742   9.474  20.353  0.00  0.00    +0.000 C 
ATOM      6  N   UNL     1       1.247   8.169  20.787  0.00  0.00    +0.000 N 
ATOM      7  C   UNL     1       1.672   6.977  20.197  0.00  0.00    +0.000 C 
ATOM      8  O   UNL     1       1.342   5.859  20.613  0.00  0.00    +0.000 OA
ENDROOT
BRANCH   1  11
ATOM      9  C   UNL     1       4.143   5.114  18.861  0.00  0.00    +0.000 C 
ATOM     10  O   UNL     1       4.963   5.745  19.523  0.00  0.00    +0.000 OA
ATOM     11  N   UNL     1       2.925   5.674  18.542  0.00  0.00    +0.000 N 
ATOM     12  H   UNL     1       2.193   5.143  18.077  0.00  0.00    +0.000 HD
BRANCH   9  13
ATOM     13  C   UNL     1       4.415   3.700  18.311  0.00  0.00    +0.000 C 
BRANCH  13  14
ATOM     14  C   UNL     1       4.752   3.737  16.791  0.00  0.00    +0.000 C 
BRANCH  14  16
ATOM     15  C   UNL     1       7.178   4.600  16.734  0.00  0.00    +0.000 C 
ATOM     16  C   UNL     1       5.741   4.806  16.262  0.00  0.00    +0.000 C 
ATOM     17  C   UNL     1       5.699   4.820  14.727  0.00  0.00    +0.000 C 
ENDBRANCH  14  16
ENDBRANCH  13  14
BRANCH  13  18
ATOM     18  C   UNL     1       3.138   2.857  18.555  0.00  0.00    +0.000 C 
BRANCH  18  19
ATOM     19  C   UNL     1       2.715   2.666  20.003  0.00  0.00    +0.000 C 
ATOM     20  O   UNL     1       3.497   2.397  20.908  0.00  0.00    +0.000 OA
ATOM     21  N   UNL     1       1.351   2.848  20.164  0.00  0.00    +0.000 N 
ATOM     22  H   UNL     1       0.857   3.484  19.545  0.00  0.00    +0.000 HD
BRANCH  21  23
ATOM     23  O   UNL     1       0.892   2.859  21.501  0.00  0.00    +0.000 OA
ATOM     24  H   UNL     1       0.213   2.157  21.487  0.00  0.00    +0.000 HD
ENDBRANCH  21  23
ENDBRANCH  18  19
ENDBRANCH  13  18
ENDBRANCH   9  13
ENDBRANCH   1  11
BRANCH   6  25
ATOM     25  C   UNL     1       0.331   8.208  21.955  0.00  0.00    +0.000 C 
BRANCH  25  26
ATOM     26  C   UNL     1       0.353   9.448  22.847  0.00  0.00    +0.000 C 
BRANCH  26  27
ATOM     27  O   UNL     1      -0.977   9.881  23.148  0.00  0.00    +0.000 OA
BRANCH  27  28
ATOM     28  C   UNL     1      -1.201  11.204  22.830  0.00  0.00    +0.000 A 
ATOM     29  C   UNL     1      -2.352  11.781  23.360  0.00  0.00    +0.000 A 
ATOM     30  C   UNL     1      -2.665  13.116  23.076  0.00  0.00    +0.000 A 
ATOM     31  C   UNL     1      -1.814  13.879  22.279  0.00  0.00    +0.000 A 
ATOM     32  C   UNL     1      -0.645  13.316  21.773  0.00  0.00    +0.000 A 
ATOM     33  C   UNL     1      -0.339  11.982  22.052  0.00  0.00    +0.000 A 
ENDBRANCH  27  28
ENDBRANCH  26  27
ENDBRANCH  25  26
ENDBRANCH   6  25
TORSDOF 11
ENDMDL
