MODEL 1
REMARK VINA RESULT:      -6.6      0.000      0.000
REMARK  Name = 
REMARK  5 active torsions:
REMARK  status: ('A' for Active; 'I' for Inactive)
REMARK    1  A    between atoms: C_1  and  C_2
REMARK    2  A    between atoms: C_4  and  O_5
REMARK    3  A    between atoms: C_13  and  N_14
REMARK    4  A    between atoms: C_21  and  C_22
REMARK    5  A    between atoms: C_26  and  C_27
REMARK                            x       y       z     vdW  Elec       q    Type
REMARK                         _______ _______ _______ _____ _____    ______ ____
ROOT
ATOM      1  C   UNL     1      -7.764  14.349  22.017  0.00  0.00    +0.000 C 
ATOM      2  C   UNL     1      -6.675  14.994  22.835  0.00  0.00    +0.000 C 
ATOM      3  C   UNL     1      -5.493  14.443  23.233  0.00  0.00    +0.000 C 
ATOM      4  C   UNL     1      -5.236  12.967  22.923  0.00  0.00    +0.000 C 
ATOM      5  C   UNL     1      -4.860  12.680  24.357  0.00  0.00    +0.000 C 
ATOM      6  C   UNL     1      -3.705  13.680  24.521  0.00  0.00    +0.000 C 
ATOM      7  C   UNL     1      -2.543  13.382  23.541  0.00  0.00    +0.000 C 
ATOM      8  C   UNL     1      -2.320  11.881  23.449  0.00  0.00    +0.000 C 
ATOM      9  C   UNL     1      -1.818  11.659  22.079  0.00  0.00    +0.000 C 
ATOM     10  C   UNL     1      -0.463  12.353  21.979  0.00  0.00    +0.000 C 
ATOM     11  C   UNL     1       0.218  11.652  20.857  0.00  0.00    +0.000 C 
ATOM     12  C   UNL     1       0.897  12.171  19.636  0.00  0.00    +0.000 C 
ATOM     13  C   UNL     1       1.344  13.609  20.012  0.00  0.00    +0.000 C 
ATOM     14  C   UNL     1       1.042  14.129  21.575  0.00  0.00    +0.000 C 
ATOM     15  C   UNL     1      -0.457  13.891  22.039  0.00  0.00    +0.000 C 
ATOM     16  C   UNL     1      -1.260  14.745  21.040  0.00  0.00    +0.000 C 
ATOM     17  C   UNL     1      -1.173  14.162  23.545  0.00  0.00    +0.000 C 
ATOM     18  C   UNL     1      -1.519  15.580  24.033  0.00  0.00    +0.000 C 
ATOM     19  C   UNL     1      -2.813  15.652  24.947  0.00  0.00    +0.000 C 
ATOM     20  C   UNL     1      -4.341  15.157  24.354  0.00  0.00    +0.000 C 
ATOM     21  C   UNL     1      -4.307  16.450  23.410  0.00  0.00    +0.000 C 
ENDROOT
BRANCH  12  22
ATOM     22  N   UNL     1       0.111  11.742  18.379  0.00  0.00    +0.000 NA
ATOM     23  C   UNL     1      -1.165  12.447  18.087  0.00  0.00    +0.000 C 
ATOM     24  C   UNL     1      -2.314  11.426  18.046  0.00  0.00    +0.000 C 
ATOM     25  C   UNL     1      -1.626  10.128  17.720  0.00  0.00    +0.000 C 
ATOM     26  C   UNL     1      -0.269  10.280  18.409  0.00  0.00    +0.000 C 
ENDBRANCH  12  22
BRANCH   4  27
ATOM     27  O   UNL     1      -6.288  12.057  22.545  0.00  0.00    +0.000 OA
ATOM     28  H   UNL     1      -6.975  12.669  22.184  0.00  0.00    +0.000 HD
ENDBRANCH   4  27
TORSDOF 2
ENDMDL
MODEL 2
REMARK VINA RESULT:      -6.0      3.301      5.622
REMARK  Name = 
REMARK  5 active torsions:
REMARK  status: ('A' for Active; 'I' for Inactive)
REMARK    1  A    between atoms: C_1  and  C_2
REMARK    2  A    between atoms: C_4  and  O_5
REMARK    3  A    between atoms: C_13  and  N_14
REMARK    4  A    between atoms: C_21  and  C_22
REMARK    5  A    between atoms: C_26  and  C_27
REMARK                            x       y       z     vdW  Elec       q    Type
REMARK                         _______ _______ _______ _____ _____    ______ ____
ROOT
ATOM      1  C   UNL     1      -4.585  11.867  17.206  0.00  0.00    +0.000 C 
ATOM      2  C   UNL     1      -4.012  11.664  18.585  0.00  0.00    +0.000 C 
ATOM      3  C   UNL     1      -2.713  11.805  18.978  0.00  0.00    +0.000 C 
ATOM      4  C   UNL     1      -1.658  12.106  17.912  0.00  0.00    +0.000 C 
ATOM      5  C   UNL     1      -0.778  10.978  18.394  0.00  0.00    +0.000 C 
ATOM      6  C   UNL     1      -0.590  11.409  19.856  0.00  0.00    +0.000 C 
ATOM      7  C   UNL     1       0.113  12.786  19.963  0.00  0.00    +0.000 C 
ATOM      8  C   UNL     1       1.227  12.876  18.933  0.00  0.00    +0.000 C 
ATOM      9  C   UNL     1       1.307  14.310  18.590  0.00  0.00    +0.000 C 
ATOM     10  C   UNL     1       1.754  15.048  19.848  0.00  0.00    +0.000 C 
ATOM     11  C   UNL     1       2.348  16.311  19.331  0.00  0.00    +0.000 C 
ATOM     12  C   UNL     1       2.106  17.736  19.696  0.00  0.00    +0.000 C 
ATOM     13  C   UNL     1       1.583  17.689  21.156  0.00  0.00    +0.000 C 
ATOM     14  C   UNL     1       1.503  16.190  21.900  0.00  0.00    +0.000 C 
ATOM     15  C   UNL     1       0.765  15.091  21.026  0.00  0.00    +0.000 C 
ATOM     16  C   UNL     1      -0.652  15.675  20.874  0.00  0.00    +0.000 C 
ATOM     17  C   UNL     1       0.547  13.443  21.329  0.00  0.00    +0.000 C 
ATOM     18  C   UNL     1      -0.479  12.939  22.361  0.00  0.00    +0.000 C 
ATOM     19  C   UNL     1      -1.143  11.549  21.987  0.00  0.00    +0.000 C 
ATOM     20  C   UNL     1      -2.050  11.364  20.546  0.00  0.00    +0.000 C 
ATOM     21  C   UNL     1      -3.163  12.300  21.219  0.00  0.00    +0.000 C 
ENDROOT
BRANCH  12  22
ATOM     22  N   UNL     1       1.467  18.479  18.504  0.00  0.00    +0.000 NA
ATOM     23  C   UNL     1      -0.011  18.629  18.495  0.00  0.00    +0.000 C 
ATOM     24  C   UNL     1      -0.583  17.976  17.225  0.00  0.00    +0.000 C 
ATOM     25  C   UNL     1       0.574  17.998  16.262  0.00  0.00    +0.000 C 
ATOM     26  C   UNL     1       1.784  17.823  17.180  0.00  0.00    +0.000 C 
ENDBRANCH  12  22
BRANCH   4  27
ATOM     27  O   UNL     1      -1.899  11.917  16.504  0.00  0.00    +0.000 OA
ATOM     28  H   UNL     1      -1.331  11.134  16.298  0.00  0.00    +0.000 HD
ENDBRANCH   4  27
TORSDOF 2
ENDMDL
MODEL 3
REMARK VINA RESULT:      -6.0      7.354     11.544
REMARK  Name = 
REMARK  5 active torsions:
REMARK  status: ('A' for Active; 'I' for Inactive)
REMARK    1  A    between atoms: C_1  and  C_2
REMARK    2  A    between atoms: C_4  and  O_5
REMARK    3  A    between atoms: C_13  and  N_14
REMARK    4  A    between atoms: C_21  and  C_22
REMARK    5  A    between atoms: C_26  and  C_27
REMARK                            x       y       z     vdW  Elec       q    Type
REMARK                         _______ _______ _______ _____ _____    ______ ____
ROOT
ATOM      1  C   UNL     1       8.583   9.953  18.203  0.00  0.00    +0.000 C 
ATOM      2  C   UNL     1       9.334  10.870  19.133  0.00  0.00    +0.000 C 
ATOM      3  C   UNL     1       9.297  12.233  19.172  0.00  0.00    +0.000 C 
ATOM      4  C   UNL     1       8.490  12.970  18.102  0.00  0.00    +0.000 C 
ATOM      5  C   UNL     1       9.655  13.873  17.774  0.00  0.00    +0.000 C 
ATOM      6  C   UNL     1       9.900  14.485  19.161  0.00  0.00    +0.000 C 
ATOM      7  C   UNL     1       8.669  15.280  19.664  0.00  0.00    +0.000 C 
ATOM      8  C   UNL     1       8.063  16.070  18.515  0.00  0.00    +0.000 C 
ATOM      9  C   UNL     1       6.623  16.147  18.831  0.00  0.00    +0.000 C 
ATOM     10  C   UNL     1       6.486  16.972  20.106  0.00  0.00    +0.000 C 
ATOM     11  C   UNL     1       5.090  17.483  20.055  0.00  0.00    +0.000 C 
ATOM     12  C   UNL     1       3.989  17.447  21.061  0.00  0.00    +0.000 C 
ATOM     13  C   UNL     1       4.708  17.344  22.432  0.00  0.00    +0.000 C 
ATOM     14  C   UNL     1       6.383  17.374  22.431  0.00  0.00    +0.000 C 
ATOM     15  C   UNL     1       7.030  16.352  21.405  0.00  0.00    +0.000 C 
ATOM     16  C   UNL     1       6.532  14.990  21.923  0.00  0.00    +0.000 C 
ATOM     17  C   UNL     1       8.653  16.116  21.000  0.00  0.00    +0.000 C 
ATOM     18  C   UNL     1       9.625  15.385  21.944  0.00  0.00    +0.000 C 
ATOM     19  C   UNL     1      10.749  14.552  21.197  0.00  0.00    +0.000 C 
ATOM     20  C   UNL     1      10.339  13.272  20.135  0.00  0.00    +0.000 C 
ATOM     21  C   UNL     1       9.868  12.454  21.429  0.00  0.00    +0.000 C 
ENDROOT
BRANCH  12  22
ATOM     22  N   UNL     1       2.841  16.555  20.546  0.00  0.00    +0.000 NA
ATOM     23  C   UNL     1       2.954  15.088  20.761  0.00  0.00    +0.000 C 
ATOM     24  C   UNL     1       2.910  14.368  19.403  0.00  0.00    +0.000 C 
ATOM     25  C   UNL     1       2.186  15.339  18.508  0.00  0.00    +0.000 C 
ATOM     26  C   UNL     1       2.624  16.697  19.057  0.00  0.00    +0.000 C 
ENDBRANCH  12  22
BRANCH   4  27
ATOM     27  O   UNL     1       8.056  12.338  16.882  0.00  0.00    +0.000 OA
ATOM     28  H   UNL     1       7.101  12.160  17.066  0.00  0.00    +0.000 HD
ENDBRANCH   4  27
TORSDOF 2
ENDMDL
MODEL 4
REMARK VINA RESULT:      -5.9      7.961     10.835
REMARK  Name = 
REMARK  5 active torsions:
REMARK  status: ('A' for Active; 'I' for Inactive)
REMARK    1  A    between atoms: C_1  and  C_2
REMARK    2  A    between atoms: C_4  and  O_5
REMARK    3  A    between atoms: C_13  and  N_14
REMARK    4  A    between atoms: C_21  and  C_22
REMARK    5  A    between atoms: C_26  and  C_27
REMARK                            x       y       z     vdW  Elec       q    Type
REMARK                         _______ _______ _______ _____ _____    ______ ____
ROOT
ATOM      1  C   UNL     1       2.677  13.906  20.853  0.00  0.00    +0.000 C 
ATOM      2  C   UNL     1       3.420  15.202  20.651  0.00  0.00    +0.000 C 
ATOM      3  C   UNL     1       4.685  15.512  21.057  0.00  0.00    +0.000 C 
ATOM      4  C   UNL     1       5.446  14.493  21.908  0.00  0.00    +0.000 C 
ATOM      5  C   UNL     1       5.786  15.538  22.943  0.00  0.00    +0.000 C 
ATOM      6  C   UNL     1       6.521  16.550  22.051  0.00  0.00    +0.000 C 
ATOM      7  C   UNL     1       7.787  15.933  21.405  0.00  0.00    +0.000 C 
ATOM      8  C   UNL     1       8.508  15.060  22.419  0.00  0.00    +0.000 C 
ATOM      9  C   UNL     1       9.159  14.008  21.613  0.00  0.00    +0.000 C 
ATOM     10  C   UNL     1      10.204  14.693  20.739  0.00  0.00    +0.000 C 
ATOM     11  C   UNL     1      11.165  13.606  20.409  0.00  0.00    +0.000 C 
ATOM     12  C   UNL     1      11.721  13.143  19.105  0.00  0.00    +0.000 C 
ATOM     13  C   UNL     1      11.628  14.379  18.173  0.00  0.00    +0.000 C 
ATOM     14  C   UNL     1      11.050  15.805  18.834  0.00  0.00    +0.000 C 
ATOM     15  C   UNL     1       9.688  15.625  19.628  0.00  0.00    +0.000 C 
ATOM     16  C   UNL     1       8.723  15.127  18.535  0.00  0.00    +0.000 C 
ATOM     17  C   UNL     1       8.810  16.752  20.529  0.00  0.00    +0.000 C 
ATOM     18  C   UNL     1       7.970  17.851  19.852  0.00  0.00    +0.000 C 
ATOM     19  C   UNL     1       6.662  18.252  20.654  0.00  0.00    +0.000 C 
ATOM     20  C   UNL     1       5.440  17.098  20.981  0.00  0.00    +0.000 C 
ATOM     21  C   UNL     1       5.109  17.120  19.414  0.00  0.00    +0.000 C 
ENDROOT
BRANCH  12  22
ATOM     22  N   UNL     1      11.223  11.714  18.804  0.00  0.00    +0.000 NA
ATOM     23  C   UNL     1      10.348  11.521  17.618  0.00  0.00    +0.000 C 
ATOM     24  C   UNL     1       9.006  10.920  18.066  0.00  0.00    +0.000 C 
ATOM     25  C   UNL     1       9.339  10.233  19.364  0.00  0.00    +0.000 C 
ATOM     26  C   UNL     1      10.432  11.126  19.950  0.00  0.00    +0.000 C 
ENDBRANCH  12  22
BRANCH   4  27
ATOM     27  O   UNL     1       4.794  13.396  22.577  0.00  0.00    +0.000 OA
ATOM     28  H   UNL     1       5.243  13.390  23.458  0.00  0.00    +0.000 HD
ENDBRANCH   4  27
TORSDOF 2
ENDMDL
MODEL 5
REMARK VINA RESULT:      -5.9      6.937     10.732
REMARK  Name = 
REMARK  5 active torsions:
REMARK  status: ('A' for Active; 'I' for Inactive)
REMARK    1  A    between atoms: C_1  and  C_2
REMARK    2  A    between atoms: C_4  and  O_5
REMARK    3  A    between atoms: C_13  and  N_14
REMARK    4  A    between atoms: C_21  and  C_22
REMARK    5  A    between atoms: C_26  and  C_27
REMARK                            x       y       z     vdW  Elec       q    Type
REMARK                         _______ _______ _______ _____ _____    ______ ____
ROOT
ATOM      1  C   UNL     1       9.506  10.543  19.204  0.00  0.00    +0.000 C 
ATOM      2  C   UNL     1       9.337  10.991  20.633  0.00  0.00    +0.000 C 
ATOM      3  C   UNL     1       9.063  12.248  21.087  0.00  0.00    +0.000 C 
ATOM      4  C   UNL     1       9.009  13.393  20.074  0.00  0.00    +0.000 C 
ATOM      5  C   UNL     1       9.952  14.234  20.900  0.00  0.00    +0.000 C 
ATOM      6  C   UNL     1       9.161  14.286  22.215  0.00  0.00    +0.000 C 
ATOM      7  C   UNL     1       7.782  14.967  22.030  0.00  0.00    +0.000 C 
ATOM      8  C   UNL     1       7.921  16.169  21.109  0.00  0.00    +0.000 C 
ATOM      9  C   UNL     1       6.618  16.269  20.422  0.00  0.00    +0.000 C 
ATOM     10  C   UNL     1       5.574  16.595  21.485  0.00  0.00    +0.000 C 
ATOM     11  C   UNL     1       4.465  17.225  20.717  0.00  0.00    +0.000 C 
ATOM     12  C   UNL     1       3.002  16.941  20.686  0.00  0.00    +0.000 C 
ATOM     13  C   UNL     1       2.695  16.288  22.060  0.00  0.00    +0.000 C 
ATOM     14  C   UNL     1       3.959  16.151  23.150  0.00  0.00    +0.000 C 
ATOM     15  C   UNL     1       5.265  15.503  22.524  0.00  0.00    +0.000 C 
ATOM     16  C   UNL     1       4.780  14.102  22.107  0.00  0.00    +0.000 C 
ATOM     17  C   UNL     1       6.788  15.270  23.215  0.00  0.00    +0.000 C 
ATOM     18  C   UNL     1       7.046  14.159  24.250  0.00  0.00    +0.000 C 
ATOM     19  C   UNL     1       8.505  13.541  24.185  0.00  0.00    +0.000 C 
ATOM     20  C   UNL     1       9.074  12.769  22.767  0.00  0.00    +0.000 C 
ATOM     21  C   UNL     1       8.032  11.594  23.082  0.00  0.00    +0.000 C 
ENDROOT
BRANCH  12  22
ATOM     22  N   UNL     1       2.603  16.407  19.294  0.00  0.00    +0.000 NA
ATOM     23  C   UNL     1       2.300  14.957  19.170  0.00  0.00    +0.000 C 
ATOM     24  C   UNL     1       3.249  14.324  18.140  0.00  0.00    +0.000 C 
ATOM     25  C   UNL     1       3.659  15.484  17.272  0.00  0.00    +0.000 C 
ATOM     26  C   UNL     1       3.671  16.655  18.255  0.00  0.00    +0.000 C 
ENDBRANCH  12  22
BRANCH   4  27
ATOM     27  O   UNL     1       9.554  13.282  18.745  0.00  0.00    +0.000 OA
ATOM     28  H   UNL     1      10.466  12.940  18.920  0.00  0.00    +0.000 HD
ENDBRANCH   4  27
TORSDOF 2
ENDMDL
MODEL 6
REMARK VINA RESULT:      -5.8      6.990     11.047
REMARK  Name = 
REMARK  5 active torsions:
REMARK  status: ('A' for Active; 'I' for Inactive)
REMARK    1  A    between atoms: C_1  and  C_2
REMARK    2  A    between atoms: C_4  and  O_5
REMARK    3  A    between atoms: C_13  and  N_14
REMARK    4  A    between atoms: C_21  and  C_22
REMARK    5  A    between atoms: C_26  and  C_27
REMARK                            x       y       z     vdW  Elec       q    Type
REMARK                         _______ _______ _______ _____ _____    ______ ____
ROOT
ATOM      1  C   UNL     1       9.331  10.008  19.312  0.00  0.00    +0.000 C 
ATOM      2  C   UNL     1       9.633  11.122  20.281  0.00  0.00    +0.000 C 
ATOM      3  C   UNL     1       9.383  12.454  20.127  0.00  0.00    +0.000 C 
ATOM      4  C   UNL     1       8.820  12.939  18.789  0.00  0.00    +0.000 C 
ATOM      5  C   UNL     1       9.881  14.007  18.674  0.00  0.00    +0.000 C 
ATOM      6  C   UNL     1       9.618  14.769  19.981  0.00  0.00    +0.000 C 
ATOM      7  C   UNL     1       8.189  15.367  20.020  0.00  0.00    +0.000 C 
ATOM      8  C   UNL     1       7.831  15.933  18.655  0.00  0.00    +0.000 C 
ATOM      9  C   UNL     1       6.366  15.774  18.554  0.00  0.00    +0.000 C 
ATOM     10  C   UNL     1       5.744  16.666  19.624  0.00  0.00    +0.000 C 
ATOM     11  C   UNL     1       4.361  16.908  19.128  0.00  0.00    +0.000 C 
ATOM     12  C   UNL     1       3.035  16.758  19.792  0.00  0.00    +0.000 C 
ATOM     13  C   UNL     1       3.332  16.905  21.308  0.00  0.00    +0.000 C 
ATOM     14  C   UNL     1       4.910  17.238  21.758  0.00  0.00    +0.000 C 
ATOM     15  C   UNL     1       5.974  16.267  21.092  0.00  0.00    +0.000 C 
ATOM     16  C   UNL     1       5.557  14.886  21.632  0.00  0.00    +0.000 C 
ATOM     17  C   UNL     1       7.660  16.297  21.178  0.00  0.00    +0.000 C 
ATOM     18  C   UNL     1       8.415  15.837  22.439  0.00  0.00    +0.000 C 
ATOM     19  C   UNL     1       9.819  15.162  22.142  0.00  0.00    +0.000 C 
ATOM     20  C   UNL     1       9.932  13.743  21.190  0.00  0.00    +0.000 C 
ATOM     21  C   UNL     1       9.234  12.966  22.404  0.00  0.00    +0.000 C 
ENDROOT
BRANCH  12  22
ATOM     22  N   UNL     1       2.233  15.631  19.108  0.00  0.00    +0.000 NA
ATOM     23  C   UNL     1       1.657  14.568  19.973  0.00  0.00    +0.000 C 
ATOM     24  C   UNL     1       2.211  13.201  19.539  0.00  0.00    +0.000 C 
ATOM     25  C   UNL     1       2.605  13.416  18.102  0.00  0.00    +0.000 C 
ATOM     26  C   UNL     1       3.055  14.877  18.088  0.00  0.00    +0.000 C 
ENDBRANCH  12  22
BRANCH   4  27
ATOM     27  O   UNL     1       8.858  12.137  17.593  0.00  0.00    +0.000 OA
ATOM     28  H   UNL     1       9.174  11.265  17.935  0.00  0.00    +0.000 HD
ENDBRANCH   4  27
TORSDOF 2
ENDMDL
MODEL 7
REMARK VINA RESULT:      -5.8      9.014     11.535
REMARK  Name = 
REMARK  5 active torsions:
REMARK  status: ('A' for Active; 'I' for Inactive)
REMARK    1  A    between atoms: C_1  and  C_2
REMARK    2  A    between atoms: C_4  and  O_5
REMARK    3  A    between atoms: C_13  and  N_14
REMARK    4  A    between atoms: C_21  and  C_22
REMARK    5  A    between atoms: C_26  and  C_27
REMARK                            x       y       z     vdW  Elec       q    Type
REMARK                         _______ _______ _______ _____ _____    ______ ____
ROOT
ATOM      1  C   UNL     1       6.250  11.133  24.953  0.00  0.00    +0.000 C 
ATOM      2  C   UNL     1       5.942  12.590  24.720  0.00  0.00    +0.000 C 
ATOM      3  C   UNL     1       6.793  13.565  24.289  0.00  0.00    +0.000 C 
ATOM      4  C   UNL     1       8.270  13.211  24.100  0.00  0.00    +0.000 C 
ATOM      5  C   UNL     1       8.711  14.395  24.925  0.00  0.00    +0.000 C 
ATOM      6  C   UNL     1       8.046  15.525  24.125  0.00  0.00    +0.000 C 
ATOM      7  C   UNL     1       8.581  15.593  22.673  0.00  0.00    +0.000 C 
ATOM      8  C   UNL     1      10.084  15.361  22.668  0.00  0.00    +0.000 C 
ATOM      9  C   UNL     1      10.360  14.719  21.367  0.00  0.00    +0.000 C 
ATOM     10  C   UNL     1      10.028  15.740  20.283  0.00  0.00    +0.000 C 
ATOM     11  C   UNL     1      10.825  15.289  19.110  0.00  0.00    +0.000 C 
ATOM     12  C   UNL     1      10.436  15.033  17.693  0.00  0.00    +0.000 C 
ATOM     13  C   UNL     1       9.179  15.913  17.462  0.00  0.00    +0.000 C 
ATOM     14  C   UNL     1       8.675  16.890  18.726  0.00  0.00    +0.000 C 
ATOM     15  C   UNL     1       8.547  16.118  20.106  0.00  0.00    +0.000 C 
ATOM     16  C   UNL     1       7.470  15.059  19.803  0.00  0.00    +0.000 C 
ATOM     17  C   UNL     1       8.176  16.715  21.642  0.00  0.00    +0.000 C 
ATOM     18  C   UNL     1       6.741  17.117  22.029  0.00  0.00    +0.000 C 
ATOM     19  C   UNL     1       6.387  16.863  23.554  0.00  0.00    +0.000 C 
ATOM     20  C   UNL     1       6.450  15.289  24.224  0.00  0.00    +0.000 C 
ATOM     21  C   UNL     1       5.163  14.943  23.335  0.00  0.00    +0.000 C 
ENDROOT
BRANCH  12  22
ATOM     22  N   UNL     1      10.591  13.532  17.373  0.00  0.00    +0.000 NA
ATOM     23  C   UNL     1       9.524  12.611  17.844  0.00  0.00    +0.000 C 
ATOM     24  C   UNL     1      10.138  11.549  18.770  0.00  0.00    +0.000 C 
ATOM     25  C   UNL     1      11.583  11.504  18.351  0.00  0.00    +0.000 C 
ATOM     26  C   UNL     1      11.864  12.950  17.943  0.00  0.00    +0.000 C 
ENDBRANCH  12  22
BRANCH   4  27
ATOM     27  O   UNL     1       8.864  12.025  24.663  0.00  0.00    +0.000 OA
ATOM     28  H   UNL     1       8.281  11.310  24.309  0.00  0.00    +0.000 HD
ENDBRANCH   4  27
TORSDOF 2
ENDMDL
MODEL 8
REMARK VINA RESULT:      -5.8      1.452      2.271
REMARK  Name = 
REMARK  5 active torsions:
REMARK  status: ('A' for Active; 'I' for Inactive)
REMARK    1  A    between atoms: C_1  and  C_2
REMARK    2  A    between atoms: C_4  and  O_5
REMARK    3  A    between atoms: C_13  and  N_14
REMARK    4  A    between atoms: C_21  and  C_22
REMARK    5  A    between atoms: C_26  and  C_27
REMARK                            x       y       z     vdW  Elec       q    Type
REMARK                         _______ _______ _______ _____ _____    ______ ____
ROOT
ATOM      1  C   UNL     1      -6.245  16.604  23.425  0.00  0.00    +0.000 C 
ATOM      2  C   UNL     1      -4.774  16.928  23.469  0.00  0.00    +0.000 C 
ATOM      3  C   UNL     1      -3.729  16.057  23.566  0.00  0.00    +0.000 C 
ATOM      4  C   UNL     1      -4.037  14.570  23.756  0.00  0.00    +0.000 C 
ATOM      5  C   UNL     1      -3.100  14.477  24.937  0.00  0.00    +0.000 C 
ATOM      6  C   UNL     1      -1.801  14.951  24.269  0.00  0.00    +0.000 C 
ATOM      7  C   UNL     1      -1.375  14.013  23.112  0.00  0.00    +0.000 C 
ATOM      8  C   UNL     1      -1.612  12.565  23.509  0.00  0.00    +0.000 C 
ATOM      9  C   UNL     1      -1.909  11.871  22.240  0.00  0.00    +0.000 C 
ATOM     10  C   UNL     1      -0.647  11.936  21.386  0.00  0.00    +0.000 C 
ATOM     11  C   UNL     1      -0.795  10.797  20.440  0.00  0.00    +0.000 C 
ATOM     12  C   UNL     1      -0.685  10.728  18.955  0.00  0.00    +0.000 C 
ATOM     13  C   UNL     1       0.235  11.917  18.570  0.00  0.00    +0.000 C 
ATOM     14  C   UNL     1       0.868  12.840  19.816  0.00  0.00    +0.000 C 
ATOM     15  C   UNL     1      -0.224  13.319  20.862  0.00  0.00    +0.000 C 
ATOM     16  C   UNL     1      -1.164  14.181  19.999  0.00  0.00    +0.000 C 
ATOM     17  C   UNL     1      -0.028  14.170  22.308  0.00  0.00    +0.000 C 
ATOM     18  C   UNL     1       0.276  15.680  22.324  0.00  0.00    +0.000 C 
ATOM     19  C   UNL     1      -0.349  16.452  23.560  0.00  0.00    +0.000 C 
ATOM     20  C   UNL     1      -2.041  16.484  23.817  0.00  0.00    +0.000 C 
ATOM     21  C   UNL     1      -2.142  17.420  22.521  0.00  0.00    +0.000 C 
ENDROOT
BRANCH  12  22
ATOM     22  N   UNL     1      -2.059  10.382  18.345  0.00  0.00    +0.000 NA
ATOM     23  C   UNL     1      -2.103  10.005  16.908  0.00  0.00    +0.000 C 
ATOM     24  C   UNL     1      -3.025  10.975  16.152  0.00  0.00    +0.000 C 
ATOM     25  C   UNL     1      -3.943  11.501  17.224  0.00  0.00    +0.000 C 
ATOM     26  C   UNL     1      -3.044  11.523  18.461  0.00  0.00    +0.000 C 
ENDBRANCH  12  22
BRANCH   4  27
ATOM     27  O   UNL     1      -5.330  14.090  24.171  0.00  0.00    +0.000 OA
ATOM     28  H   UNL     1      -5.403  13.234  23.681  0.00  0.00    +0.000 HD
ENDBRANCH   4  27
TORSDOF 2
ENDMDL
MODEL 9
REMARK VINA RESULT:      -5.7      4.014      6.100
REMARK  Name = 
REMARK  5 active torsions:
REMARK  status: ('A' for Active; 'I' for Inactive)
REMARK    1  A    between atoms: C_1  and  C_2
REMARK    2  A    between atoms: C_4  and  O_5
REMARK    3  A    between atoms: C_13  and  N_14
REMARK    4  A    between atoms: C_21  and  C_22
REMARK    5  A    between atoms: C_26  and  C_27
REMARK                            x       y       z     vdW  Elec       q    Type
REMARK                         _______ _______ _______ _____ _____    ______ ____
ROOT
ATOM      1  C   UNL     1       0.684  18.628  15.996  0.00  0.00    +0.000 C 
ATOM      2  C   UNL     1       1.644  18.091  17.027  0.00  0.00    +0.000 C 
ATOM      3  C   UNL     1       1.356  17.317  18.112  0.00  0.00    +0.000 C 
ATOM      4  C   UNL     1      -0.111  17.013  18.422  0.00  0.00    +0.000 C 
ATOM      5  C   UNL     1       0.049  17.451  19.858  0.00  0.00    +0.000 C 
ATOM      6  C   UNL     1       1.176  16.500  20.289  0.00  0.00    +0.000 C 
ATOM      7  C   UNL     1       0.750  15.015  20.176  0.00  0.00    +0.000 C 
ATOM      8  C   UNL     1      -0.685  14.854  20.652  0.00  0.00    +0.000 C 
ATOM      9  C   UNL     1      -1.218  13.725  19.863  0.00  0.00    +0.000 C 
ATOM     10  C   UNL     1      -0.433  12.482  20.271  0.00  0.00    +0.000 C 
ATOM     11  C   UNL     1      -1.336  11.355  19.915  0.00  0.00    +0.000 C 
ATOM     12  C   UNL     1      -1.100  10.114  19.122  0.00  0.00    +0.000 C 
ATOM     13  C   UNL     1       0.425   9.854  19.237  0.00  0.00    +0.000 C 
ATOM     14  C   UNL     1       1.317  10.898  20.197  0.00  0.00    +0.000 C 
ATOM     15  C   UNL     1       1.053  12.429  19.876  0.00  0.00    +0.000 C 
ATOM     16  C   UNL     1       1.507  12.552  18.410  0.00  0.00    +0.000 C 
ATOM     17  C   UNL     1       1.646  13.808  20.651  0.00  0.00    +0.000 C 
ATOM     18  C   UNL     1       3.098  14.285  20.457  0.00  0.00    +0.000 C 
ATOM     19  C   UNL     1       3.275  15.859  20.516  0.00  0.00    +0.000 C 
ATOM     20  C   UNL     1       2.472  16.880  19.400  0.00  0.00    +0.000 C 
ATOM     21  C   UNL     1       3.453  16.294  18.277  0.00  0.00    +0.000 C 
ENDROOT
BRANCH  12  22
ATOM     22  N   UNL     1      -1.940  10.154  17.829  0.00  0.00    +0.000 NA
ATOM     23  C   UNL     1      -2.261  11.486  17.252  0.00  0.00    +0.000 C 
ATOM     24  C   UNL     1      -3.787  11.655  17.172  0.00  0.00    +0.000 C 
ATOM     25  C   UNL     1      -4.300  10.239  17.133  0.00  0.00    +0.000 C 
ATOM     26  C   UNL     1      -3.286   9.487  17.996  0.00  0.00    +0.000 C 
ENDBRANCH  12  22
BRANCH   4  27
ATOM     27  O   UNL     1      -1.199  17.760  17.844  0.00  0.00    +0.000 OA
ATOM     28  H   UNL     1      -1.939  17.104  17.866  0.00  0.00    +0.000 HD
ENDBRANCH   4  27
TORSDOF 2
ENDMDL
