MODEL 1
REMARK VINA RESULT:      -8.2      0.000      0.000
REMARK  Name = 
REMARK  10 active torsions:
REMARK  status: ('A' for Active; 'I' for Inactive)
REMARK    1  A    between atoms: C_1  and  O_2
REMARK    2  A    between atoms: O_2  and  C_3
REMARK    3  A    between atoms: C_5  and  C_6
REMARK    4  A    between atoms: C_9  and  C_10
REMARK    5  A    between atoms: N_16  and  C_17
REMARK    6  A    between atoms: C_17  and  C_18
REMARK    7  A    between atoms: C_27  and  O_28
REMARK    8  A    between atoms: O_28  and  C_29
REMARK    9  A    between atoms: C_30  and  O_31
REMARK   10  A    between atoms: O_31  and  C_32
REMARK                            x       y       z     vdW  Elec       q    Type
REMARK                         _______ _______ _______ _____ _____    ______ ____
ROOT
ATOM      1  C   UNL     1       1.802   9.659  17.870  0.00  0.00    +0.000 C 
ATOM      2  C   UNL     1       2.492   8.534  18.101  0.00  0.00    +0.000 C 
ATOM      3  N   UNL     1       3.444   8.020  17.242  0.00  0.00    +0.000 NA
ATOM      4  C   UNL     1       3.794   6.881  17.767  0.00  0.00    +0.000 C 
ATOM      5  N   UNL     1       3.168   6.581  18.944  0.00  0.00    +0.000 N 
ATOM      6  C   UNL     1       2.338   7.625  19.268  0.00  0.00    +0.000 C 
ATOM      7  O   UNL     1       1.674   7.789  20.271  0.00  0.00    +0.000 OA
ENDROOT
BRANCH   1  10
ATOM      8  C   UNL     1       0.016  11.634  20.544  0.00  0.00    +0.000 A 
ATOM      9  C   UNL     1       1.014  10.907  19.865  0.00  0.00    +0.000 A 
ATOM     10  C   UNL     1       0.730  10.231  18.682  0.00  0.00    +0.000 A 
ATOM     11  C   UNL     1      -0.585  10.207  18.224  0.00  0.00    +0.000 A 
ATOM     12  C   UNL     1      -1.613  10.870  18.917  0.00  0.00    +0.000 A 
ATOM     13  C   UNL     1      -1.324  11.592  20.098  0.00  0.00    +0.000 A 
BRANCH   8  15
ATOM     14  C   UNL     1       0.941  13.653  21.357  0.00  0.00    +0.000 C 
ATOM     15  O   UNL     1       0.342  12.388  21.646  0.00  0.00    +0.000 OA
ENDBRANCH   8  15
BRANCH  12  16
ATOM     16  O   UNL     1      -2.821  10.726  18.273  0.00  0.00    +0.000 OA
ATOM     17  C   UNL     1      -2.985   9.693  17.314  0.00  0.00    +0.000 C 
ENDBRANCH  12  16
BRANCH  13  18
ATOM     18  O   UNL     1      -2.397  12.189  20.702  0.00  0.00    +0.000 OA
ATOM     19  C   UNL     1      -2.689  13.562  20.520  0.00  0.00    +0.000 C 
ENDBRANCH  13  18
ENDBRANCH   1  10
BRANCH   4  20
ATOM     20  C   UNL     1       4.794   5.992  17.124  0.00  0.00    +0.000 A 
ATOM     21  C   UNL     1       6.157   6.248  17.331  0.00  0.00    +0.000 A 
ATOM     22  C   UNL     1       7.127   5.435  16.730  0.00  0.00    +0.000 A 
ATOM     23  C   UNL     1       6.741   4.369  15.916  0.00  0.00    +0.000 A 
ATOM     24  C   UNL     1       5.389   4.126  15.690  0.00  0.00    +0.000 A 
ATOM     25  C   UNL     1       4.422   4.947  16.271  0.00  0.00    +0.000 A 
ENDBRANCH   4  20
BRANCH   5  26
ATOM     26  C   UNL     1       3.373   5.504  19.901  0.00  0.00    +0.000 C 
BRANCH  26  27
ATOM     27  C   UNL     1       2.740   4.196  19.473  0.00  0.00    +0.000 A 
ATOM     28  C   UNL     1       1.357   4.030  19.326  0.00  0.00    +0.000 A 
ATOM     29  C   UNL     1       0.864   2.781  18.983  0.00  0.00    +0.000 A 
ATOM     30  N   UNL     1       1.642   1.705  18.750  0.00  0.00    +0.000 NA
ATOM     31  C   UNL     1       2.973   1.883  18.879  0.00  0.00    +0.000 A 
ATOM     32  C   UNL     1       3.559   3.091  19.221  0.00  0.00    +0.000 A 
ENDBRANCH  26  27
ENDBRANCH   5  26
TORSDOF 7
ENDMDL
MODEL 2
REMARK VINA RESULT:      -8.2      0.342      1.229
REMARK  Name = 
REMARK  10 active torsions:
REMARK  status: ('A' for Active; 'I' for Inactive)
REMARK    1  A    between atoms: C_1  and  O_2
REMARK    2  A    between atoms: O_2  and  C_3
REMARK    3  A    between atoms: C_5  and  C_6
REMARK    4  A    between atoms: C_9  and  C_10
REMARK    5  A    between atoms: N_16  and  C_17
REMARK    6  A    between atoms: C_17  and  C_18
REMARK    7  A    between atoms: C_27  and  O_28
REMARK    8  A    between atoms: O_28  and  C_29
REMARK    9  A    between atoms: C_30  and  O_31
REMARK   10  A    between atoms: O_31  and  C_32
REMARK                            x       y       z     vdW  Elec       q    Type
REMARK                         _______ _______ _______ _____ _____    ______ ____
ROOT
ATOM      1  C   UNL     1       1.917   9.535  17.874  0.00  0.00    +0.000 C 
ATOM      2  C   UNL     1       2.599   8.410  18.124  0.00  0.00    +0.000 C 
ATOM      3  N   UNL     1       3.576   7.896  17.292  0.00  0.00    +0.000 NA
ATOM      4  C   UNL     1       3.910   6.757  17.826  0.00  0.00    +0.000 C 
ATOM      5  N   UNL     1       3.249   6.455  18.984  0.00  0.00    +0.000 N 
ATOM      6  C   UNL     1       2.409   7.499  19.284  0.00  0.00    +0.000 C 
ATOM      7  O   UNL     1       1.716   7.662  20.267  0.00  0.00    +0.000 OA
ENDROOT
BRANCH   1  10
ATOM      8  C   UNL     1       0.051  11.540  20.470  0.00  0.00    +0.000 A 
ATOM      9  C   UNL     1       1.074  10.815  19.825  0.00  0.00    +0.000 A 
ATOM     10  C   UNL     1       0.821  10.107  18.654  0.00  0.00    +0.000 A 
ATOM     11  C   UNL     1      -0.484  10.049  18.175  0.00  0.00    +0.000 A 
ATOM     12  C   UNL     1      -1.536  10.709  18.835  0.00  0.00    +0.000 A 
ATOM     13  C   UNL     1      -1.279  11.464  20.003  0.00  0.00    +0.000 A 
BRANCH   8  15
ATOM     14  C   UNL     1       0.957  13.579  21.254  0.00  0.00    +0.000 C 
ATOM     15  O   UNL     1       0.346  12.324  21.560  0.00  0.00    +0.000 OA
ENDBRANCH   8  15
BRANCH  12  16
ATOM     16  O   UNL     1      -2.730  10.530  18.174  0.00  0.00    +0.000 OA
ATOM     17  C   UNL     1      -2.949  11.185  16.935  0.00  0.00    +0.000 C 
ENDBRANCH  12  16
BRANCH  13  18
ATOM     18  O   UNL     1      -2.373  12.056  20.575  0.00  0.00    +0.000 OA
ATOM     19  C   UNL     1      -2.678  13.422  20.367  0.00  0.00    +0.000 C 
ENDBRANCH  13  18
ENDBRANCH   1  10
BRANCH   4  20
ATOM     20  C   UNL     1       4.928   5.867  17.212  0.00  0.00    +0.000 A 
ATOM     21  C   UNL     1       4.526   4.970  16.213  0.00  0.00    +0.000 A 
ATOM     22  C   UNL     1       5.459   4.110  15.620  0.00  0.00    +0.000 A 
ATOM     23  C   UNL     1       6.794   4.137  16.026  0.00  0.00    +0.000 A 
ATOM     24  C   UNL     1       7.192   5.010  17.034  0.00  0.00    +0.000 A 
ATOM     25  C   UNL     1       6.260   5.854  17.640  0.00  0.00    +0.000 A 
ENDBRANCH   4  20
BRANCH   5  26
ATOM     26  C   UNL     1       3.424   5.376  19.944  0.00  0.00    +0.000 C 
BRANCH  26  27
ATOM     27  C   UNL     1       2.819   4.065  19.488  0.00  0.00    +0.000 A 
ATOM     28  C   UNL     1       3.591   2.960  19.106  0.00  0.00    +0.000 A 
ATOM     29  C   UNL     1       2.949   1.819  18.650  0.00  0.00    +0.000 A 
ATOM     30  N   UNL     1       1.609   1.689  18.578  0.00  0.00    +0.000 NA
ATOM     31  C   UNL     1       0.878   2.754  18.964  0.00  0.00    +0.000 A 
ATOM     32  C   UNL     1       1.427   3.939  19.430  0.00  0.00    +0.000 A 
ENDBRANCH  26  27
ENDBRANCH   5  26
TORSDOF 7
ENDMDL
MODEL 3
REMARK VINA RESULT:      -8.1      0.690      1.108
REMARK  Name = 
REMARK  10 active torsions:
REMARK  status: ('A' for Active; 'I' for Inactive)
REMARK    1  A    between atoms: C_1  and  O_2
REMARK    2  A    between atoms: O_2  and  C_3
REMARK    3  A    between atoms: C_5  and  C_6
REMARK    4  A    between atoms: C_9  and  C_10
REMARK    5  A    between atoms: N_16  and  C_17
REMARK    6  A    between atoms: C_17  and  C_18
REMARK    7  A    between atoms: C_27  and  O_28
REMARK    8  A    between atoms: O_28  and  C_29
REMARK    9  A    between atoms: C_30  and  O_31
REMARK   10  A    between atoms: O_31  and  C_32
REMARK                            x       y       z     vdW  Elec       q    Type
REMARK                         _______ _______ _______ _____ _____    ______ ____
ROOT
ATOM      1  C   UNL     1       1.794   9.497  17.822  0.00  0.00    +0.000 C 
ATOM      2  C   UNL     1       2.493   8.395  18.120  0.00  0.00    +0.000 C 
ATOM      3  N   UNL     1       3.542   7.915  17.359  0.00  0.00    +0.000 NA
ATOM      4  C   UNL     1       3.875   6.787  17.917  0.00  0.00    +0.000 C 
ATOM      5  N   UNL     1       3.146   6.462  19.026  0.00  0.00    +0.000 N 
ATOM      6  C   UNL     1       2.253   7.477  19.265  0.00  0.00    +0.000 C 
ATOM      7  O   UNL     1       1.489   7.616  20.197  0.00  0.00    +0.000 OA
ENDROOT
BRANCH   1  10
ATOM      8  C   UNL     1      -0.317  11.295  20.383  0.00  0.00    +0.000 A 
ATOM      9  C   UNL     1       0.754  10.597  19.789  0.00  0.00    +0.000 A 
ATOM     10  C   UNL     1       0.627  10.032  18.524  0.00  0.00    +0.000 A 
ATOM     11  C   UNL     1      -0.609  10.086  17.886  0.00  0.00    +0.000 A 
ATOM     12  C   UNL     1      -1.713  10.719  18.485  0.00  0.00    +0.000 A 
ATOM     13  C   UNL     1      -1.581  11.331  19.753  0.00  0.00    +0.000 A 
BRANCH   8  15
ATOM     14  C   UNL     1      -0.701  11.283  22.717  0.00  0.00    +0.000 C 
ATOM     15  O   UNL     1      -0.136  11.943  21.581  0.00  0.00    +0.000 OA
ENDBRANCH   8  15
BRANCH  12  16
ATOM     16  O   UNL     1      -2.820  10.666  17.669  0.00  0.00    +0.000 OA
ATOM     17  C   UNL     1      -2.678  10.917  16.279  0.00  0.00    +0.000 C 
ENDBRANCH  12  16
BRANCH  13  18
ATOM     18  O   UNL     1      -2.717  11.907  20.251  0.00  0.00    +0.000 OA
ATOM     19  C   UNL     1      -2.873  13.312  20.326  0.00  0.00    +0.000 C 
ENDBRANCH  13  18
ENDBRANCH   1  10
BRANCH   4  20
ATOM     20  C   UNL     1       4.963   5.932  17.375  0.00  0.00    +0.000 A 
ATOM     21  C   UNL     1       6.259   6.085  17.888  0.00  0.00    +0.000 A 
ATOM     22  C   UNL     1       7.310   5.303  17.393  0.00  0.00    +0.000 A 
ATOM     23  C   UNL     1       7.074   4.372  16.380  0.00  0.00    +0.000 A 
ATOM     24  C   UNL     1       5.793   4.234  15.853  0.00  0.00    +0.000 A 
ATOM     25  C   UNL     1       4.749   5.026  16.331  0.00  0.00    +0.000 A 
ENDBRANCH   4  20
BRANCH   5  26
ATOM     26  C   UNL     1       3.290   5.389  19.997  0.00  0.00    +0.000 C 
BRANCH  26  27
ATOM     27  C   UNL     1       2.763   4.058  19.501  0.00  0.00    +0.000 A 
ATOM     28  C   UNL     1       3.599   2.990  19.149  0.00  0.00    +0.000 A 
ATOM     29  C   UNL     1       3.029   1.828  18.653  0.00  0.00    +0.000 A 
ATOM     30  N   UNL     1       1.700   1.643  18.512  0.00  0.00    +0.000 NA
ATOM     31  C   UNL     1       0.907   2.674  18.870  0.00  0.00    +0.000 A 
ATOM     32  C   UNL     1       1.383   3.875  19.372  0.00  0.00    +0.000 A 
ENDBRANCH  26  27
ENDBRANCH   5  26
TORSDOF 7
ENDMDL
MODEL 4
REMARK VINA RESULT:      -8.0      0.766      1.143
REMARK  Name = 
REMARK  10 active torsions:
REMARK  status: ('A' for Active; 'I' for Inactive)
REMARK    1  A    between atoms: C_1  and  O_2
REMARK    2  A    between atoms: O_2  and  C_3
REMARK    3  A    between atoms: C_5  and  C_6
REMARK    4  A    between atoms: C_9  and  C_10
REMARK    5  A    between atoms: N_16  and  C_17
REMARK    6  A    between atoms: C_17  and  C_18
REMARK    7  A    between atoms: C_27  and  O_28
REMARK    8  A    between atoms: O_28  and  C_29
REMARK    9  A    between atoms: C_30  and  O_31
REMARK   10  A    between atoms: O_31  and  C_32
REMARK                            x       y       z     vdW  Elec       q    Type
REMARK                         _______ _______ _______ _____ _____    ______ ____
ROOT
ATOM      1  C   UNL     1       1.872   9.545  17.851  0.00  0.00    +0.000 C 
ATOM      2  C   UNL     1       2.572   8.435  18.118  0.00  0.00    +0.000 C 
ATOM      3  N   UNL     1       3.637   7.992  17.358  0.00  0.00    +0.000 NA
ATOM      4  C   UNL     1       3.967   6.844  17.876  0.00  0.00    +0.000 C 
ATOM      5  N   UNL     1       3.219   6.471  18.958  0.00  0.00    +0.000 N 
ATOM      6  C   UNL     1       2.317   7.472  19.221  0.00  0.00    +0.000 C 
ATOM      7  O   UNL     1       1.535   7.570  20.144  0.00  0.00    +0.000 OA
ENDROOT
BRANCH   1  10
ATOM      8  C   UNL     1      -0.294  11.244  20.433  0.00  0.00    +0.000 A 
ATOM      9  C   UNL     1       0.793  10.576  19.834  0.00  0.00    +0.000 A 
ATOM     10  C   UNL     1       0.690  10.046  18.552  0.00  0.00    +0.000 A 
ATOM     11  C   UNL     1      -0.539  10.102  17.900  0.00  0.00    +0.000 A 
ATOM     12  C   UNL     1      -1.658  10.705  18.501  0.00  0.00    +0.000 A 
ATOM     13  C   UNL     1      -1.550  11.282  19.788  0.00  0.00    +0.000 A 
BRANCH   8  15
ATOM     14  C   UNL     1      -0.707  11.160  22.761  0.00  0.00    +0.000 C 
ATOM     15  O   UNL     1      -0.137  11.860  21.652  0.00  0.00    +0.000 OA
ENDBRANCH   8  15
BRANCH  12  16
ATOM     16  O   UNL     1      -2.754  10.662  17.669  0.00  0.00    +0.000 OA
ATOM     17  C   UNL     1      -2.584  10.876  16.277  0.00  0.00    +0.000 C 
ENDBRANCH  12  16
BRANCH  13  18
ATOM     18  O   UNL     1      -2.700  11.831  20.287  0.00  0.00    +0.000 OA
ATOM     19  C   UNL     1      -2.909  13.230  20.319  0.00  0.00    +0.000 C 
ENDBRANCH  13  18
ENDBRANCH   1  10
BRANCH   4  20
ATOM     20  C   UNL     1       5.069   6.017  17.322  0.00  0.00    +0.000 A 
ATOM     21  C   UNL     1       4.867   5.352  16.105  0.00  0.00    +0.000 A 
ATOM     22  C   UNL     1       5.882   4.556  15.559  0.00  0.00    +0.000 A 
ATOM     23  C   UNL     1       7.099   4.415  16.228  0.00  0.00    +0.000 A 
ATOM     24  C   UNL     1       7.294   5.055  17.448  0.00  0.00    +0.000 A 
ATOM     25  C   UNL     1       6.277   5.833  18.003  0.00  0.00    +0.000 A 
ENDBRANCH   4  20
BRANCH   5  26
ATOM     26  C   UNL     1       3.352   5.361  19.888  0.00  0.00    +0.000 C 
BRANCH  26  27
ATOM     27  C   UNL     1       2.551   4.141  19.482  0.00  0.00    +0.000 A 
ATOM     28  C   UNL     1       1.277   3.860  19.991  0.00  0.00    +0.000 A 
ATOM     29  C   UNL     1       0.642   2.691  19.601  0.00  0.00    +0.000 A 
ATOM     30  N   UNL     1       1.166   1.806  18.729  0.00  0.00    +0.000 NA
ATOM     31  C   UNL     1       2.386   2.097  18.235  0.00  0.00    +0.000 A 
ATOM     32  C   UNL     1       3.101   3.238  18.566  0.00  0.00    +0.000 A 
ENDBRANCH  26  27
ENDBRANCH   5  26
TORSDOF 7
ENDMDL
MODEL 5
REMARK VINA RESULT:      -8.0      0.427      2.577
REMARK  Name = 
REMARK  10 active torsions:
REMARK  status: ('A' for Active; 'I' for Inactive)
REMARK    1  A    between atoms: C_1  and  O_2
REMARK    2  A    between atoms: O_2  and  C_3
REMARK    3  A    between atoms: C_5  and  C_6
REMARK    4  A    between atoms: C_9  and  C_10
REMARK    5  A    between atoms: N_16  and  C_17
REMARK    6  A    between atoms: C_17  and  C_18
REMARK    7  A    between atoms: C_27  and  O_28
REMARK    8  A    between atoms: O_28  and  C_29
REMARK    9  A    between atoms: C_30  and  O_31
REMARK   10  A    between atoms: O_31  and  C_32
REMARK                            x       y       z     vdW  Elec       q    Type
REMARK                         _______ _______ _______ _____ _____    ______ ____
ROOT
ATOM      1  C   UNL     1       2.077   9.597  17.691  0.00  0.00    +0.000 C 
ATOM      2  C   UNL     1       2.710   8.460  18.009  0.00  0.00    +0.000 C 
ATOM      3  N   UNL     1       3.721   7.901  17.251  0.00  0.00    +0.000 NA
ATOM      4  C   UNL     1       3.989   6.766  17.831  0.00  0.00    +0.000 C 
ATOM      5  N   UNL     1       3.249   6.510  18.951  0.00  0.00    +0.000 N 
ATOM      6  C   UNL     1       2.423   7.583  19.174  0.00  0.00    +0.000 C 
ATOM      7  O   UNL     1       1.675   7.788  20.108  0.00  0.00    +0.000 OA
ENDROOT
BRANCH   1  10
ATOM      8  C   UNL     1      -1.450  10.402  18.765  0.00  0.00    +0.000 A 
ATOM      9  C   UNL     1      -0.358   9.979  17.981  0.00  0.00    +0.000 A 
ATOM     10  C   UNL     1       0.951  10.217  18.388  0.00  0.00    +0.000 A 
ATOM     11  C   UNL     1       1.169  10.965  19.542  0.00  0.00    +0.000 A 
ATOM     12  C   UNL     1       0.096  11.456  20.308  0.00  0.00    +0.000 A 
ATOM     13  C   UNL     1      -1.237  11.183  19.922  0.00  0.00    +0.000 A 
BRANCH   8  15
ATOM     14  C   UNL     1      -2.934   9.869  17.001  0.00  0.00    +0.000 C 
ATOM     15  O   UNL     1      -2.731  10.057  18.403  0.00  0.00    +0.000 OA
ENDBRANCH   8  15
BRANCH  12  16
ATOM     16  O   UNL     1       0.546  12.148  21.409  0.00  0.00    +0.000 OA
ATOM     17  C   UNL     1       0.811  13.538  21.303  0.00  0.00    +0.000 C 
ENDBRANCH  12  16
BRANCH  13  18
ATOM     18  O   UNL     1      -2.205  11.717  20.728  0.00  0.00    +0.000 OA
ATOM     19  C   UNL     1      -2.826  12.954  20.434  0.00  0.00    +0.000 C 
ENDBRANCH  13  18
ENDBRANCH   1  10
BRANCH   4  20
ATOM     20  C   UNL     1       5.018   5.835  17.301  0.00  0.00    +0.000 A 
ATOM     21  C   UNL     1       4.707   5.051  16.182  0.00  0.00    +0.000 A 
ATOM     22  C   UNL     1       5.650   4.155  15.663  0.00  0.00    +0.000 A 
ATOM     23  C   UNL     1       6.905   4.034  16.263  0.00  0.00    +0.000 A 
ATOM     24  C   UNL     1       7.209   4.794  17.389  0.00  0.00    +0.000 A 
ATOM     25  C   UNL     1       6.263   5.672  17.919  0.00  0.00    +0.000 A 
ENDBRANCH   4  20
BRANCH   5  26
ATOM     26  C   UNL     1       3.334   5.450  19.944  0.00  0.00    +0.000 C 
BRANCH  26  27
ATOM     27  C   UNL     1       2.645   4.171  19.515  0.00  0.00    +0.000 A 
ATOM     28  C   UNL     1       3.324   3.106  18.909  0.00  0.00    +0.000 A 
ATOM     29  C   UNL     1       2.600   1.996  18.500  0.00  0.00    +0.000 A 
ATOM     30  N   UNL     1       1.271   1.860  18.676  0.00  0.00    +0.000 NA
ATOM     31  C   UNL     1       0.633   2.886  19.275  0.00  0.00    +0.000 A 
ATOM     32  C   UNL     1       1.268   4.037  19.715  0.00  0.00    +0.000 A 
ENDBRANCH  26  27
ENDBRANCH   5  26
TORSDOF 7
ENDMDL
MODEL 6
REMARK VINA RESULT:      -7.9      0.315      2.307
REMARK  Name = 
REMARK  10 active torsions:
REMARK  status: ('A' for Active; 'I' for Inactive)
REMARK    1  A    between atoms: C_1  and  O_2
REMARK    2  A    between atoms: O_2  and  C_3
REMARK    3  A    between atoms: C_5  and  C_6
REMARK    4  A    between atoms: C_9  and  C_10
REMARK    5  A    between atoms: N_16  and  C_17
REMARK    6  A    between atoms: C_17  and  C_18
REMARK    7  A    between atoms: C_27  and  O_28
REMARK    8  A    between atoms: O_28  and  C_29
REMARK    9  A    between atoms: C_30  and  O_31
REMARK   10  A    between atoms: O_31  and  C_32
REMARK                            x       y       z     vdW  Elec       q    Type
REMARK                         _______ _______ _______ _____ _____    ______ ____
ROOT
ATOM      1  C   UNL     1       1.945   9.783  17.793  0.00  0.00    +0.000 C 
ATOM      2  C   UNL     1       2.541   8.626  18.114  0.00  0.00    +0.000 C 
ATOM      3  N   UNL     1       3.530   8.030  17.356  0.00  0.00    +0.000 NA
ATOM      4  C   UNL     1       3.761   6.889  17.940  0.00  0.00    +0.000 C 
ATOM      5  N   UNL     1       3.017   6.663  19.064  0.00  0.00    +0.000 N 
ATOM      6  C   UNL     1       2.228   7.765  19.285  0.00  0.00    +0.000 C 
ATOM      7  O   UNL     1       1.491   8.000  20.220  0.00  0.00    +0.000 OA
ENDROOT
BRANCH   1  10
ATOM      8  C   UNL     1      -1.549  10.716  18.870  0.00  0.00    +0.000 A 
ATOM      9  C   UNL     1      -0.474  10.252  18.086  0.00  0.00    +0.000 A 
ATOM     10  C   UNL     1       0.843  10.443  18.491  0.00  0.00    +0.000 A 
ATOM     11  C   UNL     1       1.089  11.184  19.644  0.00  0.00    +0.000 A 
ATOM     12  C   UNL     1       0.036  11.714  20.411  0.00  0.00    +0.000 A 
ATOM     13  C   UNL     1      -1.306  11.489  20.027  0.00  0.00    +0.000 A 
BRANCH   8  15
ATOM     14  C   UNL     1      -2.981   9.750  17.255  0.00  0.00    +0.000 C 
ATOM     15  O   UNL     1      -2.842  10.418  18.511  0.00  0.00    +0.000 OA
ENDBRANCH   8  15
BRANCH  12  16
ATOM     16  O   UNL     1       0.512  12.390  21.511  0.00  0.00    +0.000 OA
ATOM     17  C   UNL     1       1.019  13.707  21.359  0.00  0.00    +0.000 C 
ENDBRANCH  12  16
BRANCH  13  18
ATOM     18  O   UNL     1      -2.254  12.058  20.833  0.00  0.00    +0.000 OA
ATOM     19  C   UNL     1      -2.751  13.362  20.599  0.00  0.00    +0.000 C 
ENDBRANCH  13  18
ENDBRANCH   1  10
BRANCH   4  20
ATOM     20  C   UNL     1       4.756   5.921  17.412  0.00  0.00    +0.000 A 
ATOM     21  C   UNL     1       6.070   5.972  17.897  0.00  0.00    +0.000 A 
ATOM     22  C   UNL     1       7.036   5.082  17.413  0.00  0.00    +0.000 A 
ATOM     23  C   UNL     1       6.697   4.142  16.438  0.00  0.00    +0.000 A 
ATOM     24  C   UNL     1       5.399   4.105  15.936  0.00  0.00    +0.000 A 
ATOM     25  C   UNL     1       4.440   5.004  16.403  0.00  0.00    +0.000 A 
ENDBRANCH   4  20
BRANCH   5  26
ATOM     26  C   UNL     1       3.069   5.606  20.062  0.00  0.00    +0.000 C 
BRANCH  26  27
ATOM     27  C   UNL     1       2.668   4.250  19.519  0.00  0.00    +0.000 A 
ATOM     28  C   UNL     1       1.382   3.972  19.037  0.00  0.00    +0.000 A 
ATOM     29  C   UNL     1       1.090   2.686  18.609  0.00  0.00    +0.000 A 
ATOM     30  N   UNL     1       1.985   1.677  18.598  0.00  0.00    +0.000 NA
ATOM     31  C   UNL     1       3.223   1.963  19.050  0.00  0.00    +0.000 A 
ATOM     32  C   UNL     1       3.609   3.216  19.501  0.00  0.00    +0.000 A 
ENDBRANCH  26  27
ENDBRANCH   5  26
TORSDOF 7
ENDMDL
MODEL 7
REMARK VINA RESULT:      -7.5      2.912      8.705
REMARK  Name = 
REMARK  10 active torsions:
REMARK  status: ('A' for Active; 'I' for Inactive)
REMARK    1  A    between atoms: C_1  and  O_2
REMARK    2  A    between atoms: O_2  and  C_3
REMARK    3  A    between atoms: C_5  and  C_6
REMARK    4  A    between atoms: C_9  and  C_10
REMARK    5  A    between atoms: N_16  and  C_17
REMARK    6  A    between atoms: C_17  and  C_18
REMARK    7  A    between atoms: C_27  and  O_28
REMARK    8  A    between atoms: O_28  and  C_29
REMARK    9  A    between atoms: C_30  and  O_31
REMARK   10  A    between atoms: O_31  and  C_32
REMARK                            x       y       z     vdW  Elec       q    Type
REMARK                         _______ _______ _______ _____ _____    ______ ____
ROOT
ATOM      1  C   UNL     1       2.624   7.104  19.806  0.00  0.00    +0.000 C 
ATOM      2  C   UNL     1       1.906   8.235  19.809  0.00  0.00    +0.000 C 
ATOM      3  N   UNL     1       1.387   8.819  20.948  0.00  0.00    +0.000 NA
ATOM      4  C   UNL     1       0.675   9.822  20.520  0.00  0.00    +0.000 C 
ATOM      5  N   UNL     1       0.684   9.988  19.163  0.00  0.00    +0.000 N 
ATOM      6  C   UNL     1       1.502   9.029  18.618  0.00  0.00    +0.000 C 
ATOM      7  O   UNL     1       1.846   8.887  17.463  0.00  0.00    +0.000 OA
ENDROOT
BRANCH   1  10
ATOM      8  C   UNL     1       4.828   6.124  16.904  0.00  0.00    +0.000 A 
ATOM      9  C   UNL     1       4.187   6.901  17.890  0.00  0.00    +0.000 A 
ATOM     10  C   UNL     1       3.144   6.379  18.648  0.00  0.00    +0.000 A 
ATOM     11  C   UNL     1       2.678   5.100  18.356  0.00  0.00    +0.000 A 
ATOM     12  C   UNL     1       3.256   4.327  17.333  0.00  0.00    +0.000 A 
ATOM     13  C   UNL     1       4.344   4.836  16.586  0.00  0.00    +0.000 A 
BRANCH   8  15
ATOM     14  C   UNL     1       7.045   6.930  17.085  0.00  0.00    +0.000 C 
ATOM     15  O   UNL     1       5.930   6.618  16.247  0.00  0.00    +0.000 OA
ENDBRANCH   8  15
BRANCH  12  16
ATOM     16  O   UNL     1       2.650   3.096  17.236  0.00  0.00    +0.000 OA
ATOM     17  C   UNL     1       1.700   2.704  18.215  0.00  0.00    +0.000 C 
ENDBRANCH  12  16
BRANCH  13  18
ATOM     18  O   UNL     1       4.825   4.009  15.607  0.00  0.00    +0.000 OA
ATOM     19  C   UNL     1       6.183   3.613  15.563  0.00  0.00    +0.000 C 
ENDBRANCH  13  18
ENDBRANCH   1  10
BRANCH   4  20
ATOM     20  C   UNL     1      -0.081  10.703  21.445  0.00  0.00    +0.000 A 
ATOM     21  C   UNL     1       0.109  12.089  21.363  0.00  0.00    +0.000 A 
ATOM     22  C   UNL     1      -0.580  12.948  22.228  0.00  0.00    +0.000 A 
ATOM     23  C   UNL     1      -1.456  12.428  23.182  0.00  0.00    +0.000 A 
ATOM     24  C   UNL     1      -1.629  11.050  23.282  0.00  0.00    +0.000 A 
ATOM     25  C   UNL     1      -0.929  10.192  22.434  0.00  0.00    +0.000 A 
ENDBRANCH   4  20
BRANCH   5  26
ATOM     26  C   UNL     1       0.151  11.043  18.315  0.00  0.00    +0.000 C 
BRANCH  26  27
ATOM     27  C   UNL     1      -1.322  10.872  18.003  0.00  0.00    +0.000 A 
ATOM     28  C   UNL     1      -1.808   9.884  17.138  0.00  0.00    +0.000 A 
ATOM     29  C   UNL     1      -3.168   9.838  16.869  0.00  0.00    +0.000 A 
ATOM     30  N   UNL     1      -4.070  10.676  17.419  0.00  0.00    +0.000 NA
ATOM     31  C   UNL     1      -3.590  11.612  18.262  0.00  0.00    +0.000 A 
ATOM     32  C   UNL     1      -2.249  11.739  18.589  0.00  0.00    +0.000 A 
ENDBRANCH  26  27
ENDBRANCH   5  26
TORSDOF 7
ENDMDL
MODEL 8
REMARK VINA RESULT:      -7.5      2.911      8.799
REMARK  Name = 
REMARK  10 active torsions:
REMARK  status: ('A' for Active; 'I' for Inactive)
REMARK    1  A    between atoms: C_1  and  O_2
REMARK    2  A    between atoms: O_2  and  C_3
REMARK    3  A    between atoms: C_5  and  C_6
REMARK    4  A    between atoms: C_9  and  C_10
REMARK    5  A    between atoms: N_16  and  C_17
REMARK    6  A    between atoms: C_17  and  C_18
REMARK    7  A    between atoms: C_27  and  O_28
REMARK    8  A    between atoms: O_28  and  C_29
REMARK    9  A    between atoms: C_30  and  O_31
REMARK   10  A    between atoms: O_31  and  C_32
REMARK                            x       y       z     vdW  Elec       q    Type
REMARK                         _______ _______ _______ _____ _____    ______ ____
ROOT
ATOM      1  C   UNL     1       1.992   7.274  20.742  0.00  0.00    +0.000 C 
ATOM      2  C   UNL     1       1.403   8.463  20.559  0.00  0.00    +0.000 C 
ATOM      3  N   UNL     1       0.956   9.271  21.586  0.00  0.00    +0.000 NA
ATOM      4  C   UNL     1       0.356  10.265  20.998  0.00  0.00    +0.000 C 
ATOM      5  N   UNL     1       0.376  10.215  19.632  0.00  0.00    +0.000 N 
ATOM      6  C   UNL     1       1.081   9.099  19.254  0.00  0.00    +0.000 C 
ATOM      7  O   UNL     1       1.401   8.741  18.139  0.00  0.00    +0.000 OA
ENDROOT
BRANCH   1  10
ATOM      8  C   UNL     1       4.214   5.275  18.437  0.00  0.00    +0.000 A 
ATOM      9  C   UNL     1       3.740   6.312  19.266  0.00  0.00    +0.000 A 
ATOM     10  C   UNL     1       2.424   6.324  19.718  0.00  0.00    +0.000 A 
ATOM     11  C   UNL     1       1.550   5.341  19.262  0.00  0.00    +0.000 A 
ATOM     12  C   UNL     1       1.980   4.332  18.382  0.00  0.00    +0.000 A 
ATOM     13  C   UNL     1       3.326   4.290  17.951  0.00  0.00    +0.000 A 
BRANCH   8  15
ATOM     14  C   UNL     1       6.454   5.334  19.192  0.00  0.00    +0.000 C 
ATOM     15  O   UNL     1       5.545   5.220  18.096  0.00  0.00    +0.000 OA
ENDBRANCH   8  15
BRANCH  12  16
ATOM     16  O   UNL     1       0.955   3.463  18.082  0.00  0.00    +0.000 OA
ATOM     17  C   UNL     1       0.659   2.397  18.970  0.00  0.00    +0.000 C 
ENDBRANCH  12  16
BRANCH  13  18
ATOM     18  O   UNL     1       3.637   3.276  17.087  0.00  0.00    +0.000 OA
ATOM     19  C   UNL     1       3.967   1.978  17.543  0.00  0.00    +0.000 C 
ENDBRANCH  13  18
ENDBRANCH   1  10
BRANCH   4  20
ATOM     20  C   UNL     1      -0.295  11.358  21.765  0.00  0.00    +0.000 A 
ATOM     21  C   UNL     1      -1.357  11.041  22.622  0.00  0.00    +0.000 A 
ATOM     22  C   UNL     1      -2.000  12.048  23.352  0.00  0.00    +0.000 A 
ATOM     23  C   UNL     1      -1.590  13.376  23.225  0.00  0.00    +0.000 A 
ATOM     24  C   UNL     1      -0.550  13.698  22.357  0.00  0.00    +0.000 A 
ATOM     25  C   UNL     1       0.078  12.698  21.614  0.00  0.00    +0.000 A 
ENDBRANCH   4  20
BRANCH   5  26
ATOM     26  C   UNL     1      -0.044  11.175  18.623  0.00  0.00    +0.000 C 
BRANCH  26  27
ATOM     27  C   UNL     1      -1.476  10.977  18.168  0.00  0.00    +0.000 A 
ATOM     28  C   UNL     1      -1.841  10.052  17.181  0.00  0.00    +0.000 A 
ATOM     29  C   UNL     1      -3.170   9.979  16.791  0.00  0.00    +0.000 A 
ATOM     30  N   UNL     1      -4.153  10.729  17.327  0.00  0.00    +0.000 NA
ATOM     31  C   UNL     1      -3.789  11.604  18.287  0.00  0.00    +0.000 A 
ATOM     32  C   UNL     1      -2.488  11.752  18.742  0.00  0.00    +0.000 A 
ENDBRANCH  26  27
ENDBRANCH   5  26
TORSDOF 7
ENDMDL
MODEL 9
REMARK VINA RESULT:      -7.4      2.811      8.854
REMARK  Name = 
REMARK  10 active torsions:
REMARK  status: ('A' for Active; 'I' for Inactive)
REMARK    1  A    between atoms: C_1  and  O_2
REMARK    2  A    between atoms: O_2  and  C_3
REMARK    3  A    between atoms: C_5  and  C_6
REMARK    4  A    between atoms: C_9  and  C_10
REMARK    5  A    between atoms: N_16  and  C_17
REMARK    6  A    between atoms: C_17  and  C_18
REMARK    7  A    between atoms: C_27  and  O_28
REMARK    8  A    between atoms: O_28  and  C_29
REMARK    9  A    between atoms: C_30  and  O_31
REMARK   10  A    between atoms: O_31  and  C_32
REMARK                            x       y       z     vdW  Elec       q    Type
REMARK                         _______ _______ _______ _____ _____    ______ ____
ROOT
ATOM      1  C   UNL     1       2.156   6.954  20.873  0.00  0.00    +0.000 C 
ATOM      2  C   UNL     1       1.581   8.143  20.647  0.00  0.00    +0.000 C 
ATOM      3  N   UNL     1       1.051   8.946  21.638  0.00  0.00    +0.000 NA
ATOM      4  C   UNL     1       0.499   9.942  21.007  0.00  0.00    +0.000 C 
ATOM      5  N   UNL     1       0.630   9.897  19.647  0.00  0.00    +0.000 N 
ATOM      6  C   UNL     1       1.366   8.784  19.323  0.00  0.00    +0.000 C 
ATOM      7  O   UNL     1       1.777   8.431  18.237  0.00  0.00    +0.000 OA
ENDROOT
BRANCH   1  10
ATOM      8  C   UNL     1       2.277   4.237  18.256  0.00  0.00    +0.000 A 
ATOM      9  C   UNL     1       1.854   5.017  19.351  0.00  0.00    +0.000 A 
ATOM     10  C   UNL     1       2.672   6.009  19.883  0.00  0.00    +0.000 A 
ATOM     11  C   UNL     1       3.959   6.160  19.375  0.00  0.00    +0.000 A 
ATOM     12  C   UNL     1       4.431   5.352  18.326  0.00  0.00    +0.000 A 
ATOM     13  C   UNL     1       3.590   4.369  17.753  0.00  0.00    +0.000 A 
BRANCH   8  15
ATOM     14  C   UNL     1       0.871   2.360  18.558  0.00  0.00    +0.000 C 
ATOM     15  O   UNL     1       1.412   3.343  17.672  0.00  0.00    +0.000 OA
ENDBRANCH   8  15
BRANCH  12  16
ATOM     16  O   UNL     1       5.717   5.690  17.975  0.00  0.00    +0.000 OA
ATOM     17  C   UNL     1       6.781   5.425  18.876  0.00  0.00    +0.000 C 
ENDBRANCH  12  16
BRANCH  13  18
ATOM     18  O   UNL     1       4.149   3.629  16.747  0.00  0.00    +0.000 OA
ATOM     19  C   UNL     1       4.852   4.231  15.676  0.00  0.00    +0.000 C 
ENDBRANCH  13  18
ENDBRANCH   1  10
BRANCH   4  20
ATOM     20  C   UNL     1      -0.214  11.030  21.723  0.00  0.00    +0.000 A 
ATOM     21  C   UNL     1       0.182  12.356  21.501  0.00  0.00    +0.000 A 
ATOM     22  C   UNL     1      -0.462  13.406  22.168  0.00  0.00    +0.000 A 
ATOM     23  C   UNL     1      -1.498  13.136  23.063  0.00  0.00    +0.000 A 
ATOM     24  C   UNL     1      -1.878  11.819  23.304  0.00  0.00    +0.000 A 
ATOM     25  C   UNL     1      -1.225  10.770  22.655  0.00  0.00    +0.000 A 
ENDBRANCH   4  20
BRANCH   5  26
ATOM     26  C   UNL     1       0.293  10.861  18.611  0.00  0.00    +0.000 C 
BRANCH  26  27
ATOM     27  C   UNL     1      -1.171  10.832  18.221  0.00  0.00    +0.000 A 
ATOM     28  C   UNL     1      -2.117  11.724  18.742  0.00  0.00    +0.000 A 
ATOM     29  C   UNL     1      -3.445  11.587  18.368  0.00  0.00    +0.000 A 
ATOM     30  N   UNL     1      -3.888  10.656  17.500  0.00  0.00    +0.000 NA
ATOM     31  C   UNL     1      -2.964   9.814  16.994  0.00  0.00    +0.000 A 
ATOM     32  C   UNL     1      -1.616   9.869  17.310  0.00  0.00    +0.000 A 
ENDBRANCH  26  27
ENDBRANCH   5  26
TORSDOF 7
ENDMDL
