MODEL 1
REMARK VINA RESULT:      -8.2      0.000      0.000
REMARK  Name = 
REMARK  7 active torsions:
REMARK  status: ('A' for Active; 'I' for Inactive)
REMARK    1  A    between atoms: C_1  and  C_2
REMARK    2  A    between atoms: C_2  and  C_3
REMARK    3  A    between atoms: C_2  and  C_4
REMARK    4  A    between atoms: C_10  and  C_11
REMARK    5  A    between atoms: C_14  and  C_15
REMARK    6  A    between atoms: N_18  and  C_19
REMARK    7  A    between atoms: C_19  and  C_20
REMARK                            x       y       z     vdW  Elec       q    Type
REMARK                         _______ _______ _______ _____ _____    ______ ____
ROOT
ATOM      1  C   UNL     1       1.905   6.211  20.047  0.00  0.00    +0.000 A 
ATOM      2  N   UNL     1       2.183   5.905  21.311  0.00  0.00    +0.000 NA
ATOM      3  N   UNL     1       2.207   4.532  21.428  0.00  0.00    +0.000 NA
ATOM      4  C   UNL     1       1.939   4.058  20.233  0.00  0.00    +0.000 A 
ATOM      5  O   UNL     1       1.672   5.046  19.334  0.00  0.00    +0.000 OA
ENDROOT
BRANCH   1  12
ATOM      6  C   UNL     1       0.110  10.152  21.020  0.00  0.00    +0.000 A 
ATOM      7  C   UNL     1       0.546  10.767  19.868  0.00  0.00    +0.000 A 
ATOM      8  N   UNL     1       1.280   9.825  19.189  0.00  0.00    +0.000 N 
ATOM      9  C   UNL     1       1.930   9.936  17.970  0.00  0.00    +0.000 A 
ATOM     10  C   UNL     1       2.588   8.871  17.482  0.00  0.00    +0.000 A 
ATOM     11  C   UNL     1       2.578   7.633  18.245  0.00  0.00    +0.000 A 
ATOM     12  C   UNL     1       1.939   7.508  19.435  0.00  0.00    +0.000 A 
ATOM     13  C   UNL     1       1.259   8.664  19.961  0.00  0.00    +0.000 A 
ATOM     14  N   UNL     1       0.561   8.852  21.067  0.00  0.00    +0.000 NA
BRANCH   6  16
ATOM     15  C   UNL     1      -0.640   9.958  23.417  0.00  0.00    +0.000 C 
ATOM     16  C   UNL     1      -0.806  10.676  22.082  0.00  0.00    +0.000 C 
ATOM     17  C   UNL     1      -0.591  12.176  22.268  0.00  0.00    +0.000 C 
ENDBRANCH   6  16
ENDBRANCH   1  12
BRANCH   4  18
ATOM     18  C   UNL     1       2.143   2.666  19.725  0.00  0.00    +0.000 C 
ATOM     19  C   UNL     1       3.617   2.281  19.881  0.00  0.00    +0.000 C 
ATOM     20  C   UNL     1       4.494   3.039  18.883  0.00  0.00    +0.000 C 
ATOM     21  N   UNL     1       4.091   2.777  17.489  0.00  0.00    +0.000 NA
ATOM     22  C   UNL     1       2.669   3.081  17.256  0.00  0.00    +0.000 C 
ATOM     23  C   UNL     1       1.724   2.436  18.274  0.00  0.00    +0.000 C 
BRANCH  21  24
ATOM     24  C   UNL     1       4.957   3.574  16.590  0.00  0.00    +0.000 C 
BRANCH  24  25
ATOM     25  C   UNL     1       5.568   4.842  17.219  0.00  0.00    +0.000 C 
ATOM     26  C   UNL     1       5.276   6.109  16.407  0.00  0.00    +0.000 C 
ATOM     27  C   UNL     1       6.029   7.313  16.968  0.00  0.00    +0.000 C 
ATOM     28  O   UNL     1       7.424   7.052  17.126  0.00  0.00    +0.000 OA
ATOM     29  C   UNL     1       7.668   5.943  17.987  0.00  0.00    +0.000 C 
ATOM     30  C   UNL     1       7.086   4.687  17.361  0.00  0.00    +0.000 C 
ENDBRANCH  24  25
ENDBRANCH  21  24
ENDBRANCH   4  18
TORSDOF 5
ENDMDL
MODEL 2
REMARK VINA RESULT:      -8.0      3.477      8.821
REMARK  Name = 
REMARK  7 active torsions:
REMARK  status: ('A' for Active; 'I' for Inactive)
REMARK    1  A    between atoms: C_1  and  C_2
REMARK    2  A    between atoms: C_2  and  C_3
REMARK    3  A    between atoms: C_2  and  C_4
REMARK    4  A    between atoms: C_10  and  C_11
REMARK    5  A    between atoms: C_14  and  C_15
REMARK    6  A    between atoms: N_18  and  C_19
REMARK    7  A    between atoms: C_19  and  C_20
REMARK                            x       y       z     vdW  Elec       q    Type
REMARK                         _______ _______ _______ _____ _____    ______ ____
ROOT
ATOM      1  C   UNL     1       2.846   7.715  17.984  0.00  0.00    +0.000 A 
ATOM      2  N   UNL     1       2.554   8.621  17.054  0.00  0.00    +0.000 NA
ATOM      3  N   UNL     1       1.755   9.586  17.628  0.00  0.00    +0.000 NA
ATOM      4  C   UNL     1       1.590   9.228  18.880  0.00  0.00    +0.000 A 
ATOM      5  O   UNL     1       2.186   8.036  19.159  0.00  0.00    +0.000 OA
ENDROOT
BRANCH   1  12
ATOM      6  C   UNL     1       2.757   3.429  19.134  0.00  0.00    +0.000 A 
ATOM      7  C   UNL     1       4.070   3.189  18.795  0.00  0.00    +0.000 A 
ATOM      8  N   UNL     1       4.552   4.370  18.284  0.00  0.00    +0.000 N 
ATOM      9  C   UNL     1       5.819   4.662  17.806  0.00  0.00    +0.000 A 
ATOM     10  C   UNL     1       6.078   5.902  17.357  0.00  0.00    +0.000 A 
ATOM     11  C   UNL     1       5.019   6.898  17.407  0.00  0.00    +0.000 A 
ATOM     12  C   UNL     1       3.777   6.628  17.881  0.00  0.00    +0.000 A 
ATOM     13  C   UNL     1       3.504   5.289  18.336  0.00  0.00    +0.000 A 
ATOM     14  N   UNL     1       2.418   4.731  18.841  0.00  0.00    +0.000 NA
BRANCH   6  16
ATOM     15  C   UNL     1       1.383   3.025  21.206  0.00  0.00    +0.000 C 
ATOM     16  C   UNL     1       1.779   2.527  19.820  0.00  0.00    +0.000 C 
ATOM     17  C   UNL     1       0.533   2.349  18.957  0.00  0.00    +0.000 C 
ENDBRANCH   6  16
ENDBRANCH   1  12
BRANCH   4  18
ATOM     18  C   UNL     1       1.085  10.058  20.018  0.00  0.00    +0.000 C 
ATOM     19  C   UNL     1      -0.330   9.603  20.387  0.00  0.00    +0.000 C 
ATOM     20  C   UNL     1      -1.340  10.016  19.315  0.00  0.00    +0.000 C 
ATOM     21  N   UNL     1      -1.360  11.475  19.112  0.00  0.00    +0.000 NA
ATOM     22  C   UNL     1      -0.025  12.010  18.792  0.00  0.00    +0.000 C 
ATOM     23  C   UNL     1       1.069  11.564  19.766  0.00  0.00    +0.000 C 
BRANCH  21  24
ATOM     24  C   UNL     1      -2.328  11.789  18.036  0.00  0.00    +0.000 C 
BRANCH  24  25
ATOM     25  C   UNL     1      -3.805  11.512  18.379  0.00  0.00    +0.000 C 
ATOM     26  C   UNL     1      -4.748  11.759  17.195  0.00  0.00    +0.000 C 
ATOM     27  C   UNL     1      -6.210  11.633  17.615  0.00  0.00    +0.000 C 
ATOM     28  O   UNL     1      -6.515  12.435  18.758  0.00  0.00    +0.000 OA
ATOM     29  C   UNL     1      -5.706  12.098  19.882  0.00  0.00    +0.000 C 
ATOM     30  C   UNL     1      -4.250  12.388  19.555  0.00  0.00    +0.000 C 
ENDBRANCH  24  25
ENDBRANCH  21  24
ENDBRANCH   4  18
TORSDOF 5
ENDMDL
MODEL 3
REMARK VINA RESULT:      -8.0      1.753      3.283
REMARK  Name = 
REMARK  7 active torsions:
REMARK  status: ('A' for Active; 'I' for Inactive)
REMARK    1  A    between atoms: C_1  and  C_2
REMARK    2  A    between atoms: C_2  and  C_3
REMARK    3  A    between atoms: C_2  and  C_4
REMARK    4  A    between atoms: C_10  and  C_11
REMARK    5  A    between atoms: C_14  and  C_15
REMARK    6  A    between atoms: N_18  and  C_19
REMARK    7  A    between atoms: C_19  and  C_20
REMARK                            x       y       z     vdW  Elec       q    Type
REMARK                         _______ _______ _______ _____ _____    ______ ____
ROOT
ATOM      1  C   UNL     1       1.218   8.165  20.861  0.00  0.00    +0.000 A 
ATOM      2  N   UNL     1       1.929   8.096  19.738  0.00  0.00    +0.000 NA
ATOM      3  N   UNL     1       2.305   6.785  19.544  0.00  0.00    +0.000 NA
ATOM      4  C   UNL     1       1.813   6.110  20.558  0.00  0.00    +0.000 A 
ATOM      5  O   UNL     1       1.179   6.914  21.456  0.00  0.00    +0.000 OA
ENDROOT
BRANCH   1  12
ATOM      6  C   UNL     1       0.846  12.417  19.644  0.00  0.00    +0.000 A 
ATOM      7  C   UNL     1       0.076  12.782  20.726  0.00  0.00    +0.000 A 
ATOM      8  N   UNL     1      -0.129  11.633  21.451  0.00  0.00    +0.000 N 
ATOM      9  C   UNL     1      -0.833  11.459  22.631  0.00  0.00    +0.000 A 
ATOM     10  C   UNL     1      -0.898  10.233  23.178  0.00  0.00    +0.000 A 
ATOM     11  C   UNL     1      -0.210   9.135  22.516  0.00  0.00    +0.000 A 
ATOM     12  C   UNL     1       0.490   9.293  21.365  0.00  0.00    +0.000 A 
ATOM     13  C   UNL     1       0.531  10.607  20.774  0.00  0.00    +0.000 A 
ATOM     14  N   UNL     1       1.117  11.068  19.684  0.00  0.00    +0.000 NA
BRANCH   6  16
ATOM     15  C   UNL     1       1.822  14.670  19.083  0.00  0.00    +0.000 C 
ATOM     16  C   UNL     1       1.447  13.280  18.579  0.00  0.00    +0.000 C 
ATOM     17  C   UNL     1       2.674  12.597  17.980  0.00  0.00    +0.000 C 
ENDBRANCH   6  16
ENDBRANCH   1  12
BRANCH   4  18
ATOM     18  C   UNL     1       1.651   4.628  20.688  0.00  0.00    +0.000 C 
ATOM     19  C   UNL     1       3.033   3.968  20.717  0.00  0.00    +0.000 C 
ATOM     20  C   UNL     1       3.700   4.023  19.341  0.00  0.00    +0.000 C 
ATOM     21  N   UNL     1       2.888   3.353  18.310  0.00  0.00    +0.000 NA
ATOM     22  C   UNL     1       1.521   3.898  18.238  0.00  0.00    +0.000 C 
ATOM     23  C   UNL     1       0.812   3.968  19.594  0.00  0.00    +0.000 C 
BRANCH  21  24
ATOM     24  C   UNL     1       3.579   3.484  17.007  0.00  0.00    +0.000 C 
BRANCH  24  25
ATOM     25  C   UNL     1       4.870   4.326  17.028  0.00  0.00    +0.000 C 
ATOM     26  C   UNL     1       4.608   5.824  16.836  0.00  0.00    +0.000 C 
ATOM     27  C   UNL     1       5.914   6.603  16.700  0.00  0.00    +0.000 C 
ATOM     28  O   UNL     1       6.774   6.047  15.705  0.00  0.00    +0.000 OA
ATOM     29  C   UNL     1       7.102   4.687  15.977  0.00  0.00    +0.000 C 
ATOM     30  C   UNL     1       5.834   3.850  15.936  0.00  0.00    +0.000 C 
ENDBRANCH  24  25
ENDBRANCH  21  24
ENDBRANCH   4  18
TORSDOF 5
ENDMDL
MODEL 4
REMARK VINA RESULT:      -7.9      2.431      7.230
REMARK  Name = 
REMARK  7 active torsions:
REMARK  status: ('A' for Active; 'I' for Inactive)
REMARK    1  A    between atoms: C_1  and  C_2
REMARK    2  A    between atoms: C_2  and  C_3
REMARK    3  A    between atoms: C_2  and  C_4
REMARK    4  A    between atoms: C_10  and  C_11
REMARK    5  A    between atoms: C_14  and  C_15
REMARK    6  A    between atoms: N_18  and  C_19
REMARK    7  A    between atoms: C_19  and  C_20
REMARK                            x       y       z     vdW  Elec       q    Type
REMARK                         _______ _______ _______ _____ _____    ______ ____
ROOT
ATOM      1  C   UNL     1       4.400   3.270  17.865  0.00  0.00    +0.000 A 
ATOM      2  N   UNL     1       3.777   2.343  17.143  0.00  0.00    +0.000 NA
ATOM      3  N   UNL     1       2.806   1.763  17.931  0.00  0.00    +0.000 NA
ATOM      4  C   UNL     1       2.881   2.356  19.100  0.00  0.00    +0.000 A 
ATOM      5  O   UNL     1       3.897   3.261  19.156  0.00  0.00    +0.000 OA
ENDROOT
BRANCH   1  12
ATOM      6  C   UNL     1       6.348   4.102  13.964  0.00  0.00    +0.000 A 
ATOM      7  C   UNL     1       7.190   5.072  14.458  0.00  0.00    +0.000 A 
ATOM      8  N   UNL     1       6.876   5.206  15.789  0.00  0.00    +0.000 N 
ATOM      9  C   UNL     1       7.437   6.045  16.738  0.00  0.00    +0.000 A 
ATOM     10  C   UNL     1       6.977   6.003  18.000  0.00  0.00    +0.000 A 
ATOM     11  C   UNL     1       5.916   5.063  18.326  0.00  0.00    +0.000 A 
ATOM     12  C   UNL     1       5.363   4.230  17.408  0.00  0.00    +0.000 A 
ATOM     13  C   UNL     1       5.847   4.302  16.053  0.00  0.00    +0.000 A 
ATOM     14  N   UNL     1       5.519   3.636  14.960  0.00  0.00    +0.000 NA
BRANCH   6  16
ATOM     15  C   UNL     1       4.906   3.410  12.017  0.00  0.00    +0.000 C 
ATOM     16  C   UNL     1       6.314   3.486  12.600  0.00  0.00    +0.000 C 
ATOM     17  C   UNL     1       7.227   4.258  11.652  0.00  0.00    +0.000 C 
ENDBRANCH   6  16
ENDBRANCH   1  12
BRANCH   4  18
ATOM     18  C   UNL     1       1.876   2.341  20.209  0.00  0.00    +0.000 C 
ATOM     19  C   UNL     1       0.642   3.141  19.783  0.00  0.00    +0.000 C 
ATOM     20  C   UNL     1       0.942   4.640  19.745  0.00  0.00    +0.000 C 
ATOM     21  N   UNL     1       1.394   5.144  21.054  0.00  0.00    +0.000 NA
ATOM     22  C   UNL     1       2.560   4.401  21.563  0.00  0.00    +0.000 C 
ATOM     23  C   UNL     1       2.378   2.881  21.547  0.00  0.00    +0.000 C 
BRANCH  21  24
ATOM     24  C   UNL     1       1.702   6.587  20.923  0.00  0.00    +0.000 C 
BRANCH  24  25
ATOM     25  C   UNL     1       1.773   7.117  19.478  0.00  0.00    +0.000 C 
ATOM     26  C   UNL     1       3.159   6.941  18.846  0.00  0.00    +0.000 C 
ATOM     27  C   UNL     1       3.237   7.620  17.480  0.00  0.00    +0.000 C 
ATOM     28  O   UNL     1       2.806   8.981  17.529  0.00  0.00    +0.000 OA
ATOM     29  C   UNL     1       1.467   9.103  18.003  0.00  0.00    +0.000 C 
ATOM     30  C   UNL     1       1.397   8.602  19.436  0.00  0.00    +0.000 C 
ENDBRANCH  24  25
ENDBRANCH  21  24
ENDBRANCH   4  18
TORSDOF 5
ENDMDL
MODEL 5
REMARK VINA RESULT:      -7.9      3.016      8.361
REMARK  Name = 
REMARK  7 active torsions:
REMARK  status: ('A' for Active; 'I' for Inactive)
REMARK    1  A    between atoms: C_1  and  C_2
REMARK    2  A    between atoms: C_2  and  C_3
REMARK    3  A    between atoms: C_2  and  C_4
REMARK    4  A    between atoms: C_10  and  C_11
REMARK    5  A    between atoms: C_14  and  C_15
REMARK    6  A    between atoms: N_18  and  C_19
REMARK    7  A    between atoms: C_19  and  C_20
REMARK                            x       y       z     vdW  Elec       q    Type
REMARK                         _______ _______ _______ _____ _____    ______ ____
ROOT
ATOM      1  C   UNL     1       2.373   7.984  18.217  0.00  0.00    +0.000 A 
ATOM      2  N   UNL     1       1.862   8.960  17.469  0.00  0.00    +0.000 NA
ATOM      3  N   UNL     1       1.200   9.838  18.300  0.00  0.00    +0.000 NA
ATOM      4  C   UNL     1       1.330   9.360  19.516  0.00  0.00    +0.000 A 
ATOM      5  O   UNL     1       1.992   8.170  19.536  0.00  0.00    +0.000 OA
ENDROOT
BRANCH   1  12
ATOM      6  C   UNL     1       2.586   3.602  18.891  0.00  0.00    +0.000 A 
ATOM      7  C   UNL     1       3.797   3.445  18.256  0.00  0.00    +0.000 A 
ATOM      8  N   UNL     1       4.143   4.688  17.784  0.00  0.00    +0.000 N 
ATOM      9  C   UNL     1       5.273   5.071  17.079  0.00  0.00    +0.000 A 
ATOM     10  C   UNL     1       5.413   6.359  16.722  0.00  0.00    +0.000 A 
ATOM     11  C   UNL     1       4.379   7.307  17.104  0.00  0.00    +0.000 A 
ATOM     12  C   UNL     1       3.272   6.947  17.801  0.00  0.00    +0.000 A 
ATOM     13  C   UNL     1       3.120   5.559  18.156  0.00  0.00    +0.000 A 
ATOM     14  N   UNL     1       2.176   4.914  18.820  0.00  0.00    +0.000 NA
BRANCH   6  16
ATOM     15  C   UNL     1       1.332   3.131  21.025  0.00  0.00    +0.000 C 
ATOM     16  C   UNL     1       1.791   2.601  19.670  0.00  0.00    +0.000 C 
ATOM     17  C   UNL     1       0.583   2.142  18.857  0.00  0.00    +0.000 C 
ENDBRANCH   6  16
ENDBRANCH   1  12
BRANCH   4  18
ATOM     18  C   UNL     1       1.085  10.063  20.815  0.00  0.00    +0.000 C 
ATOM     19  C   UNL     1      -0.326   9.731  21.311  0.00  0.00    +0.000 C 
ATOM     20  C   UNL     1      -1.389  10.420  20.454  0.00  0.00    +0.000 C 
ATOM     21  N   UNL     1      -1.230  11.885  20.454  0.00  0.00    +0.000 NA
ATOM     22  C   UNL     1       0.119  12.298  20.027  0.00  0.00    +0.000 C 
ATOM     23  C   UNL     1       1.249  11.581  20.772  0.00  0.00    +0.000 C 
BRANCH  21  24
ATOM     24  C   UNL     1      -2.266  12.472  19.574  0.00  0.00    +0.000 C 
BRANCH  24  25
ATOM     25  C   UNL     1      -2.877  11.505  18.541  0.00  0.00    +0.000 C 
ATOM     26  C   UNL     1      -2.139  11.523  17.198  0.00  0.00    +0.000 C 
ATOM     27  C   UNL     1      -2.866  10.679  16.153  0.00  0.00    +0.000 C 
ATOM     28  O   UNL     1      -4.246  11.027  16.044  0.00  0.00    +0.000 OA
ATOM     29  C   UNL     1      -4.937  10.882  17.282  0.00  0.00    +0.000 C 
ATOM     30  C   UNL     1      -4.351  11.848  18.298  0.00  0.00    +0.000 C 
ENDBRANCH  24  25
ENDBRANCH  21  24
ENDBRANCH   4  18
TORSDOF 5
ENDMDL
MODEL 6
REMARK VINA RESULT:      -7.8      2.668      9.033
REMARK  Name = 
REMARK  7 active torsions:
REMARK  status: ('A' for Active; 'I' for Inactive)
REMARK    1  A    between atoms: C_1  and  C_2
REMARK    2  A    between atoms: C_2  and  C_3
REMARK    3  A    between atoms: C_2  and  C_4
REMARK    4  A    between atoms: C_10  and  C_11
REMARK    5  A    between atoms: C_14  and  C_15
REMARK    6  A    between atoms: N_18  and  C_19
REMARK    7  A    between atoms: C_19  and  C_20
REMARK                            x       y       z     vdW  Elec       q    Type
REMARK                         _______ _______ _______ _____ _____    ______ ____
ROOT
ATOM      1  C   UNL     1       1.958   7.078  20.082  0.00  0.00    +0.000 A 
ATOM      2  N   UNL     1       1.452   7.779  21.094  0.00  0.00    +0.000 NA
ATOM      3  N   UNL     1       1.093   9.022  20.621  0.00  0.00    +0.000 NA
ATOM      4  C   UNL     1       1.400   9.030  19.344  0.00  0.00    +0.000 A 
ATOM      5  O   UNL     1       2.005   7.876  18.951  0.00  0.00    +0.000 OA
ENDROOT
BRANCH   1  12
ATOM      6  C   UNL     1       5.139   4.687  18.115  0.00  0.00    +0.000 A 
ATOM      7  C   UNL     1       4.655   3.472  18.545  0.00  0.00    +0.000 A 
ATOM      8  N   UNL     1       3.561   3.754  19.327  0.00  0.00    +0.000 N 
ATOM      9  C   UNL     1       2.714   2.881  19.991  0.00  0.00    +0.000 A 
ATOM     10  C   UNL     1       1.687   3.381  20.699  0.00  0.00    +0.000 A 
ATOM     11  C   UNL     1       1.493   4.822  20.727  0.00  0.00    +0.000 A 
ATOM     12  C   UNL     1       2.309   5.687  20.074  0.00  0.00    +0.000 A 
ATOM     13  C   UNL     1       3.422   5.142  19.340  0.00  0.00    +0.000 A 
ATOM     14  N   UNL     1       4.369   5.712  18.617  0.00  0.00    +0.000 NA
BRANCH   6  16
ATOM     15  C   UNL     1       7.627   4.614  17.725  0.00  0.00    +0.000 C 
ATOM     16  C   UNL     1       6.257   4.975  17.162  0.00  0.00    +0.000 C 
ATOM     17  C   UNL     1       6.026   4.237  15.845  0.00  0.00    +0.000 C 
ENDBRANCH   6  16
ENDBRANCH   1  12
BRANCH   4  18
ATOM     18  C   UNL     1       0.945   9.993  18.292  0.00  0.00    +0.000 C 
ATOM     19  C   UNL     1       1.735  11.298  18.425  0.00  0.00    +0.000 C 
ATOM     20  C   UNL     1       1.310  12.077  19.671  0.00  0.00    +0.000 C 
ATOM     21  N   UNL     1      -0.127  12.404  19.650  0.00  0.00    +0.000 NA
ATOM     22  C   UNL     1      -0.968  11.206  19.482  0.00  0.00    +0.000 C 
ATOM     23  C   UNL     1      -0.548  10.315  18.309  0.00  0.00    +0.000 C 
BRANCH  21  24
ATOM     24  C   UNL     1      -0.467  13.118  20.902  0.00  0.00    +0.000 C 
BRANCH  24  25
ATOM     25  C   UNL     1      -1.850  12.786  21.494  0.00  0.00    +0.000 C 
ATOM     26  C   UNL     1      -2.866  13.919  21.308  0.00  0.00    +0.000 C 
ATOM     27  C   UNL     1      -4.170  13.622  22.046  0.00  0.00    +0.000 C 
ATOM     28  O   UNL     1      -3.950  13.280  23.415  0.00  0.00    +0.000 OA
ATOM     29  C   UNL     1      -3.100  12.144  23.554  0.00  0.00    +0.000 C 
ATOM     30  C   UNL     1      -1.728  12.475  22.990  0.00  0.00    +0.000 C 
ENDBRANCH  24  25
ENDBRANCH  21  24
ENDBRANCH   4  18
TORSDOF 5
ENDMDL
MODEL 7
REMARK VINA RESULT:      -7.7      5.175      7.327
REMARK  Name = 
REMARK  7 active torsions:
REMARK  status: ('A' for Active; 'I' for Inactive)
REMARK    1  A    between atoms: C_1  and  C_2
REMARK    2  A    between atoms: C_2  and  C_3
REMARK    3  A    between atoms: C_2  and  C_4
REMARK    4  A    between atoms: C_10  and  C_11
REMARK    5  A    between atoms: C_14  and  C_15
REMARK    6  A    between atoms: N_18  and  C_19
REMARK    7  A    between atoms: C_19  and  C_20
REMARK                            x       y       z     vdW  Elec       q    Type
REMARK                         _______ _______ _______ _____ _____    ______ ____
ROOT
ATOM      1  C   UNL     1       8.646   9.253  18.582  0.00  0.00    +0.000 A 
ATOM      2  N   UNL     1       8.896   8.136  19.260  0.00  0.00    +0.000 NA
ATOM      3  N   UNL     1       8.176   7.112  18.684  0.00  0.00    +0.000 NA
ATOM      4  C   UNL     1       7.515   7.647  17.684  0.00  0.00    +0.000 A 
ATOM      5  O   UNL     1       7.706   8.993  17.599  0.00  0.00    +0.000 OA
ENDROOT
BRANCH   1  12
ATOM      6  C   UNL     1       9.050  12.186  21.890  0.00  0.00    +0.000 A 
ATOM      7  C   UNL     1       9.701  13.131  21.130  0.00  0.00    +0.000 A 
ATOM      8  N   UNL     1       9.858  12.574  19.884  0.00  0.00    +0.000 N 
ATOM      9  C   UNL     1      10.446  13.117  18.753  0.00  0.00    +0.000 A 
ATOM     10  C   UNL     1      10.481  12.389  17.623  0.00  0.00    +0.000 A 
ATOM     11  C   UNL     1       9.884  11.063  17.626  0.00  0.00    +0.000 A 
ATOM     12  C   UNL     1       9.298  10.523  18.725  0.00  0.00    +0.000 A 
ATOM     13  C   UNL     1       9.289  11.302  19.937  0.00  0.00    +0.000 A 
ATOM     14  N   UNL     1       8.803  11.057  21.141  0.00  0.00    +0.000 NA
BRANCH   6  16
ATOM     15  C   UNL     1       8.575  13.716  23.834  0.00  0.00    +0.000 C 
ATOM     16  C   UNL     1       8.538  12.290  23.293  0.00  0.00    +0.000 C 
ATOM     17  C   UNL     1       7.116  11.741  23.376  0.00  0.00    +0.000 C 
ENDBRANCH   6  16
ENDBRANCH   1  12
BRANCH   4  18
ATOM     18  C   UNL     1       6.838   6.949  16.546  0.00  0.00    +0.000 C 
ATOM     19  C   UNL     1       5.320   7.074  16.706  0.00  0.00    +0.000 C 
ATOM     20  C   UNL     1       4.814   6.209  17.861  0.00  0.00    +0.000 C 
ATOM     21  N   UNL     1       5.145   4.785  17.668  0.00  0.00    +0.000 NA
ATOM     22  C   UNL     1       6.588   4.573  17.463  0.00  0.00    +0.000 C 
ATOM     23  C   UNL     1       7.198   5.473  16.384  0.00  0.00    +0.000 C 
BRANCH  21  24
ATOM     24  C   UNL     1       4.659   4.024  18.842  0.00  0.00    +0.000 C 
BRANCH  24  25
ATOM     25  C   UNL     1       3.126   3.950  18.989  0.00  0.00    +0.000 C 
ATOM     26  C   UNL     1       2.633   4.461  20.347  0.00  0.00    +0.000 C 
ATOM     27  C   UNL     1       1.135   4.222  20.520  0.00  0.00    +0.000 C 
ATOM     28  O   UNL     1       0.771   2.865  20.260  0.00  0.00    +0.000 OA
ATOM     29  C   UNL     1       1.131   2.456  18.943  0.00  0.00    +0.000 C 
ATOM     30  C   UNL     1       2.643   2.508  18.800  0.00  0.00    +0.000 C 
ENDBRANCH  24  25
ENDBRANCH  21  24
ENDBRANCH   4  18
TORSDOF 5
ENDMDL
MODEL 8
REMARK VINA RESULT:      -7.7      3.741      9.488
REMARK  Name = 
REMARK  7 active torsions:
REMARK  status: ('A' for Active; 'I' for Inactive)
REMARK    1  A    between atoms: C_1  and  C_2
REMARK    2  A    between atoms: C_2  and  C_3
REMARK    3  A    between atoms: C_2  and  C_4
REMARK    4  A    between atoms: C_10  and  C_11
REMARK    5  A    between atoms: C_14  and  C_15
REMARK    6  A    between atoms: N_18  and  C_19
REMARK    7  A    between atoms: C_19  and  C_20
REMARK                            x       y       z     vdW  Elec       q    Type
REMARK                         _______ _______ _______ _____ _____    ______ ____
ROOT
ATOM      1  C   UNL     1       2.262   7.955  18.538  0.00  0.00    +0.000 A 
ATOM      2  N   UNL     1       2.509   8.699  17.463  0.00  0.00    +0.000 NA
ATOM      3  N   UNL     1       1.932   9.936  17.654  0.00  0.00    +0.000 NA
ATOM      4  C   UNL     1       1.354   9.893  18.832  0.00  0.00    +0.000 A 
ATOM      5  O   UNL     1       1.460   8.667  19.415  0.00  0.00    +0.000 OA
ENDROOT
BRANCH   1  12
ATOM      6  C   UNL     1       5.153   5.240  16.544  0.00  0.00    +0.000 A 
ATOM      7  C   UNL     1       4.984   4.210  17.441  0.00  0.00    +0.000 A 
ATOM      8  N   UNL     1       4.098   4.669  18.385  0.00  0.00    +0.000 N 
ATOM      9  C   UNL     1       3.592   4.017  19.499  0.00  0.00    +0.000 A 
ATOM     10  C   UNL     1       2.718   4.662  20.290  0.00  0.00    +0.000 A 
ATOM     11  C   UNL     1       2.323   6.017  19.938  0.00  0.00    +0.000 A 
ATOM     12  C   UNL     1       2.804   6.663  18.847  0.00  0.00    +0.000 A 
ATOM     13  C   UNL     1       3.760   5.972  18.020  0.00  0.00    +0.000 A 
ATOM     14  N   UNL     1       4.393   6.326  16.915  0.00  0.00    +0.000 NA
BRANCH   6  16
ATOM     15  C   UNL     1       7.427   5.049  15.477  0.00  0.00    +0.000 C 
ATOM     16  C   UNL     1       5.932   5.261  15.266  0.00  0.00    +0.000 C 
ATOM     17  C   UNL     1       5.389   4.208  14.303  0.00  0.00    +0.000 C 
ENDBRANCH   6  16
ENDBRANCH   1  12
BRANCH   4  18
ATOM     18  C   UNL     1       0.862  11.038  19.661  0.00  0.00    +0.000 C 
ATOM     19  C   UNL     1      -0.411  10.616  20.402  0.00  0.00    +0.000 C 
ATOM     20  C   UNL     1      -1.592  10.483  19.439  0.00  0.00    +0.000 C 
ATOM     21  N   UNL     1      -1.865  11.745  18.728  0.00  0.00    +0.000 NA
ATOM     22  C   UNL     1      -0.679  12.251  18.017  0.00  0.00    +0.000 C 
ATOM     23  C   UNL     1       0.579  12.325  18.888  0.00  0.00    +0.000 C 
BRANCH  21  24
ATOM     24  C   UNL     1      -2.990  11.525  17.790  0.00  0.00    +0.000 C 
BRANCH  24  25
ATOM     25  C   UNL     1      -4.384  11.446  18.443  0.00  0.00    +0.000 C 
ATOM     26  C   UNL     1      -5.523  11.711  17.451  0.00  0.00    +0.000 C 
ATOM     27  C   UNL     1      -6.872  11.786  18.162  0.00  0.00    +0.000 C 
ATOM     28  O   UNL     1      -6.855  12.699  19.260  0.00  0.00    +0.000 OA
ATOM     29  C   UNL     1      -5.868  12.354  20.229  0.00  0.00    +0.000 C 
ATOM     30  C   UNL     1      -4.490  12.451  19.595  0.00  0.00    +0.000 C 
ENDBRANCH  24  25
ENDBRANCH  21  24
ENDBRANCH   4  18
TORSDOF 5
ENDMDL
MODEL 9
REMARK VINA RESULT:      -7.6      3.584      8.300
REMARK  Name = 
REMARK  7 active torsions:
REMARK  status: ('A' for Active; 'I' for Inactive)
REMARK    1  A    between atoms: C_1  and  C_2
REMARK    2  A    between atoms: C_2  and  C_3
REMARK    3  A    between atoms: C_2  and  C_4
REMARK    4  A    between atoms: C_10  and  C_11
REMARK    5  A    between atoms: C_14  and  C_15
REMARK    6  A    between atoms: N_18  and  C_19
REMARK    7  A    between atoms: C_19  and  C_20
REMARK                            x       y       z     vdW  Elec       q    Type
REMARK                         _______ _______ _______ _____ _____    ______ ____
ROOT
ATOM      1  C   UNL     1       1.991   8.082  19.335  0.00  0.00    +0.000 A 
ATOM      2  N   UNL     1       1.830   8.009  20.654  0.00  0.00    +0.000 NA
ATOM      3  N   UNL     1       0.894   8.949  21.028  0.00  0.00    +0.000 NA
ATOM      4  C   UNL     1       0.527   9.558  19.924  0.00  0.00    +0.000 A 
ATOM      5  O   UNL     1       1.218   9.118  18.836  0.00  0.00    +0.000 OA
ENDROOT
BRANCH   1  12
ATOM      6  C   UNL     1       2.325   3.668  19.013  0.00  0.00    +0.000 A 
ATOM      7  C   UNL     1       3.326   3.695  18.068  0.00  0.00    +0.000 A 
ATOM      8  N   UNL     1       3.551   5.021  17.790  0.00  0.00    +0.000 N 
ATOM      9  C   UNL     1       4.461   5.588  16.913  0.00  0.00    +0.000 A 
ATOM     10  C   UNL     1       4.517   6.926  16.805  0.00  0.00    +0.000 A 
ATOM     11  C   UNL     1       3.629   7.732  17.628  0.00  0.00    +0.000 A 
ATOM     12  C   UNL     1       2.739   7.190  18.497  0.00  0.00    +0.000 A 
ATOM     13  C   UNL     1       2.670   5.754  18.585  0.00  0.00    +0.000 A 
ATOM     14  N   UNL     1       1.925   4.948  19.322  0.00  0.00    +0.000 NA
BRANCH   6  16
ATOM     15  C   UNL     1       1.362   2.828  21.183  0.00  0.00    +0.000 C 
ATOM     16  C   UNL     1       1.750   2.496  19.746  0.00  0.00    +0.000 C 
ATOM     17  C   UNL     1       0.539   1.949  18.995  0.00  0.00    +0.000 C 
ENDBRANCH   6  16
ENDBRANCH   1  12
BRANCH   4  18
ATOM     18  C   UNL     1      -0.669  10.430  19.706  0.00  0.00    +0.000 C 
ATOM     19  C   UNL     1      -0.449  11.290  18.458  0.00  0.00    +0.000 C 
ATOM     20  C   UNL     1       0.601  12.373  18.712  0.00  0.00    +0.000 C 
ATOM     21  N   UNL     1       0.217  13.260  19.824  0.00  0.00    +0.000 NA
ATOM     22  C   UNL     1      -0.057  12.511  21.063  0.00  0.00    +0.000 C 
ATOM     23  C   UNL     1      -1.030  11.343  20.877  0.00  0.00    +0.000 C 
BRANCH  21  24
ATOM     24  C   UNL     1       1.298  14.251  20.033  0.00  0.00    +0.000 C 
BRANCH  24  25
ATOM     25  C   UNL     1       1.622  15.136  18.814  0.00  0.00    +0.000 C 
ATOM     26  C   UNL     1       3.106  15.102  18.430  0.00  0.00    +0.000 C 
ATOM     27  C   UNL     1       3.417  16.112  17.327  0.00  0.00    +0.000 C 
ATOM     28  O   UNL     1       2.946  17.422  17.645  0.00  0.00    +0.000 OA
ATOM     29  C   UNL     1       1.539  17.445  17.875  0.00  0.00    +0.000 C 
ATOM     30  C   UNL     1       1.218  16.589  19.089  0.00  0.00    +0.000 C 
ENDBRANCH  24  25
ENDBRANCH  21  24
ENDBRANCH   4  18
TORSDOF 5
ENDMDL
