MODEL 1
REMARK VINA RESULT:      -6.6      0.000      0.000
REMARK  Name = 
REMARK  7 active torsions:
REMARK  status: ('A' for Active; 'I' for Inactive)
REMARK    1  A    between atoms: C_1  and  N_2
REMARK    2  A    between atoms: N_2  and  C_3
REMARK    3  A    between atoms: N_2  and  C_4
REMARK    4  A    between atoms: N_2  and  C_5
REMARK    5  A    between atoms: C_5  and  C_6
REMARK    6  A    between atoms: C_10  and  C_11
REMARK    7  A    between atoms: C_10  and  C_17
REMARK                            x       y       z     vdW  Elec       q    Type
REMARK                         _______ _______ _______ _____ _____    ______ ____
ROOT
ATOM      1  C   UNL     1       5.380   6.579  16.285  0.00  0.00    +0.000 C 
ATOM      2  C   UNL     1       6.546   6.421  17.260  0.00  0.00    +0.000 C 
ATOM      3  O   UNL     1       6.251   5.435  18.247  0.00  0.00    +0.000 OA
ATOM      4  C   UNL     1       5.138   5.869  19.057  0.00  0.00    +0.000 C 
ATOM      5  C   UNL     1       3.817   5.957  18.232  0.00  0.00    +0.000 C 
ATOM      6  O   UNL     1       4.127   6.818  17.048  0.00  0.00    +0.000 OA
ENDROOT
BRANCH   5   7
ATOM      7  C   UNL     1       2.791   6.713  19.117  0.00  0.00    +0.000 A 
ATOM      8  C   UNL     1       2.290   6.158  20.307  0.00  0.00    +0.000 A 
ATOM      9  C   UNL     1       1.380   6.866  21.107  0.00  0.00    +0.000 A 
ATOM     10  C   UNL     1       0.947   8.135  20.733  0.00  0.00    +0.000 A 
ATOM     11  C   UNL     1       1.429   8.698  19.544  0.00  0.00    +0.000 A 
ATOM     12  C   UNL     1       2.331   7.986  18.745  0.00  0.00    +0.000 A 
ENDBRANCH   5   7
BRANCH   5  13
ATOM     13  C   UNL     1       3.201   4.542  17.751  0.00  0.00    +0.000 C 
ATOM     14  C   UNL     1       3.934   3.249  18.169  0.00  0.00    +0.000 C 
ATOM     15  C   UNL     1       3.273   2.294  19.144  0.00  0.00    +0.000 C 
ATOM     16  C   UNL     1       1.772   2.363  19.308  0.00  0.00    +0.000 C 
ATOM     17  C   UNL     1       0.984   3.213  18.335  0.00  0.00    +0.000 C 
ATOM     18  C   UNL     1       1.674   4.366  17.614  0.00  0.00    +0.000 C 
ENDBRANCH   5  13
BRANCH   1  19
ATOM     19  C   UNL     1       5.086   5.413  15.325  0.00  0.00    +0.000 C 
BRANCH  19  21
ATOM     20  C   UNL     1       5.378   3.889  13.261  0.00  0.00    +0.000 C 
ATOM     21  N   UNL     1       6.004   4.528  14.485  0.00  0.00    +0.000 N 
ATOM     22  C   UNL     1       6.322   3.356  15.471  0.00  0.00    +0.000 C 
ATOM     23  C   UNL     1       7.320   5.177  14.092  0.00  0.00    +0.000 C 
ENDBRANCH  19  21
ENDBRANCH   1  19
TORSDOF 4
ENDMDL
MODEL 2
REMARK VINA RESULT:      -6.5      0.096      1.008
REMARK  Name = 
REMARK  7 active torsions:
REMARK  status: ('A' for Active; 'I' for Inactive)
REMARK    1  A    between atoms: C_1  and  N_2
REMARK    2  A    between atoms: N_2  and  C_3
REMARK    3  A    between atoms: N_2  and  C_4
REMARK    4  A    between atoms: N_2  and  C_5
REMARK    5  A    between atoms: C_5  and  C_6
REMARK    6  A    between atoms: C_10  and  C_11
REMARK    7  A    between atoms: C_10  and  C_17
REMARK                            x       y       z     vdW  Elec       q    Type
REMARK                         _______ _______ _______ _____ _____    ______ ____
ROOT
ATOM      1  C   UNL     1       5.369   6.565  16.270  0.00  0.00    +0.000 C 
ATOM      2  C   UNL     1       6.557   6.419  17.220  0.00  0.00    +0.000 C 
ATOM      3  O   UNL     1       6.296   5.422  18.206  0.00  0.00    +0.000 OA
ATOM      4  C   UNL     1       5.193   5.834  19.041  0.00  0.00    +0.000 C 
ATOM      5  C   UNL     1       3.855   5.908  18.243  0.00  0.00    +0.000 C 
ATOM      6  O   UNL     1       4.128   6.781  17.058  0.00  0.00    +0.000 OA
ENDROOT
BRANCH   5   7
ATOM      7  C   UNL     1       2.835   6.643  19.152  0.00  0.00    +0.000 A 
ATOM      8  C   UNL     1       2.363   7.930  18.844  0.00  0.00    +0.000 A 
ATOM      9  C   UNL     1       1.423   8.570  19.667  0.00  0.00    +0.000 A 
ATOM     10  C   UNL     1       0.941   7.943  20.813  0.00  0.00    +0.000 A 
ATOM     11  C   UNL     1       1.410   6.663  21.139  0.00  0.00    +0.000 A 
ATOM     12  C   UNL     1       2.353   6.031  20.321  0.00  0.00    +0.000 A 
ENDBRANCH   5   7
BRANCH   5  13
ATOM     13  C   UNL     1       3.251   4.486  17.764  0.00  0.00    +0.000 C 
ATOM     14  C   UNL     1       3.981   3.200  18.205  0.00  0.00    +0.000 C 
ATOM     15  C   UNL     1       3.306   2.251  19.178  0.00  0.00    +0.000 C 
ATOM     16  C   UNL     1       1.802   2.317  19.317  0.00  0.00    +0.000 C 
ATOM     17  C   UNL     1       1.028   3.156  18.323  0.00  0.00    +0.000 C 
ATOM     18  C   UNL     1       1.726   4.305  17.603  0.00  0.00    +0.000 C 
ENDBRANCH   5  13
BRANCH   1  19
ATOM     19  C   UNL     1       5.074   5.401  15.307  0.00  0.00    +0.000 C 
BRANCH  19  21
ATOM     20  C   UNL     1       5.372   3.864  13.253  0.00  0.00    +0.000 C 
ATOM     21  N   UNL     1       5.992   4.505  14.480  0.00  0.00    +0.000 N 
ATOM     22  C   UNL     1       6.291   3.335  15.475  0.00  0.00    +0.000 C 
ATOM     23  C   UNL     1       7.317   5.141  14.097  0.00  0.00    +0.000 C 
ENDBRANCH  19  21
ENDBRANCH   1  19
TORSDOF 4
ENDMDL
MODEL 3
REMARK VINA RESULT:      -5.9      0.882      1.343
REMARK  Name = 
REMARK  7 active torsions:
REMARK  status: ('A' for Active; 'I' for Inactive)
REMARK    1  A    between atoms: C_1  and  N_2
REMARK    2  A    between atoms: N_2  and  C_3
REMARK    3  A    between atoms: N_2  and  C_4
REMARK    4  A    between atoms: N_2  and  C_5
REMARK    5  A    between atoms: C_5  and  C_6
REMARK    6  A    between atoms: C_10  and  C_11
REMARK    7  A    between atoms: C_10  and  C_17
REMARK                            x       y       z     vdW  Elec       q    Type
REMARK                         _______ _______ _______ _____ _____    ______ ____
ROOT
ATOM      1  C   UNL     1       6.635   5.771  17.012  0.00  0.00    +0.000 C 
ATOM      2  C   UNL     1       7.312   5.445  18.342  0.00  0.00    +0.000 C 
ATOM      3  O   UNL     1       6.469   4.630  19.153  0.00  0.00    +0.000 OA
ATOM      4  C   UNL     1       5.274   5.358  19.506  0.00  0.00    +0.000 C 
ATOM      5  C   UNL     1       4.388   5.662  18.260  0.00  0.00    +0.000 C 
ATOM      6  O   UNL     1       5.285   6.336  17.269  0.00  0.00    +0.000 OA
ENDROOT
BRANCH   5   7
ATOM      7  C   UNL     1       3.319   6.691  18.714  0.00  0.00    +0.000 A 
ATOM      8  C   UNL     1       2.644   6.563  19.941  0.00  0.00    +0.000 A 
ATOM      9  C   UNL     1       1.697   7.516  20.346  0.00  0.00    +0.000 A 
ATOM     10  C   UNL     1       1.401   8.609  19.536  0.00  0.00    +0.000 A 
ATOM     11  C   UNL     1       2.058   8.745  18.306  0.00  0.00    +0.000 A 
ATOM     12  C   UNL     1       2.996   7.789  17.901  0.00  0.00    +0.000 A 
ENDBRANCH   5   7
BRANCH   5  13
ATOM     13  C   UNL     1       3.672   4.378  17.585  0.00  0.00    +0.000 C 
ATOM     14  C   UNL     1       4.284   2.984  17.844  0.00  0.00    +0.000 C 
ATOM     15  C   UNL     1       3.517   1.971  18.673  0.00  0.00    +0.000 C 
ATOM     16  C   UNL     1       2.022   2.147  18.815  0.00  0.00    +0.000 C 
ATOM     17  C   UNL     1       1.336   3.180  17.946  0.00  0.00    +0.000 C 
ATOM     18  C   UNL     1       2.141   4.352  17.396  0.00  0.00    +0.000 C 
ENDBRANCH   5  13
BRANCH   1  19
ATOM     19  C   UNL     1       6.438   4.621  16.008  0.00  0.00    +0.000 C 
BRANCH  19  21
ATOM     20  C   UNL     1       7.598   5.153  13.763  0.00  0.00    +0.000 C 
ATOM     21  N   UNL     1       6.383   4.600  14.482  0.00  0.00    +0.000 N 
ATOM     22  C   UNL     1       5.213   5.594  14.182  0.00  0.00    +0.000 C 
ATOM     23  C   UNL     1       6.017   3.254  13.881  0.00  0.00    +0.000 C 
ENDBRANCH  19  21
ENDBRANCH   1  19
TORSDOF 4
ENDMDL
MODEL 4
REMARK VINA RESULT:      -5.9      0.894      1.673
REMARK  Name = 
REMARK  7 active torsions:
REMARK  status: ('A' for Active; 'I' for Inactive)
REMARK    1  A    between atoms: C_1  and  N_2
REMARK    2  A    between atoms: N_2  and  C_3
REMARK    3  A    between atoms: N_2  and  C_4
REMARK    4  A    between atoms: N_2  and  C_5
REMARK    5  A    between atoms: C_5  and  C_6
REMARK    6  A    between atoms: C_10  and  C_11
REMARK    7  A    between atoms: C_10  and  C_17
REMARK                            x       y       z     vdW  Elec       q    Type
REMARK                         _______ _______ _______ _____ _____    ______ ____
ROOT
ATOM      1  C   UNL     1       6.618   5.716  17.082  0.00  0.00    +0.000 C 
ATOM      2  C   UNL     1       7.236   5.354  18.431  0.00  0.00    +0.000 C 
ATOM      3  O   UNL     1       6.332   4.571  19.209  0.00  0.00    +0.000 OA
ATOM      4  C   UNL     1       5.159   5.348  19.528  0.00  0.00    +0.000 C 
ATOM      5  C   UNL     1       4.328   5.698  18.255  0.00  0.00    +0.000 C 
ATOM      6  O   UNL     1       5.285   6.338  17.300  0.00  0.00    +0.000 OA
ENDROOT
BRANCH   5   7
ATOM      7  C   UNL     1       3.290   6.769  18.682  0.00  0.00    +0.000 A 
ATOM      8  C   UNL     1       2.966   7.856  17.852  0.00  0.00    +0.000 A 
ATOM      9  C   UNL     1       2.007   8.803  18.245  0.00  0.00    +0.000 A 
ATOM     10  C   UNL     1       1.361   8.689  19.473  0.00  0.00    +0.000 A 
ATOM     11  C   UNL     1       1.681   7.617  20.316  0.00  0.00    +0.000 A 
ATOM     12  C   UNL     1       2.643   6.678  19.925  0.00  0.00    +0.000 A 
ENDBRANCH   5   7
BRANCH   5  13
ATOM     13  C   UNL     1       3.581   4.450  17.549  0.00  0.00    +0.000 C 
ATOM     14  C   UNL     1       4.214   3.049  17.686  0.00  0.00    +0.000 C 
ATOM     15  C   UNL     1       3.504   1.981  18.496  0.00  0.00    +0.000 C 
ATOM     16  C   UNL     1       2.020   2.134  18.737  0.00  0.00    +0.000 C 
ATOM     17  C   UNL     1       1.277   3.210  17.975  0.00  0.00    +0.000 C 
ATOM     18  C   UNL     1       2.040   4.421  17.450  0.00  0.00    +0.000 C 
ENDBRANCH   5  13
BRANCH   1  19
ATOM     19  C   UNL     1       6.405   4.582  16.064  0.00  0.00    +0.000 C 
BRANCH  19  21
ATOM     20  C   UNL     1       7.586   5.129  13.833  0.00  0.00    +0.000 C 
ATOM     21  N   UNL     1       6.360   4.579  14.538  0.00  0.00    +0.000 N 
ATOM     22  C   UNL     1       5.203   5.589  14.241  0.00  0.00    +0.000 C 
ATOM     23  C   UNL     1       5.985   3.244  13.919  0.00  0.00    +0.000 C 
ENDBRANCH  19  21
ENDBRANCH   1  19
TORSDOF 4
ENDMDL
MODEL 5
REMARK VINA RESULT:      -5.9      2.211      6.344
REMARK  Name = 
REMARK  7 active torsions:
REMARK  status: ('A' for Active; 'I' for Inactive)
REMARK    1  A    between atoms: C_1  and  N_2
REMARK    2  A    between atoms: N_2  and  C_3
REMARK    3  A    between atoms: N_2  and  C_4
REMARK    4  A    between atoms: N_2  and  C_5
REMARK    5  A    between atoms: C_5  and  C_6
REMARK    6  A    between atoms: C_10  and  C_11
REMARK    7  A    between atoms: C_10  and  C_17
REMARK                            x       y       z     vdW  Elec       q    Type
REMARK                         _______ _______ _______ _____ _____    ______ ____
ROOT
ATOM      1  C   UNL     1       2.341   3.783  17.578  0.00  0.00    +0.000 C 
ATOM      2  C   UNL     1       2.814   2.433  18.114  0.00  0.00    +0.000 C 
ATOM      3  O   UNL     1       4.163   2.513  18.570  0.00  0.00    +0.000 OA
ATOM      4  C   UNL     1       5.039   2.806  17.460  0.00  0.00    +0.000 C 
ATOM      5  C   UNL     1       4.774   4.224  16.869  0.00  0.00    +0.000 C 
ATOM      6  O   UNL     1       3.310   4.280  16.566  0.00  0.00    +0.000 OA
ENDROOT
BRANCH   5   7
ATOM      7  C   UNL     1       5.544   4.295  15.524  0.00  0.00    +0.000 A 
ATOM      8  C   UNL     1       6.883   4.718  15.459  0.00  0.00    +0.000 A 
ATOM      9  C   UNL     1       7.570   4.753  14.235  0.00  0.00    +0.000 A 
ATOM     10  C   UNL     1       6.935   4.375  13.055  0.00  0.00    +0.000 A 
ATOM     11  C   UNL     1       5.598   3.961  13.102  0.00  0.00    +0.000 A 
ATOM     12  C   UNL     1       4.912   3.934  14.322  0.00  0.00    +0.000 A 
ENDBRANCH   5   7
BRANCH   5  13
ATOM     13  C   UNL     1       5.198   5.464  17.818  0.00  0.00    +0.000 C 
ATOM     14  C   UNL     1       6.118   5.177  19.023  0.00  0.00    +0.000 C 
ATOM     15  C   UNL     1       7.532   5.726  19.035  0.00  0.00    +0.000 C 
ATOM     16  C   UNL     1       7.850   6.904  18.143  0.00  0.00    +0.000 C 
ATOM     17  C   UNL     1       6.702   7.617  17.461  0.00  0.00    +0.000 C 
ATOM     18  C   UNL     1       5.394   6.872  17.216  0.00  0.00    +0.000 C 
ENDBRANCH   5  13
BRANCH   1  19
ATOM     19  C   UNL     1       2.146   4.927  18.588  0.00  0.00    +0.000 C 
BRANCH  19  21
ATOM     20  C   UNL     1       2.999   4.338  20.953  0.00  0.00    +0.000 C 
ATOM     21  N   UNL     1       1.896   4.924  20.095  0.00  0.00    +0.000 N 
ATOM     22  C   UNL     1       0.681   3.946  20.223  0.00  0.00    +0.000 C 
ATOM     23  C   UNL     1       1.476   6.266  20.668  0.00  0.00    +0.000 C 
ENDBRANCH  19  21
ENDBRANCH   1  19
TORSDOF 4
ENDMDL
MODEL 6
REMARK VINA RESULT:      -5.9      2.223      6.350
REMARK  Name = 
REMARK  7 active torsions:
REMARK  status: ('A' for Active; 'I' for Inactive)
REMARK    1  A    between atoms: C_1  and  N_2
REMARK    2  A    between atoms: N_2  and  C_3
REMARK    3  A    between atoms: N_2  and  C_4
REMARK    4  A    between atoms: N_2  and  C_5
REMARK    5  A    between atoms: C_5  and  C_6
REMARK    6  A    between atoms: C_10  and  C_11
REMARK    7  A    between atoms: C_10  and  C_17
REMARK                            x       y       z     vdW  Elec       q    Type
REMARK                         _______ _______ _______ _____ _____    ______ ____
ROOT
ATOM      1  C   UNL     1       2.337   3.731  17.626  0.00  0.00    +0.000 C 
ATOM      2  C   UNL     1       2.826   2.391  18.171  0.00  0.00    +0.000 C 
ATOM      3  O   UNL     1       4.178   2.487  18.614  0.00  0.00    +0.000 OA
ATOM      4  C   UNL     1       5.043   2.778  17.496  0.00  0.00    +0.000 C 
ATOM      5  C   UNL     1       4.761   4.189  16.894  0.00  0.00    +0.000 C 
ATOM      6  O   UNL     1       3.294   4.228  16.602  0.00  0.00    +0.000 OA
ENDROOT
BRANCH   5   7
ATOM      7  C   UNL     1       5.519   4.254  15.541  0.00  0.00    +0.000 A 
ATOM      8  C   UNL     1       4.892   3.928  14.326  0.00  0.00    +0.000 A 
ATOM      9  C   UNL     1       5.587   4.016  13.109  0.00  0.00    +0.000 A 
ATOM     10  C   UNL     1       6.918   4.422  13.082  0.00  0.00    +0.000 A 
ATOM     11  C   UNL     1       7.560   4.740  14.286  0.00  0.00    +0.000 A 
ATOM     12  C   UNL     1       6.867   4.644  15.499  0.00  0.00    +0.000 A 
ENDBRANCH   5   7
BRANCH   5  13
ATOM     13  C   UNL     1       5.181   5.440  17.828  0.00  0.00    +0.000 C 
ATOM     14  C   UNL     1       6.103   5.170  19.035  0.00  0.00    +0.000 C 
ATOM     15  C   UNL     1       7.515   5.725  19.040  0.00  0.00    +0.000 C 
ATOM     16  C   UNL     1       7.828   6.894  18.134  0.00  0.00    +0.000 C 
ATOM     17  C   UNL     1       6.676   7.595  17.445  0.00  0.00    +0.000 C 
ATOM     18  C   UNL     1       5.371   6.842  17.209  0.00  0.00    +0.000 C 
ENDBRANCH   5  13
BRANCH   1  19
ATOM     19  C   UNL     1       2.140   4.883  18.627  0.00  0.00    +0.000 C 
BRANCH  19  21
ATOM     20  C   UNL     1       2.959   4.299  21.006  0.00  0.00    +0.000 C 
ATOM     21  N   UNL     1       1.871   4.891  20.130  0.00  0.00    +0.000 N 
ATOM     22  C   UNL     1       0.646   3.924  20.249  0.00  0.00    +0.000 C 
ATOM     23  C   UNL     1       1.457   6.240  20.691  0.00  0.00    +0.000 C 
ENDBRANCH  19  21
ENDBRANCH   1  19
TORSDOF 4
ENDMDL
MODEL 7
REMARK VINA RESULT:      -5.7      8.267     11.847
REMARK  Name = 
REMARK  7 active torsions:
REMARK  status: ('A' for Active; 'I' for Inactive)
REMARK    1  A    between atoms: C_1  and  N_2
REMARK    2  A    between atoms: N_2  and  C_3
REMARK    3  A    between atoms: N_2  and  C_4
REMARK    4  A    between atoms: N_2  and  C_5
REMARK    5  A    between atoms: C_5  and  C_6
REMARK    6  A    between atoms: C_10  and  C_11
REMARK    7  A    between atoms: C_10  and  C_17
REMARK                            x       y       z     vdW  Elec       q    Type
REMARK                         _______ _______ _______ _____ _____    ______ ____
ROOT
ATOM      1  C   UNL     1      -4.141  12.982  23.663  0.00  0.00    +0.000 C 
ATOM      2  C   UNL     1      -3.377  14.007  24.499  0.00  0.00    +0.000 C 
ATOM      3  O   UNL     1      -2.340  14.615  23.732  0.00  0.00    +0.000 OA
ATOM      4  C   UNL     1      -1.358  13.624  23.361  0.00  0.00    +0.000 C 
ATOM      5  C   UNL     1      -1.947  12.558  22.387  0.00  0.00    +0.000 C 
ATOM      6  O   UNL     1      -3.179  12.028  23.051  0.00  0.00    +0.000 OA
ENDROOT
BRANCH   5   7
ATOM      7  C   UNL     1      -0.911  11.405  22.312  0.00  0.00    +0.000 A 
ATOM      8  C   UNL     1      -0.991  10.283  23.155  0.00  0.00    +0.000 A 
ATOM      9  C   UNL     1      -0.059   9.239  23.056  0.00  0.00    +0.000 A 
ATOM     10  C   UNL     1       0.972   9.295  22.123  0.00  0.00    +0.000 A 
ATOM     11  C   UNL     1       1.071  10.412  21.282  0.00  0.00    +0.000 A 
ATOM     12  C   UNL     1       0.145  11.456  21.388  0.00  0.00    +0.000 A 
ENDBRANCH   5   7
BRANCH   5  13
ATOM     13  C   UNL     1      -2.296  13.091  20.901  0.00  0.00    +0.000 C 
ATOM     14  C   UNL     1      -1.554  14.341  20.383  0.00  0.00    +0.000 C 
ATOM     15  C   UNL     1      -0.570  14.208  19.236  0.00  0.00    +0.000 C 
ATOM     16  C   UNL     1      -0.686  13.005  18.328  0.00  0.00    +0.000 C 
ATOM     17  C   UNL     1      -1.907  12.120  18.465  0.00  0.00    +0.000 C 
ATOM     18  C   UNL     1      -2.670  12.092  19.785  0.00  0.00    +0.000 C 
ENDBRANCH   5  13
BRANCH   1  19
ATOM     19  C   UNL     1      -5.020  13.506  22.514  0.00  0.00    +0.000 C 
BRANCH  19  21
ATOM     20  C   UNL     1      -7.313  12.531  23.192  0.00  0.00    +0.000 C 
ATOM     21  N   UNL     1      -6.478  13.241  22.144  0.00  0.00    +0.000 N 
ATOM     22  C   UNL     1      -6.336  12.238  20.952  0.00  0.00    +0.000 C 
ATOM     23  C   UNL     1      -7.234  14.459  21.642  0.00  0.00    +0.000 C 
ENDBRANCH  19  21
ENDBRANCH   1  19
TORSDOF 4
ENDMDL
MODEL 8
REMARK VINA RESULT:      -5.7      8.264     11.793
REMARK  Name = 
REMARK  7 active torsions:
REMARK  status: ('A' for Active; 'I' for Inactive)
REMARK    1  A    between atoms: C_1  and  N_2
REMARK    2  A    between atoms: N_2  and  C_3
REMARK    3  A    between atoms: N_2  and  C_4
REMARK    4  A    between atoms: N_2  and  C_5
REMARK    5  A    between atoms: C_5  and  C_6
REMARK    6  A    between atoms: C_10  and  C_11
REMARK    7  A    between atoms: C_10  and  C_17
REMARK                            x       y       z     vdW  Elec       q    Type
REMARK                         _______ _______ _______ _____ _____    ______ ____
ROOT
ATOM      1  C   UNL     1      -4.228  12.971  23.497  0.00  0.00    +0.000 C 
ATOM      2  C   UNL     1      -3.502  13.988  24.374  0.00  0.00    +0.000 C 
ATOM      3  O   UNL     1      -2.434  14.604  23.657  0.00  0.00    +0.000 OA
ATOM      4  C   UNL     1      -1.436  13.617  23.319  0.00  0.00    +0.000 C 
ATOM      5  C   UNL     1      -1.982  12.559  22.312  0.00  0.00    +0.000 C 
ATOM      6  O   UNL     1      -3.241  12.023  22.918  0.00  0.00    +0.000 OA
ENDROOT
BRANCH   5   7
ATOM      7  C   UNL     1      -0.943  11.408  22.270  0.00  0.00    +0.000 A 
ATOM      8  C   UNL     1       0.095  11.383  21.323  0.00  0.00    +0.000 A 
ATOM      9  C   UNL     1       1.041  10.346  21.315  0.00  0.00    +0.000 A 
ATOM     10  C   UNL     1       0.965   9.312  22.244  0.00  0.00    +0.000 A 
ATOM     11  C   UNL     1      -0.071   9.317  23.188  0.00  0.00    +0.000 A 
ATOM     12  C   UNL     1      -1.017  10.349  23.189  0.00  0.00    +0.000 A 
ENDBRANCH   5   7
BRANCH   5  13
ATOM     13  C   UNL     1      -2.268  13.105  20.817  0.00  0.00    +0.000 C 
ATOM     14  C   UNL     1      -1.519  14.371  20.348  0.00  0.00    +0.000 C 
ATOM     15  C   UNL     1      -0.481  14.263  19.247  0.00  0.00    +0.000 C 
ATOM     16  C   UNL     1      -0.540  13.069  18.321  0.00  0.00    +0.000 C 
ATOM     17  C   UNL     1      -1.755  12.168  18.392  0.00  0.00    +0.000 C 
ATOM     18  C   UNL     1      -2.578  12.115  19.674  0.00  0.00    +0.000 C 
ENDBRANCH   5  13
BRANCH   1  19
ATOM     19  C   UNL     1      -5.059  13.505  22.317  0.00  0.00    +0.000 C 
BRANCH  19  21
ATOM     20  C   UNL     1      -6.223  11.974  20.594  0.00  0.00    +0.000 C 
ATOM     21  N   UNL     1      -6.361  13.018  21.685  0.00  0.00    +0.000 N 
ATOM     22  C   UNL     1      -6.887  14.312  20.980  0.00  0.00    +0.000 C 
ATOM     23  C   UNL     1      -7.416  12.566  22.679  0.00  0.00    +0.000 C 
ENDBRANCH  19  21
ENDBRANCH   1  19
TORSDOF 4
ENDMDL
MODEL 9
REMARK VINA RESULT:      -5.6      9.358     12.088
REMARK  Name = 
REMARK  7 active torsions:
REMARK  status: ('A' for Active; 'I' for Inactive)
REMARK    1  A    between atoms: C_1  and  N_2
REMARK    2  A    between atoms: N_2  and  C_3
REMARK    3  A    between atoms: N_2  and  C_4
REMARK    4  A    between atoms: N_2  and  C_5
REMARK    5  A    between atoms: C_5  and  C_6
REMARK    6  A    between atoms: C_10  and  C_11
REMARK    7  A    between atoms: C_10  and  C_17
REMARK                            x       y       z     vdW  Elec       q    Type
REMARK                         _______ _______ _______ _____ _____    ______ ____
ROOT
ATOM      1  C   UNL     1       7.153  15.217  21.067  0.00  0.00    +0.000 C 
ATOM      2  C   UNL     1       6.143  15.344  19.928  0.00  0.00    +0.000 C 
ATOM      3  O   UNL     1       6.508  14.508  18.832  0.00  0.00    +0.000 OA
ATOM      4  C   UNL     1       7.763  14.950  18.273  0.00  0.00    +0.000 C 
ATOM      5  C   UNL     1       8.943  14.763  19.276  0.00  0.00    +0.000 C 
ATOM      6  O   UNL     1       8.524  15.445  20.540  0.00  0.00    +0.000 OA
ENDROOT
BRANCH   5   7
ATOM      7  C   UNL     1      10.151  15.542  18.690  0.00  0.00    +0.000 A 
ATOM      8  C   UNL     1      10.628  15.299  17.391  0.00  0.00    +0.000 A 
ATOM      9  C   UNL     1      11.707  16.030  16.869  0.00  0.00    +0.000 A 
ATOM     10  C   UNL     1      12.333  17.011  17.634  0.00  0.00    +0.000 A 
ATOM     11  C   UNL     1      11.876  17.258  18.935  0.00  0.00    +0.000 A 
ATOM     12  C   UNL     1      10.805  16.522  19.455  0.00  0.00    +0.000 A 
ENDBRANCH   5   7
BRANCH   5  13
ATOM     13  C   UNL     1       9.364  13.231  19.578  0.00  0.00    +0.000 C 
ATOM     14  C   UNL     1       9.197  12.194  18.446  0.00  0.00    +0.000 C 
ATOM     15  C   UNL     1      10.426  11.565  17.819  0.00  0.00    +0.000 C 
ATOM     16  C   UNL     1      11.720  11.586  18.601  0.00  0.00    +0.000 C 
ATOM     17  C   UNL     1      11.674  12.021  20.050  0.00  0.00    +0.000 C 
ATOM     18  C   UNL     1      10.539  12.921  20.529  0.00  0.00    +0.000 C 
ENDBRANCH   5  13
BRANCH   1  19
ATOM     19  C   UNL     1       7.202  13.884  21.836  0.00  0.00    +0.000 C 
BRANCH  19  21
ATOM     20  C   UNL     1       6.030  12.997  23.959  0.00  0.00    +0.000 C 
ATOM     21  N   UNL     1       7.284  13.572  23.328  0.00  0.00    +0.000 N 
ATOM     22  C   UNL     1       7.468  14.996  23.951  0.00  0.00    +0.000 C 
ATOM     23  C   UNL     1       8.479  12.728  23.732  0.00  0.00    +0.000 C 
ENDBRANCH  19  21
ENDBRANCH   1  19
TORSDOF 4
ENDMDL
