MODEL 1
REMARK VINA RESULT:      -6.1      0.000      0.000
REMARK  Name = 
REMARK  27 active torsions:
REMARK  status: ('A' for Active; 'I' for Inactive)
REMARK    1  A    between atoms: C_1  and  C_2
REMARK    2  A    between atoms: C_2  and  C_3
REMARK    3  A    between atoms: C_3  and  C_4
REMARK    4  A    between atoms: C_4  and  C_5
REMARK    5  A    between atoms: C_5  and  C_6
REMARK    6  A    between atoms: C_6  and  C_7
REMARK    7  A    between atoms: C_7  and  C_8
REMARK    8  A    between atoms: C_8  and  C_9
REMARK    9  A    between atoms: C_10  and  C_11
REMARK   10  A    between atoms: C_11  and  C_12
REMARK   11  A    between atoms: C_12  and  C_13
REMARK   12  A    between atoms: C_13  and  C_14
REMARK   13  A    between atoms: C_14  and  C_15
REMARK   14  A    between atoms: C_15  and  C_16
REMARK   15  A    between atoms: C_16  and  C_17
REMARK   16  A    between atoms: C_17  and  C_18
REMARK   17  A    between atoms: C_18  and  C_19
REMARK   18  A    between atoms: C_19  and  C_20
REMARK   19  A    between atoms: C_20  and  C_21
REMARK   20  A    between atoms: C_21  and  C_22
REMARK   21  A    between atoms: C_22  and  C_23
REMARK   22  A    between atoms: C_23  and  C_24
REMARK   23  A    between atoms: C_24  and  C_25
REMARK   24  A    between atoms: C_25  and  C_26
REMARK   25  A    between atoms: C_26  and  C_27
REMARK   26  A    between atoms: C_31  and  C_32
REMARK   27  A    between atoms: C_33  and  O_34
REMARK                            x       y       z     vdW  Elec       q    Type
REMARK                         _______ _______ _______ _____ _____    ______ ____
ROOT
ATOM      1  C   UNL     1       1.039   7.464  21.132  0.00  0.00    +0.000 C 
ENDROOT
BRANCH   1   2
ATOM      2  C   UNL     1       2.072   7.388  20.024  0.00  0.00    +0.000 C 
BRANCH   2   3
ATOM      3  C   UNL     1       1.883   8.547  19.067  0.00  0.00    +0.000 C 
BRANCH   3   4
ATOM      4  C   UNL     1       2.555   8.234  17.744  0.00  0.00    +0.000 C 
BRANCH   4   5
ATOM      5  C   UNL     1       3.230   6.882  17.835  0.00  0.00    +0.000 C 
BRANCH   5   6
ATOM      6  C   UNL     1       4.640   6.970  17.303  0.00  0.00    +0.000 C 
BRANCH   6   7
ATOM      7  C   UNL     1       4.921   5.751  16.433  0.00  0.00    +0.000 C 
BRANCH   7   8
ATOM      8  C   UNL     1       4.088   4.604  16.960  0.00  0.00    +0.000 C 
BRANCH   8   9
ATOM      9  C   UNL     1       4.824   3.744  17.984  0.00  0.00    +0.000 C 
BRANCH   9  10
ATOM     10  C   UNL     1       3.953   2.604  18.525  0.00  0.00    +0.000 C 
ATOM     11  C   UNL     1       4.160   2.388  20.002  0.00  0.00    +0.000 C 
ATOM     12  O   UNL     1       5.115   1.771  20.511  0.00  0.00    +0.000 OA
ATOM     13  O   UNL     1       3.151   2.955  20.732  0.00  0.00    +0.000 OA
ATOM     14  C   UNL     1       2.262   3.649  19.840  0.00  0.00    +0.000 C 
ATOM     15  C   UNL     1       0.833   3.686  20.350  0.00  0.00    +0.000 C 
ATOM     16  C   UNL     1       2.463   2.924  18.520  0.00  0.00    +0.000 C 
BRANCH  16  17
ATOM     17  O   UNL     1       1.725   1.696  18.484  0.00  0.00    +0.000 OA
ATOM     18  H   UNL     1       1.793   1.266  19.358  0.00  0.00    +0.000 HD
ENDBRANCH  16  17
ENDBRANCH   9  10
ENDBRANCH   8   9
ENDBRANCH   7   8
ENDBRANCH   6   7
ENDBRANCH   5   6
ENDBRANCH   4   5
ENDBRANCH   3   4
ENDBRANCH   2   3
ENDBRANCH   1   2
BRANCH   1  19
ATOM     19  C   UNL     1       0.543   8.891  21.273  0.00  0.00    +0.000 C 
BRANCH  19  20
ATOM     20  C   UNL     1       0.596   9.310  22.728  0.00  0.00    +0.000 C 
BRANCH  20  21
ATOM     21  C   UNL     1      -0.585  10.204  23.046  0.00  0.00    +0.000 C 
BRANCH  21  22
ATOM     22  C   UNL     1      -0.870  11.105  21.869  0.00  0.00    +0.000 C 
BRANCH  22  23
ATOM     23  C   UNL     1      -1.596  12.358  22.334  0.00  0.00    +0.000 C 
BRANCH  23  24
ATOM     24  C   UNL     1      -1.752  13.326  21.171  0.00  0.00    +0.000 C 
BRANCH  24  25
ATOM     25  C   UNL     1      -3.201  13.364  20.713  0.00  0.00    +0.000 C 
BRANCH  25  27
ATOM     26  C   UNL     1      -5.396  12.503  21.495  0.00  0.00    +0.000 C 
ATOM     27  C   UNL     1      -4.127  12.822  21.763  0.00  0.00    +0.000 C 
BRANCH  26  28
ATOM     28  C   UNL     1      -5.960  12.648  20.118  0.00  0.00    +0.000 C 
BRANCH  28  29
ATOM     29  C   UNL     1      -6.746  11.425  19.709  0.00  0.00    +0.000 C 
BRANCH  29  30
ATOM     30  C   UNL     1      -6.221  10.903  18.384  0.00  0.00    +0.000 C 
BRANCH  30  31
ATOM     31  C   UNL     1      -5.224  11.888  17.805  0.00  0.00    +0.000 C 
BRANCH  31  32
ATOM     32  C   UNL     1      -4.555  11.293  16.578  0.00  0.00    +0.000 C 
BRANCH  32  33
ATOM     33  C   UNL     1      -3.411  10.387  16.998  0.00  0.00    +0.000 C 
BRANCH  33  35
ATOM     34  C   UNL     1      -1.309  10.240  18.330  0.00  0.00    +0.000 C 
ATOM     35  C   UNL     1      -2.541  11.075  18.039  0.00  0.00    +0.000 C 
ENDBRANCH  33  35
ENDBRANCH  32  33
ENDBRANCH  31  32
ENDBRANCH  30  31
ENDBRANCH  29  30
ENDBRANCH  28  29
ENDBRANCH  26  28
ENDBRANCH  25  27
ENDBRANCH  24  25
ENDBRANCH  23  24
ENDBRANCH  22  23
ENDBRANCH  21  22
ENDBRANCH  20  21
ENDBRANCH  19  20
ENDBRANCH   1  19
TORSDOF 25
ENDMDL
MODEL 2
REMARK VINA RESULT:      -5.8      2.237      4.241
REMARK  Name = 
REMARK  27 active torsions:
REMARK  status: ('A' for Active; 'I' for Inactive)
REMARK    1  A    between atoms: C_1  and  C_2
REMARK    2  A    between atoms: C_2  and  C_3
REMARK    3  A    between atoms: C_3  and  C_4
REMARK    4  A    between atoms: C_4  and  C_5
REMARK    5  A    between atoms: C_5  and  C_6
REMARK    6  A    between atoms: C_6  and  C_7
REMARK    7  A    between atoms: C_7  and  C_8
REMARK    8  A    between atoms: C_8  and  C_9
REMARK    9  A    between atoms: C_10  and  C_11
REMARK   10  A    between atoms: C_11  and  C_12
REMARK   11  A    between atoms: C_12  and  C_13
REMARK   12  A    between atoms: C_13  and  C_14
REMARK   13  A    between atoms: C_14  and  C_15
REMARK   14  A    between atoms: C_15  and  C_16
REMARK   15  A    between atoms: C_16  and  C_17
REMARK   16  A    between atoms: C_17  and  C_18
REMARK   17  A    between atoms: C_18  and  C_19
REMARK   18  A    between atoms: C_19  and  C_20
REMARK   19  A    between atoms: C_20  and  C_21
REMARK   20  A    between atoms: C_21  and  C_22
REMARK   21  A    between atoms: C_22  and  C_23
REMARK   22  A    between atoms: C_23  and  C_24
REMARK   23  A    between atoms: C_24  and  C_25
REMARK   24  A    between atoms: C_25  and  C_26
REMARK   25  A    between atoms: C_26  and  C_27
REMARK   26  A    between atoms: C_31  and  C_32
REMARK   27  A    between atoms: C_33  and  O_34
REMARK                            x       y       z     vdW  Elec       q    Type
REMARK                         _______ _______ _______ _____ _____    ______ ____
ROOT
ATOM      1  C   UNL     1       1.487   5.667  19.274  0.00  0.00    +0.000 C 
ENDROOT
BRANCH   1   2
ATOM      2  C   UNL     1       1.433   5.020  20.645  0.00  0.00    +0.000 C 
BRANCH   2   3
ATOM      3  C   UNL     1       0.817   3.640  20.535  0.00  0.00    +0.000 C 
BRANCH   3   4
ATOM      4  C   UNL     1       1.433   2.720  21.572  0.00  0.00    +0.000 C 
BRANCH   4   5
ATOM      5  C   UNL     1       2.921   2.608  21.318  0.00  0.00    +0.000 C 
BRANCH   5   6
ATOM      6  C   UNL     1       3.174   2.199  19.887  0.00  0.00    +0.000 C 
BRANCH   6   7
ATOM      7  C   UNL     1       4.605   2.562  19.511  0.00  0.00    +0.000 C 
BRANCH   7   8
ATOM      8  C   UNL     1       4.552   3.771  18.602  0.00  0.00    +0.000 C 
BRANCH   8   9
ATOM      9  C   UNL     1       5.112   5.036  19.248  0.00  0.00    +0.000 C 
BRANCH   9  10
ATOM     10  C   UNL     1       6.106   5.767  18.338  0.00  0.00    +0.000 C 
ATOM     11  C   UNL     1       7.372   4.974  18.134  0.00  0.00    +0.000 C 
ATOM     12  O   UNL     1       8.314   4.904  18.947  0.00  0.00    +0.000 OA
ATOM     13  O   UNL     1       7.366   4.333  16.925  0.00  0.00    +0.000 OA
ATOM     14  C   UNL     1       6.103   4.565  16.280  0.00  0.00    +0.000 C 
ATOM     15  C   UNL     1       6.210   4.557  14.766  0.00  0.00    +0.000 C 
ATOM     16  C   UNL     1       5.638   5.876  16.892  0.00  0.00    +0.000 C 
BRANCH  16  17
ATOM     17  O   UNL     1       6.288   6.995  16.278  0.00  0.00    +0.000 OA
ATOM     18  H   UNL     1       5.606   7.621  15.968  0.00  0.00    +0.000 HD
ENDBRANCH  16  17
ENDBRANCH   9  10
ENDBRANCH   8   9
ENDBRANCH   7   8
ENDBRANCH   6   7
ENDBRANCH   5   6
ENDBRANCH   4   5
ENDBRANCH   3   4
ENDBRANCH   2   3
ENDBRANCH   1   2
BRANCH   1  19
ATOM     19  C   UNL     1       2.230   6.987  19.359  0.00  0.00    +0.000 C 
BRANCH  19  20
ATOM     20  C   UNL     1       1.706   7.795  20.529  0.00  0.00    +0.000 C 
BRANCH  20  21
ATOM     21  C   UNL     1       1.308   9.179  20.056  0.00  0.00    +0.000 C 
BRANCH  21  22
ATOM     22  C   UNL     1      -0.018   9.562  20.665  0.00  0.00    +0.000 C 
BRANCH  22  23
ATOM     23  C   UNL     1      -0.253   8.774  21.944  0.00  0.00    +0.000 C 
BRANCH  23  24
ATOM     24  C   UNL     1      -0.687   9.714  23.058  0.00  0.00    +0.000 C 
BRANCH  24  25
ATOM     25  C   UNL     1      -0.746  11.143  22.542  0.00  0.00    +0.000 C 
BRANCH  25  27
ATOM     26  C   UNL     1      -2.767  12.554  22.236  0.00  0.00    +0.000 C 
ATOM     27  C   UNL     1      -1.962  11.863  23.047  0.00  0.00    +0.000 C 
BRANCH  26  28
ATOM     28  C   UNL     1      -2.511  12.630  20.765  0.00  0.00    +0.000 C 
BRANCH  28  29
ATOM     29  C   UNL     1      -3.776  12.417  19.969  0.00  0.00    +0.000 C 
BRANCH  29  30
ATOM     30  C   UNL     1      -3.423  11.981  18.558  0.00  0.00    +0.000 C 
BRANCH  30  31
ATOM     31  C   UNL     1      -2.311  10.951  18.605  0.00  0.00    +0.000 C 
BRANCH  31  32
ATOM     32  C   UNL     1      -2.661   9.765  17.723  0.00  0.00    +0.000 C 
BRANCH  32  33
ATOM     33  C   UNL     1      -2.370  10.094  16.269  0.00  0.00    +0.000 C 
BRANCH  33  35
ATOM     34  C   UNL     1      -3.464  10.093  14.031  0.00  0.00    +0.000 C 
ATOM     35  C   UNL     1      -3.663  10.350  15.511  0.00  0.00    +0.000 C 
ENDBRANCH  33  35
ENDBRANCH  32  33
ENDBRANCH  31  32
ENDBRANCH  30  31
ENDBRANCH  29  30
ENDBRANCH  28  29
ENDBRANCH  26  28
ENDBRANCH  25  27
ENDBRANCH  24  25
ENDBRANCH  23  24
ENDBRANCH  22  23
ENDBRANCH  21  22
ENDBRANCH  20  21
ENDBRANCH  19  20
ENDBRANCH   1  19
TORSDOF 25
ENDMDL
MODEL 3
REMARK VINA RESULT:      -5.6      4.798     10.148
REMARK  Name = 
REMARK  27 active torsions:
REMARK  status: ('A' for Active; 'I' for Inactive)
REMARK    1  A    between atoms: C_1  and  C_2
REMARK    2  A    between atoms: C_2  and  C_3
REMARK    3  A    between atoms: C_3  and  C_4
REMARK    4  A    between atoms: C_4  and  C_5
REMARK    5  A    between atoms: C_5  and  C_6
REMARK    6  A    between atoms: C_6  and  C_7
REMARK    7  A    between atoms: C_7  and  C_8
REMARK    8  A    between atoms: C_8  and  C_9
REMARK    9  A    between atoms: C_10  and  C_11
REMARK   10  A    between atoms: C_11  and  C_12
REMARK   11  A    between atoms: C_12  and  C_13
REMARK   12  A    between atoms: C_13  and  C_14
REMARK   13  A    between atoms: C_14  and  C_15
REMARK   14  A    between atoms: C_15  and  C_16
REMARK   15  A    between atoms: C_16  and  C_17
REMARK   16  A    between atoms: C_17  and  C_18
REMARK   17  A    between atoms: C_18  and  C_19
REMARK   18  A    between atoms: C_19  and  C_20
REMARK   19  A    between atoms: C_20  and  C_21
REMARK   20  A    between atoms: C_21  and  C_22
REMARK   21  A    between atoms: C_22  and  C_23
REMARK   22  A    between atoms: C_23  and  C_24
REMARK   23  A    between atoms: C_24  and  C_25
REMARK   24  A    between atoms: C_25  and  C_26
REMARK   25  A    between atoms: C_26  and  C_27
REMARK   26  A    between atoms: C_31  and  C_32
REMARK   27  A    between atoms: C_33  and  O_34
REMARK                            x       y       z     vdW  Elec       q    Type
REMARK                         _______ _______ _______ _____ _____    ______ ____
ROOT
ATOM      1  C   UNL     1       2.166   3.307  17.908  0.00  0.00    +0.000 C 
ENDROOT
BRANCH   1   2
ATOM      2  C   UNL     1       1.816   2.226  18.912  0.00  0.00    +0.000 C 
BRANCH   2   3
ATOM      3  C   UNL     1       1.273   2.859  20.177  0.00  0.00    +0.000 C 
BRANCH   3   4
ATOM      4  C   UNL     1       1.023   4.336  19.944  0.00  0.00    +0.000 C 
BRANCH   4   5
ATOM      5  C   UNL     1       2.161   5.135  20.542  0.00  0.00    +0.000 C 
BRANCH   5   6
ATOM      6  C   UNL     1       2.118   6.557  20.037  0.00  0.00    +0.000 C 
BRANCH   6   7
ATOM      7  C   UNL     1       3.268   6.774  19.061  0.00  0.00    +0.000 C 
BRANCH   7   8
ATOM      8  C   UNL     1       2.797   7.741  17.997  0.00  0.00    +0.000 C 
BRANCH   8   9
ATOM      9  C   UNL     1       1.341   8.168  18.172  0.00  0.00    +0.000 C 
BRANCH   9  10
ATOM     10  C   UNL     1       1.109   9.631  17.777  0.00  0.00    +0.000 C 
ATOM     11  C   UNL     1      -0.309  10.067  18.037  0.00  0.00    +0.000 C 
ATOM     12  O   UNL     1      -1.285   9.815  17.304  0.00  0.00    +0.000 OA
ATOM     13  O   UNL     1      -0.400  10.794  19.193  0.00  0.00    +0.000 OA
ATOM     14  C   UNL     1       0.890  10.828  19.826  0.00  0.00    +0.000 C 
ATOM     15  C   UNL     1       1.111  12.093  20.636  0.00  0.00    +0.000 C 
ATOM     16  C   UNL     1       1.849  10.624  18.664  0.00  0.00    +0.000 C 
BRANCH  16  17
ATOM     17  O   UNL     1       2.047  11.841  17.934  0.00  0.00    +0.000 OA
ATOM     18  H   UNL     1       1.409  11.869  17.197  0.00  0.00    +0.000 HD
ENDBRANCH  16  17
ENDBRANCH   9  10
ENDBRANCH   8   9
ENDBRANCH   7   8
ENDBRANCH   6   7
ENDBRANCH   5   6
ENDBRANCH   4   5
ENDBRANCH   3   4
ENDBRANCH   2   3
ENDBRANCH   1   2
BRANCH   1  19
ATOM     19  C   UNL     1       3.576   3.092  17.393  0.00  0.00    +0.000 C 
BRANCH  19  20
ATOM     20  C   UNL     1       4.245   4.432  17.157  0.00  0.00    +0.000 C 
BRANCH  20  21
ATOM     21  C   UNL     1       5.112   4.358  15.917  0.00  0.00    +0.000 C 
BRANCH  21  22
ATOM     22  C   UNL     1       6.568   4.335  16.315  0.00  0.00    +0.000 C 
BRANCH  22  23
ATOM     23  C   UNL     1       7.018   5.727  16.730  0.00  0.00    +0.000 C 
BRANCH  23  24
ATOM     24  C   UNL     1       7.745   5.659  18.064  0.00  0.00    +0.000 C 
BRANCH  24  25
ATOM     25  C   UNL     1       8.118   7.057  18.528  0.00  0.00    +0.000 C 
BRANCH  25  27
ATOM     26  C   UNL     1       7.899   9.398  17.726  0.00  0.00    +0.000 C 
ATOM     27  C   UNL     1       7.566   8.110  17.611  0.00  0.00    +0.000 C 
BRANCH  26  28
ATOM     28  C   UNL     1       8.866   9.862  18.768  0.00  0.00    +0.000 C 
BRANCH  28  29
ATOM     29  C   UNL     1       9.948  10.730  18.174  0.00  0.00    +0.000 C 
BRANCH  29  30
ATOM     30  C   UNL     1       9.745  12.169  18.614  0.00  0.00    +0.000 C 
BRANCH  30  31
ATOM     31  C   UNL     1       8.656  12.812  17.776  0.00  0.00    +0.000 C 
BRANCH  31  32
ATOM     32  C   UNL     1       8.223  14.126  18.401  0.00  0.00    +0.000 C 
BRANCH  32  33
ATOM     33  C   UNL     1       6.959  14.630  17.725  0.00  0.00    +0.000 C 
BRANCH  33  35
ATOM     34  C   UNL     1       6.280  16.771  18.806  0.00  0.00    +0.000 C 
ATOM     35  C   UNL     1       6.032  15.277  18.743  0.00  0.00    +0.000 C 
ENDBRANCH  33  35
ENDBRANCH  32  33
ENDBRANCH  31  32
ENDBRANCH  30  31
ENDBRANCH  29  30
ENDBRANCH  28  29
ENDBRANCH  26  28
ENDBRANCH  25  27
ENDBRANCH  24  25
ENDBRANCH  23  24
ENDBRANCH  22  23
ENDBRANCH  21  22
ENDBRANCH  20  21
ENDBRANCH  19  20
ENDBRANCH   1  19
TORSDOF 25
ENDMDL
MODEL 4
REMARK VINA RESULT:      -5.6      2.825      5.702
REMARK  Name = 
REMARK  27 active torsions:
REMARK  status: ('A' for Active; 'I' for Inactive)
REMARK    1  A    between atoms: C_1  and  C_2
REMARK    2  A    between atoms: C_2  and  C_3
REMARK    3  A    between atoms: C_3  and  C_4
REMARK    4  A    between atoms: C_4  and  C_5
REMARK    5  A    between atoms: C_5  and  C_6
REMARK    6  A    between atoms: C_6  and  C_7
REMARK    7  A    between atoms: C_7  and  C_8
REMARK    8  A    between atoms: C_8  and  C_9
REMARK    9  A    between atoms: C_10  and  C_11
REMARK   10  A    between atoms: C_11  and  C_12
REMARK   11  A    between atoms: C_12  and  C_13
REMARK   12  A    between atoms: C_13  and  C_14
REMARK   13  A    between atoms: C_14  and  C_15
REMARK   14  A    between atoms: C_15  and  C_16
REMARK   15  A    between atoms: C_16  and  C_17
REMARK   16  A    between atoms: C_17  and  C_18
REMARK   17  A    between atoms: C_18  and  C_19
REMARK   18  A    between atoms: C_19  and  C_20
REMARK   19  A    between atoms: C_20  and  C_21
REMARK   20  A    between atoms: C_21  and  C_22
REMARK   21  A    between atoms: C_22  and  C_23
REMARK   22  A    between atoms: C_23  and  C_24
REMARK   23  A    between atoms: C_24  and  C_25
REMARK   24  A    between atoms: C_25  and  C_26
REMARK   25  A    between atoms: C_26  and  C_27
REMARK   26  A    between atoms: C_31  and  C_32
REMARK   27  A    between atoms: C_33  and  O_34
REMARK                            x       y       z     vdW  Elec       q    Type
REMARK                         _______ _______ _______ _____ _____    ______ ____
ROOT
ATOM      1  C   UNL     1       1.064   4.005  20.775  0.00  0.00    +0.000 C 
ENDROOT
BRANCH   1   2
ATOM      2  C   UNL     1       2.213   3.293  20.088  0.00  0.00    +0.000 C 
BRANCH   2   3
ATOM      3  C   UNL     1       3.020   2.519  21.110  0.00  0.00    +0.000 C 
BRANCH   3   4
ATOM      4  C   UNL     1       4.263   1.948  20.457  0.00  0.00    +0.000 C 
BRANCH   4   5
ATOM      5  C   UNL     1       4.494   2.643  19.132  0.00  0.00    +0.000 C 
BRANCH   5   6
ATOM      6  C   UNL     1       3.770   1.911  18.028  0.00  0.00    +0.000 C 
BRANCH   6   7
ATOM      7  C   UNL     1       3.366   2.908  16.949  0.00  0.00    +0.000 C 
BRANCH   7   8
ATOM      8  C   UNL     1       4.330   4.073  17.012  0.00  0.00    +0.000 C 
BRANCH   8   9
ATOM      9  C   UNL     1       5.133   4.261  15.727  0.00  0.00    +0.000 C 
BRANCH   9  10
ATOM     10  C   UNL     1       6.646   4.238  15.975  0.00  0.00    +0.000 C 
ATOM     11  C   UNL     1       7.359   5.324  15.212  0.00  0.00    +0.000 C 
ATOM     12  O   UNL     1       7.653   5.277  14.002  0.00  0.00    +0.000 OA
ATOM     13  O   UNL     1       7.656   6.386  16.022  0.00  0.00    +0.000 OA
ATOM     14  C   UNL     1       7.108   6.145  17.329  0.00  0.00    +0.000 C 
ATOM     15  C   UNL     1       7.915   6.805  18.432  0.00  0.00    +0.000 C 
ATOM     16  C   UNL     1       7.034   4.628  17.396  0.00  0.00    +0.000 C 
BRANCH  16  17
ATOM     17  O   UNL     1       8.312   4.058  17.701  0.00  0.00    +0.000 OA
ATOM     18  H   UNL     1       8.178   3.272  18.264  0.00  0.00    +0.000 HD
ENDBRANCH  16  17
ENDBRANCH   9  10
ENDBRANCH   8   9
ENDBRANCH   7   8
ENDBRANCH   6   7
ENDBRANCH   5   6
ENDBRANCH   4   5
ENDBRANCH   3   4
ENDBRANCH   2   3
ENDBRANCH   1   2
BRANCH   1  19
ATOM     19  C   UNL     1       1.093   5.481  20.427  0.00  0.00    +0.000 C 
BRANCH  19  20
ATOM     20  C   UNL     1       2.380   5.810  19.697  0.00  0.00    +0.000 C 
BRANCH  20  21
ATOM     21  C   UNL     1       2.060   6.412  18.344  0.00  0.00    +0.000 C 
BRANCH  21  22
ATOM     22  C   UNL     1       2.719   7.765  18.222  0.00  0.00    +0.000 C 
BRANCH  22  23
ATOM     23  C   UNL     1       1.981   8.785  19.075  0.00  0.00    +0.000 C 
BRANCH  23  24
ATOM     24  C   UNL     1       1.029   9.592  18.207  0.00  0.00    +0.000 C 
BRANCH  24  25
ATOM     25  C   UNL     1      -0.092  10.168  19.057  0.00  0.00    +0.000 C 
BRANCH  25  27
ATOM     26  C   UNL     1       0.471  11.460  21.103  0.00  0.00    +0.000 C 
ATOM     27  C   UNL     1       0.342  11.413  19.774  0.00  0.00    +0.000 C 
BRANCH  26  28
ATOM     28  C   UNL     1       0.210  10.258  21.952  0.00  0.00    +0.000 C 
BRANCH  28  29
ATOM     29  C   UNL     1      -0.954  10.482  22.888  0.00  0.00    +0.000 C 
BRANCH  29  30
ATOM     30  C   UNL     1      -1.245  11.969  22.990  0.00  0.00    +0.000 C 
BRANCH  30  31
ATOM     31  C   UNL     1      -2.737  12.208  22.860  0.00  0.00    +0.000 C 
BRANCH  31  32
ATOM     32  C   UNL     1      -3.067  12.703  21.463  0.00  0.00    +0.000 C 
BRANCH  32  33
ATOM     33  C   UNL     1      -3.422  14.180  21.505  0.00  0.00    +0.000 C 
BRANCH  33  35
ATOM     34  C   UNL     1      -1.630  15.781  22.165  0.00  0.00    +0.000 C 
ATOM     35  C   UNL     1      -2.256  15.023  21.012  0.00  0.00    +0.000 C 
ENDBRANCH  33  35
ENDBRANCH  32  33
ENDBRANCH  31  32
ENDBRANCH  30  31
ENDBRANCH  29  30
ENDBRANCH  28  29
ENDBRANCH  26  28
ENDBRANCH  25  27
ENDBRANCH  24  25
ENDBRANCH  23  24
ENDBRANCH  22  23
ENDBRANCH  21  22
ENDBRANCH  20  21
ENDBRANCH  19  20
ENDBRANCH   1  19
TORSDOF 25
ENDMDL
MODEL 5
REMARK VINA RESULT:      -5.6      2.378      4.670
REMARK  Name = 
REMARK  27 active torsions:
REMARK  status: ('A' for Active; 'I' for Inactive)
REMARK    1  A    between atoms: C_1  and  C_2
REMARK    2  A    between atoms: C_2  and  C_3
REMARK    3  A    between atoms: C_3  and  C_4
REMARK    4  A    between atoms: C_4  and  C_5
REMARK    5  A    between atoms: C_5  and  C_6
REMARK    6  A    between atoms: C_6  and  C_7
REMARK    7  A    between atoms: C_7  and  C_8
REMARK    8  A    between atoms: C_8  and  C_9
REMARK    9  A    between atoms: C_10  and  C_11
REMARK   10  A    between atoms: C_11  and  C_12
REMARK   11  A    between atoms: C_12  and  C_13
REMARK   12  A    between atoms: C_13  and  C_14
REMARK   13  A    between atoms: C_14  and  C_15
REMARK   14  A    between atoms: C_15  and  C_16
REMARK   15  A    between atoms: C_16  and  C_17
REMARK   16  A    between atoms: C_17  and  C_18
REMARK   17  A    between atoms: C_18  and  C_19
REMARK   18  A    between atoms: C_19  and  C_20
REMARK   19  A    between atoms: C_20  and  C_21
REMARK   20  A    between atoms: C_21  and  C_22
REMARK   21  A    between atoms: C_22  and  C_23
REMARK   22  A    between atoms: C_23  and  C_24
REMARK   23  A    between atoms: C_24  and  C_25
REMARK   24  A    between atoms: C_25  and  C_26
REMARK   25  A    between atoms: C_26  and  C_27
REMARK   26  A    between atoms: C_31  and  C_32
REMARK   27  A    between atoms: C_33  and  O_34
REMARK                            x       y       z     vdW  Elec       q    Type
REMARK                         _______ _______ _______ _____ _____    ______ ____
ROOT
ATOM      1  C   UNL     1       2.230   6.947  20.477  0.00  0.00    +0.000 C 
ENDROOT
BRANCH   1   2
ATOM      2  C   UNL     1       2.031   5.533  19.965  0.00  0.00    +0.000 C 
BRANCH   2   3
ATOM      3  C   UNL     1       2.136   4.553  21.115  0.00  0.00    +0.000 C 
BRANCH   3   4
ATOM      4  C   UNL     1       1.433   3.259  20.753  0.00  0.00    +0.000 C 
BRANCH   4   5
ATOM      5  C   UNL     1       1.139   3.251  19.268  0.00  0.00    +0.000 C 
BRANCH   5   6
ATOM      6  C   UNL     1       1.912   2.144  18.591  0.00  0.00    +0.000 C 
BRANCH   6   7
ATOM      7  C   UNL     1       3.403   2.425  18.722  0.00  0.00    +0.000 C 
BRANCH   7   8
ATOM      8  C   UNL     1       3.938   2.740  17.342  0.00  0.00    +0.000 C 
BRANCH   8   9
ATOM      9  C   UNL     1       4.088   4.237  17.080  0.00  0.00    +0.000 C 
BRANCH   9  10
ATOM     10  C   UNL     1       5.481   4.600  16.552  0.00  0.00    +0.000 C 
ATOM     11  C   UNL     1       5.637   6.086  16.350  0.00  0.00    +0.000 C 
ATOM     12  O   UNL     1       5.204   6.727  15.373  0.00  0.00    +0.000 OA
ATOM     13  O   UNL     1       6.330   6.657  17.382  0.00  0.00    +0.000 OA
ATOM     14  C   UNL     1       6.609   5.651  18.370  0.00  0.00    +0.000 C 
ATOM     15  C   UNL     1       7.890   5.923  19.137  0.00  0.00    +0.000 C 
ATOM     16  C   UNL     1       6.595   4.362  17.564  0.00  0.00    +0.000 C 
BRANCH  16  17
ATOM     17  O   UNL     1       7.829   4.177  16.860  0.00  0.00    +0.000 OA
ATOM     18  H   UNL     1       8.454   3.708  17.445  0.00  0.00    +0.000 HD
ENDBRANCH  16  17
ENDBRANCH   9  10
ENDBRANCH   8   9
ENDBRANCH   7   8
ENDBRANCH   6   7
ENDBRANCH   5   6
ENDBRANCH   4   5
ENDBRANCH   3   4
ENDBRANCH   2   3
ENDBRANCH   1   2
BRANCH   1  19
ATOM     19  C   UNL     1       1.447   7.920  19.617  0.00  0.00    +0.000 C 
BRANCH  19  20
ATOM     20  C   UNL     1       2.235   8.245  18.364  0.00  0.00    +0.000 C 
BRANCH  20  21
ATOM     21  C   UNL     1       1.907   9.652  17.906  0.00  0.00    +0.000 C 
BRANCH  21  22
ATOM     22  C   UNL     1       0.442   9.932  18.136  0.00  0.00    +0.000 C 
BRANCH  22  23
ATOM     23  C   UNL     1       0.278  11.075  19.126  0.00  0.00    +0.000 C 
BRANCH  23  24
ATOM     24  C   UNL     1      -1.174  11.170  19.568  0.00  0.00    +0.000 C 
BRANCH  24  25
ATOM     25  C   UNL     1      -1.412  12.481  20.301  0.00  0.00    +0.000 C 
BRANCH  25  27
ATOM     26  C   UNL     1      -1.096  12.381  22.763  0.00  0.00    +0.000 C 
ATOM     27  C   UNL     1      -0.580  12.576  21.547  0.00  0.00    +0.000 C 
BRANCH  26  28
ATOM     28  C   UNL     1      -2.538  12.032  22.949  0.00  0.00    +0.000 C 
BRANCH  28  29
ATOM     29  C   UNL     1      -3.259  13.070  23.775  0.00  0.00    +0.000 C 
BRANCH  29  30
ATOM     30  C   UNL     1      -4.514  13.517  23.048  0.00  0.00    +0.000 C 
BRANCH  30  31
ATOM     31  C   UNL     1      -4.689  12.702  21.781  0.00  0.00    +0.000 C 
BRANCH  31  32
ATOM     32  C   UNL     1      -5.035  13.614  20.617  0.00  0.00    +0.000 C 
BRANCH  32  33
ATOM     33  C   UNL     1      -6.181  13.020  19.815  0.00  0.00    +0.000 C 
BRANCH  33  35
ATOM     34  C   UNL     1      -6.813  10.772  18.944  0.00  0.00    +0.000 C 
ATOM     35  C   UNL     1      -6.373  11.553  20.167  0.00  0.00    +0.000 C 
ENDBRANCH  33  35
ENDBRANCH  32  33
ENDBRANCH  31  32
ENDBRANCH  30  31
ENDBRANCH  29  30
ENDBRANCH  28  29
ENDBRANCH  26  28
ENDBRANCH  25  27
ENDBRANCH  24  25
ENDBRANCH  23  24
ENDBRANCH  22  23
ENDBRANCH  21  22
ENDBRANCH  20  21
ENDBRANCH  19  20
ENDBRANCH   1  19
TORSDOF 25
ENDMDL
MODEL 6
REMARK VINA RESULT:      -5.6      2.393      4.677
REMARK  Name = 
REMARK  27 active torsions:
REMARK  status: ('A' for Active; 'I' for Inactive)
REMARK    1  A    between atoms: C_1  and  C_2
REMARK    2  A    between atoms: C_2  and  C_3
REMARK    3  A    between atoms: C_3  and  C_4
REMARK    4  A    between atoms: C_4  and  C_5
REMARK    5  A    between atoms: C_5  and  C_6
REMARK    6  A    between atoms: C_6  and  C_7
REMARK    7  A    between atoms: C_7  and  C_8
REMARK    8  A    between atoms: C_8  and  C_9
REMARK    9  A    between atoms: C_10  and  C_11
REMARK   10  A    between atoms: C_11  and  C_12
REMARK   11  A    between atoms: C_12  and  C_13
REMARK   12  A    between atoms: C_13  and  C_14
REMARK   13  A    between atoms: C_14  and  C_15
REMARK   14  A    between atoms: C_15  and  C_16
REMARK   15  A    between atoms: C_16  and  C_17
REMARK   16  A    between atoms: C_17  and  C_18
REMARK   17  A    between atoms: C_18  and  C_19
REMARK   18  A    between atoms: C_19  and  C_20
REMARK   19  A    between atoms: C_20  and  C_21
REMARK   20  A    between atoms: C_21  and  C_22
REMARK   21  A    between atoms: C_22  and  C_23
REMARK   22  A    between atoms: C_23  and  C_24
REMARK   23  A    between atoms: C_24  and  C_25
REMARK   24  A    between atoms: C_25  and  C_26
REMARK   25  A    between atoms: C_26  and  C_27
REMARK   26  A    between atoms: C_31  and  C_32
REMARK   27  A    between atoms: C_33  and  O_34
REMARK                            x       y       z     vdW  Elec       q    Type
REMARK                         _______ _______ _______ _____ _____    ______ ____
ROOT
ATOM      1  C   UNL     1       1.720   7.883  19.664  0.00  0.00    +0.000 C 
ENDROOT
BRANCH   1   2
ATOM      2  C   UNL     1       2.374   7.469  18.359  0.00  0.00    +0.000 C 
BRANCH   2   3
ATOM      3  C   UNL     1       2.145   5.990  18.119  0.00  0.00    +0.000 C 
BRANCH   3   4
ATOM      4  C   UNL     1       2.166   5.247  19.440  0.00  0.00    +0.000 C 
BRANCH   4   5
ATOM      5  C   UNL     1       1.806   3.796  19.202  0.00  0.00    +0.000 C 
BRANCH   5   6
ATOM      6  C   UNL     1       3.031   3.019  18.782  0.00  0.00    +0.000 C 
BRANCH   6   7
ATOM      7  C   UNL     1       4.243   3.555  19.534  0.00  0.00    +0.000 C 
BRANCH   7   8
ATOM      8  C   UNL     1       5.257   4.015  18.510  0.00  0.00    +0.000 C 
BRANCH   8   9
ATOM      9  C   UNL     1       5.896   5.358  18.856  0.00  0.00    +0.000 C 
BRANCH   9  10
ATOM     10  C   UNL     1       5.865   6.340  17.679  0.00  0.00    +0.000 C 
ATOM     11  C   UNL     1       7.243   6.832  17.318  0.00  0.00    +0.000 C 
ATOM     12  O   UNL     1       7.868   7.725  17.922  0.00  0.00    +0.000 OA
ATOM     13  O   UNL     1       7.733   6.174  16.223  0.00  0.00    +0.000 OA
ATOM     14  C   UNL     1       6.793   5.161  15.827  0.00  0.00    +0.000 C 
ATOM     15  C   UNL     1       6.828   4.881  14.336  0.00  0.00    +0.000 C 
ATOM     16  C   UNL     1       5.471   5.691  16.358  0.00  0.00    +0.000 C 
BRANCH  16  17
ATOM     17  O   UNL     1       4.929   6.695  15.491  0.00  0.00    +0.000 OA
ATOM     18  H   UNL     1       5.353   7.549  15.700  0.00  0.00    +0.000 HD
ENDBRANCH  16  17
ENDBRANCH   9  10
ENDBRANCH   8   9
ENDBRANCH   7   8
ENDBRANCH   6   7
ENDBRANCH   5   6
ENDBRANCH   4   5
ENDBRANCH   3   4
ENDBRANCH   2   3
ENDBRANCH   1   2
BRANCH   1  19
ATOM     19  C   UNL     1       1.565   9.391  19.704  0.00  0.00    +0.000 C 
BRANCH  19  20
ATOM     20  C   UNL     1       0.486   9.821  18.731  0.00  0.00    +0.000 C 
BRANCH  20  21
ATOM     21  C   UNL     1      -0.108  11.141  19.178  0.00  0.00    +0.000 C 
BRANCH  21  22
ATOM     22  C   UNL     1      -1.532  11.250  18.688  0.00  0.00    +0.000 C 
BRANCH  22  23
ATOM     23  C   UNL     1      -1.815  10.164  17.661  0.00  0.00    +0.000 C 
BRANCH  23  24
ATOM     24  C   UNL     1      -3.074  10.507  16.881  0.00  0.00    +0.000 C 
BRANCH  24  25
ATOM     25  C   UNL     1      -3.950  11.449  17.691  0.00  0.00    +0.000 C 
BRANCH  25  27
ATOM     26  C   UNL     1      -6.302  11.583  18.478  0.00  0.00    +0.000 C 
ATOM     27  C   UNL     1      -5.379  10.990  17.716  0.00  0.00    +0.000 C 
BRANCH  26  28
ATOM     28  C   UNL     1      -5.964  12.760  19.336  0.00  0.00    +0.000 C 
BRANCH  28  29
ATOM     29  C   UNL     1      -5.800  12.363  20.783  0.00  0.00    +0.000 C 
BRANCH  29  30
ATOM     30  C   UNL     1      -4.789  13.278  21.450  0.00  0.00    +0.000 C 
BRANCH  30  31
ATOM     31  C   UNL     1      -3.507  12.514  21.719  0.00  0.00    +0.000 C 
BRANCH  31  32
ATOM     32  C   UNL     1      -3.161  12.577  23.196  0.00  0.00    +0.000 C 
BRANCH  32  33
ATOM     33  C   UNL     1      -1.653  12.640  23.374  0.00  0.00    +0.000 C 
BRANCH  33  35
ATOM     34  C   UNL     1      -0.774  10.329  23.057  0.00  0.00    +0.000 C 
ATOM     35  C   UNL     1      -0.963  11.687  22.410  0.00  0.00    +0.000 C 
ENDBRANCH  33  35
ENDBRANCH  32  33
ENDBRANCH  31  32
ENDBRANCH  30  31
ENDBRANCH  29  30
ENDBRANCH  28  29
ENDBRANCH  26  28
ENDBRANCH  25  27
ENDBRANCH  24  25
ENDBRANCH  23  24
ENDBRANCH  22  23
ENDBRANCH  21  22
ENDBRANCH  20  21
ENDBRANCH  19  20
ENDBRANCH   1  19
TORSDOF 25
ENDMDL
MODEL 7
REMARK VINA RESULT:      -5.5      2.448      4.834
REMARK  Name = 
REMARK  27 active torsions:
REMARK  status: ('A' for Active; 'I' for Inactive)
REMARK    1  A    between atoms: C_1  and  C_2
REMARK    2  A    between atoms: C_2  and  C_3
REMARK    3  A    between atoms: C_3  and  C_4
REMARK    4  A    between atoms: C_4  and  C_5
REMARK    5  A    between atoms: C_5  and  C_6
REMARK    6  A    between atoms: C_6  and  C_7
REMARK    7  A    between atoms: C_7  and  C_8
REMARK    8  A    between atoms: C_8  and  C_9
REMARK    9  A    between atoms: C_10  and  C_11
REMARK   10  A    between atoms: C_11  and  C_12
REMARK   11  A    between atoms: C_12  and  C_13
REMARK   12  A    between atoms: C_13  and  C_14
REMARK   13  A    between atoms: C_14  and  C_15
REMARK   14  A    between atoms: C_15  and  C_16
REMARK   15  A    between atoms: C_16  and  C_17
REMARK   16  A    between atoms: C_17  and  C_18
REMARK   17  A    between atoms: C_18  and  C_19
REMARK   18  A    between atoms: C_19  and  C_20
REMARK   19  A    between atoms: C_20  and  C_21
REMARK   20  A    between atoms: C_21  and  C_22
REMARK   21  A    between atoms: C_22  and  C_23
REMARK   22  A    between atoms: C_23  and  C_24
REMARK   23  A    between atoms: C_24  and  C_25
REMARK   24  A    between atoms: C_25  and  C_26
REMARK   25  A    between atoms: C_26  and  C_27
REMARK   26  A    between atoms: C_31  and  C_32
REMARK   27  A    between atoms: C_33  and  O_34
REMARK                            x       y       z     vdW  Elec       q    Type
REMARK                         _______ _______ _______ _____ _____    ______ ____
ROOT
ATOM      1  C   UNL     1       2.879   4.611  20.808  0.00  0.00    +0.000 C 
ENDROOT
BRANCH   1   2
ATOM      2  C   UNL     1       2.126   3.430  21.389  0.00  0.00    +0.000 C 
BRANCH   2   3
ATOM      3  C   UNL     1       0.846   3.206  20.610  0.00  0.00    +0.000 C 
BRANCH   3   4
ATOM      4  C   UNL     1       1.095   3.447  19.134  0.00  0.00    +0.000 C 
BRANCH   4   5
ATOM      5  C   UNL     1       1.520   2.149  18.482  0.00  0.00    +0.000 C 
BRANCH   5   6
ATOM      6  C   UNL     1       2.676   2.394  17.541  0.00  0.00    +0.000 C 
BRANCH   6   7
ATOM      7  C   UNL     1       2.813   3.891  17.300  0.00  0.00    +0.000 C 
BRANCH   7   8
ATOM      8  C   UNL     1       4.288   4.230  17.315  0.00  0.00    +0.000 C 
BRANCH   8   9
ATOM      9  C   UNL     1       4.975   3.990  15.973  0.00  0.00    +0.000 C 
BRANCH   9  10
ATOM     10  C   UNL     1       6.503   4.072  16.076  0.00  0.00    +0.000 C 
ATOM     11  C   UNL     1       7.065   5.194  15.243  0.00  0.00    +0.000 C 
ATOM     12  O   UNL     1       7.246   5.153  14.011  0.00  0.00    +0.000 OA
ATOM     13  O   UNL     1       7.366   6.283  16.016  0.00  0.00    +0.000 OA
ATOM     14  C   UNL     1       6.961   6.020  17.370  0.00  0.00    +0.000 C 
ATOM     15  C   UNL     1       7.822   6.745  18.388  0.00  0.00    +0.000 C 
ATOM     16  C   UNL     1       6.996   4.503  17.452  0.00  0.00    +0.000 C 
BRANCH  16  17
ATOM     17  O   UNL     1       8.334   4.023  17.636  0.00  0.00    +0.000 OA
ATOM     18  H   UNL     1       8.381   3.101  17.322  0.00  0.00    +0.000 HD
ENDBRANCH  16  17
ENDBRANCH   9  10
ENDBRANCH   8   9
ENDBRANCH   7   8
ENDBRANCH   6   7
ENDBRANCH   5   6
ENDBRANCH   4   5
ENDBRANCH   3   4
ENDBRANCH   2   3
ENDBRANCH   1   2
BRANCH   1  19
ATOM     19  C   UNL     1       1.896   5.654  20.313  0.00  0.00    +0.000 C 
BRANCH  19  20
ATOM     20  C   UNL     1       2.097   6.950  21.073  0.00  0.00    +0.000 C 
BRANCH  20  21
ATOM     21  C   UNL     1       1.405   8.082  20.342  0.00  0.00    +0.000 C 
BRANCH  21  22
ATOM     22  C   UNL     1       1.854   8.107  18.901  0.00  0.00    +0.000 C 
BRANCH  22  23
ATOM     23  C   UNL     1       1.644   9.493  18.312  0.00  0.00    +0.000 C 
BRANCH  23  24
ATOM     24  C   UNL     1       0.252   9.593  17.710  0.00  0.00    +0.000 C 
BRANCH  24  25
ATOM     25  C   UNL     1      -0.677  10.331  18.660  0.00  0.00    +0.000 C 
BRANCH  25  27
ATOM     26  C   UNL     1      -2.584  11.439  17.517  0.00  0.00    +0.000 C 
ATOM     27  C   UNL     1      -1.336  11.502  17.991  0.00  0.00    +0.000 C 
BRANCH  26  28
ATOM     28  C   UNL     1      -3.405  10.198  17.649  0.00  0.00    +0.000 C 
BRANCH  28  29
ATOM     29  C   UNL     1      -4.882  10.497  17.563  0.00  0.00    +0.000 C 
BRANCH  29  30
ATOM     30  C   UNL     1      -5.085  11.964  17.229  0.00  0.00    +0.000 C 
BRANCH  30  31
ATOM     31  C   UNL     1      -6.324  12.483  17.934  0.00  0.00    +0.000 C 
BRANCH  31  32
ATOM     32  C   UNL     1      -6.135  12.416  19.439  0.00  0.00    +0.000 C 
BRANCH  32  33
ATOM     33  C   UNL     1      -5.900  13.810  19.995  0.00  0.00    +0.000 C 
BRANCH  33  35
ATOM     34  C   UNL     1      -3.576  13.116  20.569  0.00  0.00    +0.000 C 
ATOM     35  C   UNL     1      -4.839  13.778  21.084  0.00  0.00    +0.000 C 
ENDBRANCH  33  35
ENDBRANCH  32  33
ENDBRANCH  31  32
ENDBRANCH  30  31
ENDBRANCH  29  30
ENDBRANCH  28  29
ENDBRANCH  26  28
ENDBRANCH  25  27
ENDBRANCH  24  25
ENDBRANCH  23  24
ENDBRANCH  22  23
ENDBRANCH  21  22
ENDBRANCH  20  21
ENDBRANCH  19  20
ENDBRANCH   1  19
TORSDOF 25
ENDMDL
MODEL 8
REMARK VINA RESULT:      -5.4      2.949      5.579
REMARK  Name = 
REMARK  27 active torsions:
REMARK  status: ('A' for Active; 'I' for Inactive)
REMARK    1  A    between atoms: C_1  and  C_2
REMARK    2  A    between atoms: C_2  and  C_3
REMARK    3  A    between atoms: C_3  and  C_4
REMARK    4  A    between atoms: C_4  and  C_5
REMARK    5  A    between atoms: C_5  and  C_6
REMARK    6  A    between atoms: C_6  and  C_7
REMARK    7  A    between atoms: C_7  and  C_8
REMARK    8  A    between atoms: C_8  and  C_9
REMARK    9  A    between atoms: C_10  and  C_11
REMARK   10  A    between atoms: C_11  and  C_12
REMARK   11  A    between atoms: C_12  and  C_13
REMARK   12  A    between atoms: C_13  and  C_14
REMARK   13  A    between atoms: C_14  and  C_15
REMARK   14  A    between atoms: C_15  and  C_16
REMARK   15  A    between atoms: C_16  and  C_17
REMARK   16  A    between atoms: C_17  and  C_18
REMARK   17  A    between atoms: C_18  and  C_19
REMARK   18  A    between atoms: C_19  and  C_20
REMARK   19  A    between atoms: C_20  and  C_21
REMARK   20  A    between atoms: C_21  and  C_22
REMARK   21  A    between atoms: C_22  and  C_23
REMARK   22  A    between atoms: C_23  and  C_24
REMARK   23  A    between atoms: C_24  and  C_25
REMARK   24  A    between atoms: C_25  and  C_26
REMARK   25  A    between atoms: C_26  and  C_27
REMARK   26  A    between atoms: C_31  and  C_32
REMARK   27  A    between atoms: C_33  and  O_34
REMARK                            x       y       z     vdW  Elec       q    Type
REMARK                         _______ _______ _______ _____ _____    ______ ____
ROOT
ATOM      1  C   UNL     1       2.640   4.481  21.180  0.00  0.00    +0.000 C 
ENDROOT
BRANCH   1   2
ATOM      2  C   UNL     1       2.379   3.017  20.881  0.00  0.00    +0.000 C 
BRANCH   2   3
ATOM      3  C   UNL     1       0.944   2.834  20.431  0.00  0.00    +0.000 C 
BRANCH   3   4
ATOM      4  C   UNL     1       0.910   2.070  19.122  0.00  0.00    +0.000 C 
BRANCH   4   5
ATOM      5  C   UNL     1       2.274   2.141  18.468  0.00  0.00    +0.000 C 
BRANCH   5   6
ATOM      6  C   UNL     1       2.254   3.135  17.332  0.00  0.00    +0.000 C 
BRANCH   6   7
ATOM      7  C   UNL     1       3.685   3.423  16.897  0.00  0.00    +0.000 C 
BRANCH   7   8
ATOM      8  C   UNL     1       4.350   4.226  17.994  0.00  0.00    +0.000 C 
BRANCH   8   9
ATOM      9  C   UNL     1       5.087   5.459  17.477  0.00  0.00    +0.000 C 
BRANCH   9  10
ATOM     10  C   UNL     1       6.603   5.366  17.692  0.00  0.00    +0.000 C 
ATOM     11  C   UNL     1       7.370   5.666  16.430  0.00  0.00    +0.000 C 
ATOM     12  O   UNL     1       7.551   4.866  15.491  0.00  0.00    +0.000 OA
ATOM     13  O   UNL     1       7.861   6.943  16.440  0.00  0.00    +0.000 OA
ATOM     14  C   UNL     1       7.404   7.610  17.629  0.00  0.00    +0.000 C 
ATOM     15  C   UNL     1       8.376   8.669  18.115  0.00  0.00    +0.000 C 
ATOM     16  C   UNL     1       7.156   6.462  18.594  0.00  0.00    +0.000 C 
BRANCH  16  17
ATOM     17  O   UNL     1       8.380   6.005  19.182  0.00  0.00    +0.000 OA
ATOM     18  H   UNL     1       8.587   5.121  18.824  0.00  0.00    +0.000 HD
ENDBRANCH  16  17
ENDBRANCH   9  10
ENDBRANCH   8   9
ENDBRANCH   7   8
ENDBRANCH   6   7
ENDBRANCH   5   6
ENDBRANCH   4   5
ENDBRANCH   3   4
ENDBRANCH   2   3
ENDBRANCH   1   2
BRANCH   1  19
ATOM     19  C   UNL     1       1.540   5.332  20.575  0.00  0.00    +0.000 C 
BRANCH  19  20
ATOM     20  C   UNL     1       2.138   6.318  19.591  0.00  0.00    +0.000 C 
BRANCH  20  21
ATOM     21  C   UNL     1       2.150   7.704  20.202  0.00  0.00    +0.000 C 
BRANCH  21  22
ATOM     22  C   UNL     1       1.010   8.518  19.639  0.00  0.00    +0.000 C 
BRANCH  22  23
ATOM     23  C   UNL     1       1.528   9.485  18.586  0.00  0.00    +0.000 C 
BRANCH  23  24
ATOM     24  C   UNL     1       1.083  10.900  18.921  0.00  0.00    +0.000 C 
BRANCH  24  25
ATOM     25  C   UNL     1       2.074  11.906  18.358  0.00  0.00    +0.000 C 
BRANCH  25  27
ATOM     26  C   UNL     1       1.290  14.024  19.393  0.00  0.00    +0.000 C 
ATOM     27  C   UNL     1       2.237  13.089  19.267  0.00  0.00    +0.000 C 
BRANCH  26  28
ATOM     28  C   UNL     1      -0.002  13.929  18.648  0.00  0.00    +0.000 C 
BRANCH  28  29
ATOM     29  C   UNL     1      -1.188  14.074  19.571  0.00  0.00    +0.000 C 
BRANCH  29  30
ATOM     30  C   UNL     1      -1.908  12.743  19.688  0.00  0.00    +0.000 C 
BRANCH  30  31
ATOM     31  C   UNL     1      -2.238  12.467  21.142  0.00  0.00    +0.000 C 
BRANCH  31  32
ATOM     32  C   UNL     1      -0.971  12.482  21.978  0.00  0.00    +0.000 C 
BRANCH  32  33
ATOM     33  C   UNL     1      -1.036  11.397  23.040  0.00  0.00    +0.000 C 
BRANCH  33  35
ATOM     34  C   UNL     1       0.523   9.453  23.069  0.00  0.00    +0.000 C 
ATOM     35  C   UNL     1      -0.723  10.038  22.433  0.00  0.00    +0.000 C 
ENDBRANCH  33  35
ENDBRANCH  32  33
ENDBRANCH  31  32
ENDBRANCH  30  31
ENDBRANCH  29  30
ENDBRANCH  28  29
ENDBRANCH  26  28
ENDBRANCH  25  27
ENDBRANCH  24  25
ENDBRANCH  23  24
ENDBRANCH  22  23
ENDBRANCH  21  22
ENDBRANCH  20  21
ENDBRANCH  19  20
ENDBRANCH   1  19
TORSDOF 25
ENDMDL
MODEL 9
REMARK VINA RESULT:      -5.4      3.742      6.417
REMARK  Name = 
REMARK  27 active torsions:
REMARK  status: ('A' for Active; 'I' for Inactive)
REMARK    1  A    between atoms: C_1  and  C_2
REMARK    2  A    between atoms: C_2  and  C_3
REMARK    3  A    between atoms: C_3  and  C_4
REMARK    4  A    between atoms: C_4  and  C_5
REMARK    5  A    between atoms: C_5  and  C_6
REMARK    6  A    between atoms: C_6  and  C_7
REMARK    7  A    between atoms: C_7  and  C_8
REMARK    8  A    between atoms: C_8  and  C_9
REMARK    9  A    between atoms: C_10  and  C_11
REMARK   10  A    between atoms: C_11  and  C_12
REMARK   11  A    between atoms: C_12  and  C_13
REMARK   12  A    between atoms: C_13  and  C_14
REMARK   13  A    between atoms: C_14  and  C_15
REMARK   14  A    between atoms: C_15  and  C_16
REMARK   15  A    between atoms: C_16  and  C_17
REMARK   16  A    between atoms: C_17  and  C_18
REMARK   17  A    between atoms: C_18  and  C_19
REMARK   18  A    between atoms: C_19  and  C_20
REMARK   19  A    between atoms: C_20  and  C_21
REMARK   20  A    between atoms: C_21  and  C_22
REMARK   21  A    between atoms: C_22  and  C_23
REMARK   22  A    between atoms: C_23  and  C_24
REMARK   23  A    between atoms: C_24  and  C_25
REMARK   24  A    between atoms: C_25  and  C_26
REMARK   25  A    between atoms: C_26  and  C_27
REMARK   26  A    between atoms: C_31  and  C_32
REMARK   27  A    between atoms: C_33  and  O_34
REMARK                            x       y       z     vdW  Elec       q    Type
REMARK                         _______ _______ _______ _____ _____    ______ ____
ROOT
ATOM      1  C   UNL     1       2.120   5.118  20.976  0.00  0.00    +0.000 C 
ENDROOT
BRANCH   1   2
ATOM      2  C   UNL     1       0.958   4.326  20.407  0.00  0.00    +0.000 C 
BRANCH   2   3
ATOM      3  C   UNL     1       1.155   2.851  20.695  0.00  0.00    +0.000 C 
BRANCH   3   4
ATOM      4  C   UNL     1       2.635   2.529  20.729  0.00  0.00    +0.000 C 
BRANCH   4   5
ATOM      5  C   UNL     1       3.085   2.099  19.349  0.00  0.00    +0.000 C 
BRANCH   5   6
ATOM      6  C   UNL     1       2.893   3.229  18.366  0.00  0.00    +0.000 C 
BRANCH   6   7
ATOM      7  C   UNL     1       3.769   2.981  17.145  0.00  0.00    +0.000 C 
BRANCH   7   8
ATOM      8  C   UNL     1       4.365   4.307  16.725  0.00  0.00    +0.000 C 
BRANCH   8   9
ATOM      9  C   UNL     1       5.250   4.206  15.485  0.00  0.00    +0.000 C 
BRANCH   9  10
ATOM     10  C   UNL     1       6.744   4.204  15.832  0.00  0.00    +0.000 C 
ATOM     11  C   UNL     1       7.480   5.335  15.160  0.00  0.00    +0.000 C 
ATOM     12  O   UNL     1       7.853   5.342  13.971  0.00  0.00    +0.000 OA
ATOM     13  O   UNL     1       7.699   6.369  16.029  0.00  0.00    +0.000 OA
ATOM     14  C   UNL     1       7.073   6.063  17.286  0.00  0.00    +0.000 C 
ATOM     15  C   UNL     1       7.790   6.695  18.466  0.00  0.00    +0.000 C 
ATOM     16  C   UNL     1       7.029   4.544  17.290  0.00  0.00    +0.000 C 
BRANCH  16  17
ATOM     17  O   UNL     1       8.298   3.989  17.656  0.00  0.00    +0.000 OA
ATOM     18  H   UNL     1       8.812   4.670  18.129  0.00  0.00    +0.000 HD
ENDBRANCH  16  17
ENDBRANCH   9  10
ENDBRANCH   8   9
ENDBRANCH   7   8
ENDBRANCH   6   7
ENDBRANCH   5   6
ENDBRANCH   4   5
ENDBRANCH   3   4
ENDBRANCH   2   3
ENDBRANCH   1   2
BRANCH   1  19
ATOM     19  C   UNL     1       2.069   6.544  20.464  0.00  0.00    +0.000 C 
BRANCH  19  20
ATOM     20  C   UNL     1       2.802   6.640  19.141  0.00  0.00    +0.000 C 
BRANCH  20  21
ATOM     21  C   UNL     1       1.925   7.337  18.121  0.00  0.00    +0.000 C 
BRANCH  21  22
ATOM     22  C   UNL     1       2.175   8.825  18.168  0.00  0.00    +0.000 C 
BRANCH  22  23
ATOM     23  C   UNL     1       0.911   9.580  17.789  0.00  0.00    +0.000 C 
BRANCH  23  24
ATOM     24  C   UNL     1       0.067   9.828  19.030  0.00  0.00    +0.000 C 
BRANCH  24  25
ATOM     25  C   UNL     1       0.925  10.419  20.136  0.00  0.00    +0.000 C 
BRANCH  25  27
ATOM     26  C   UNL     1       1.024  12.898  20.024  0.00  0.00    +0.000 C 
ATOM     27  C   UNL     1       0.461  11.793  20.521  0.00  0.00    +0.000 C 
BRANCH  26  28
ATOM     28  C   UNL     1       2.139  12.824  19.032  0.00  0.00    +0.000 C 
BRANCH  28  29
ATOM     29  C   UNL     1       2.912  14.120  18.966  0.00  0.00    +0.000 C 
BRANCH  29  30
ATOM     30  C   UNL     1       1.948  15.291  19.047  0.00  0.00    +0.000 C 
BRANCH  30  31
ATOM     31  C   UNL     1       2.453  16.299  20.062  0.00  0.00    +0.000 C 
BRANCH  31  32
ATOM     32  C   UNL     1       2.131  17.709  19.601  0.00  0.00    +0.000 C 
BRANCH  32  33
ATOM     33  C   UNL     1       1.602  17.682  18.177  0.00  0.00    +0.000 C 
BRANCH  33  35
ATOM     34  C   UNL     1      -0.268  18.406  16.697  0.00  0.00    +0.000 C 
ATOM     35  C   UNL     1       0.421  18.629  18.029  0.00  0.00    +0.000 C 
ENDBRANCH  33  35
ENDBRANCH  32  33
ENDBRANCH  31  32
ENDBRANCH  30  31
ENDBRANCH  29  30
ENDBRANCH  28  29
ENDBRANCH  26  28
ENDBRANCH  25  27
ENDBRANCH  24  25
ENDBRANCH  23  24
ENDBRANCH  22  23
ENDBRANCH  21  22
ENDBRANCH  20  21
ENDBRANCH  19  20
ENDBRANCH   1  19
TORSDOF 25
ENDMDL
