MODEL 1
REMARK VINA RESULT:      -8.1      0.000      0.000
REMARK  Name = 
REMARK  2 active torsions:
REMARK  status: ('A' for Active; 'I' for Inactive)
REMARK    1  A    between atoms: C_7  and  N_8
REMARK    2  A    between atoms: N_8  and  C_9
REMARK                            x       y       z     vdW  Elec       q    Type
REMARK                         _______ _______ _______ _____ _____    ______ ____
ROOT
ATOM      1  C   UNL     1       5.352   3.979  18.131  0.00  0.00    +0.000 A 
ATOM      2  N   UNL     1       5.932   4.420  19.269  0.00  0.00    +0.000 NA
ATOM      3  N   UNL     1       6.969   5.210  19.214  0.00  0.00    +0.000 NA
ATOM      4  N   UNL     1       7.489   5.591  18.081  0.00  0.00    +0.000 NA
ATOM      5  C   UNL     1       6.966   5.140  16.935  0.00  0.00    +0.000 A 
ATOM      6  C   UNL     1       7.518   5.531  15.722  0.00  0.00    +0.000 A 
ATOM      7  C   UNL     1       7.004   5.064  14.514  0.00  0.00    +0.000 A 
ATOM      8  C   UNL     1       5.926   4.207  14.572  0.00  0.00    +0.000 A 
ATOM      9 CL   UNL     1       5.237   3.556  13.146  0.00  0.00    +0.000 Cl
ATOM     10  N   UNL     1       5.337   3.811  15.717  0.00  0.00    +0.000 NA
ATOM     11  C   UNL     1       5.871   4.284  16.883  0.00  0.00    +0.000 A 
ENDROOT
BRANCH   1  12
ATOM     12  N   UNL     1       4.216   3.118  18.202  0.00  0.00    +0.000 N 
ATOM     13  H   UNL     1       3.785   3.049  17.279  0.00  0.00    +0.000 HD
BRANCH  12  20
ATOM     14  F   UNL     1       4.583   1.981  20.825  0.00  0.00    +0.000 F 
ATOM     15  C   UNL     1       3.419   2.562  20.494  0.00  0.00    +0.000 A 
ATOM     16  C   UNL     1       2.420   2.601  21.466  0.00  0.00    +0.000 A 
ATOM     17  C   UNL     1       1.225   3.264  21.202  0.00  0.00    +0.000 A 
ATOM     18  C   UNL     1       1.048   3.903  19.975  0.00  0.00    +0.000 A 
ATOM     19  C   UNL     1       2.052   3.853  19.001  0.00  0.00    +0.000 A 
ATOM     20  C   UNL     1       3.241   3.148  19.230  0.00  0.00    +0.000 A 
ENDBRANCH  12  20
ENDBRANCH   1  12
TORSDOF 2
ENDMDL
MODEL 2
REMARK VINA RESULT:      -8.1      1.215      1.634
REMARK  Name = 
REMARK  2 active torsions:
REMARK  status: ('A' for Active; 'I' for Inactive)
REMARK    1  A    between atoms: C_7  and  N_8
REMARK    2  A    between atoms: N_8  and  C_9
REMARK                            x       y       z     vdW  Elec       q    Type
REMARK                         _______ _______ _______ _____ _____    ______ ____
ROOT
ATOM      1  C   UNL     1       5.248   3.961  17.834  0.00  0.00    +0.000 A 
ATOM      2  N   UNL     1       5.920   4.282  18.961  0.00  0.00    +0.000 NA
ATOM      3  N   UNL     1       7.069   4.897  18.888  0.00  0.00    +0.000 NA
ATOM      4  N   UNL     1       7.614   5.210  17.747  0.00  0.00    +0.000 NA
ATOM      5  C   UNL     1       6.996   4.870  16.609  0.00  0.00    +0.000 A 
ATOM      6  C   UNL     1       7.573   5.190  15.386  0.00  0.00    +0.000 A 
ATOM      7  C   UNL     1       6.959   4.834  14.187  0.00  0.00    +0.000 A 
ATOM      8  C   UNL     1       5.759   4.160  14.263  0.00  0.00    +0.000 A 
ATOM      9 CL   UNL     1       4.938   3.655  12.848  0.00  0.00    +0.000 Cl
ATOM     10  N   UNL     1       5.144   3.843  15.419  0.00  0.00    +0.000 NA
ATOM     11  C   UNL     1       5.777   4.202  16.576  0.00  0.00    +0.000 A 
ENDROOT
BRANCH   1  12
ATOM     12  N   UNL     1       3.990   3.293  17.925  0.00  0.00    +0.000 N 
ATOM     13  H   UNL     1       3.488   3.394  17.042  0.00  0.00    +0.000 HD
BRANCH  12  20
ATOM     14  F   UNL     1       1.540   4.811  17.959  0.00  0.00    +0.000 F 
ATOM     15  C   UNL     1       1.936   4.138  19.050  0.00  0.00    +0.000 A 
ATOM     16  C   UNL     1       1.114   4.195  20.175  0.00  0.00    +0.000 A 
ATOM     17  C   UNL     1       1.437   3.448  21.305  0.00  0.00    +0.000 A 
ATOM     18  C   UNL     1       2.568   2.633  21.292  0.00  0.00    +0.000 A 
ATOM     19  C   UNL     1       3.393   2.586  20.162  0.00  0.00    +0.000 A 
ATOM     20  C   UNL     1       3.111   3.369  19.034  0.00  0.00    +0.000 A 
ENDBRANCH  12  20
ENDBRANCH   1  12
TORSDOF 2
ENDMDL
MODEL 3
REMARK VINA RESULT:      -8.0      1.664      1.845
REMARK  Name = 
REMARK  2 active torsions:
REMARK  status: ('A' for Active; 'I' for Inactive)
REMARK    1  A    between atoms: C_7  and  N_8
REMARK    2  A    between atoms: N_8  and  C_9
REMARK                            x       y       z     vdW  Elec       q    Type
REMARK                         _______ _______ _______ _____ _____    ______ ____
ROOT
ATOM      1  C   UNL     1       4.825   5.325  18.412  0.00  0.00    +0.000 A 
ATOM      2  N   UNL     1       5.428   5.469  19.613  0.00  0.00    +0.000 NA
ATOM      3  N   UNL     1       6.724   5.347  19.716  0.00  0.00    +0.000 NA
ATOM      4  N   UNL     1       7.476   5.073  18.688  0.00  0.00    +0.000 NA
ATOM      5  C   UNL     1       6.908   4.883  17.491  0.00  0.00    +0.000 A 
ATOM      6  C   UNL     1       7.700   4.580  16.390  0.00  0.00    +0.000 A 
ATOM      7  C   UNL     1       7.133   4.362  15.136  0.00  0.00    +0.000 A 
ATOM      8  C   UNL     1       5.762   4.463  15.032  0.00  0.00    +0.000 A 
ATOM      9 CL   UNL     1       4.967   4.186  13.541  0.00  0.00    +0.000 Cl
ATOM     10  N   UNL     1       4.949   4.774  16.059  0.00  0.00    +0.000 NA
ATOM     11  C   UNL     1       5.538   4.977  17.276  0.00  0.00    +0.000 A 
ENDROOT
BRANCH   1  12
ATOM     12  N   UNL     1       3.408   5.466  18.310  0.00  0.00    +0.000 N 
ATOM     13  H   UNL     1       3.148   6.429  18.527  0.00  0.00    +0.000 HD
BRANCH  12  20
ATOM     14  F   UNL     1       2.399   3.196  16.850  0.00  0.00    +0.000 F 
ATOM     15  C   UNL     1       1.954   3.458  18.089  0.00  0.00    +0.000 A 
ATOM     16  C   UNL     1       1.009   2.588  18.632  0.00  0.00    +0.000 A 
ATOM     17  C   UNL     1       0.578   2.768  19.943  0.00  0.00    +0.000 A 
ATOM     18  C   UNL     1       1.112   3.804  20.708  0.00  0.00    +0.000 A 
ATOM     19  C   UNL     1       2.055   4.678  20.155  0.00  0.00    +0.000 A 
ATOM     20  C   UNL     1       2.464   4.543  18.821  0.00  0.00    +0.000 A 
ENDBRANCH  12  20
ENDBRANCH   1  12
TORSDOF 2
ENDMDL
MODEL 4
REMARK VINA RESULT:      -7.9      1.680      1.781
REMARK  Name = 
REMARK  2 active torsions:
REMARK  status: ('A' for Active; 'I' for Inactive)
REMARK    1  A    between atoms: C_7  and  N_8
REMARK    2  A    between atoms: N_8  and  C_9
REMARK                            x       y       z     vdW  Elec       q    Type
REMARK                         _______ _______ _______ _____ _____    ______ ____
ROOT
ATOM      1  C   UNL     1       4.829   5.341  18.404  0.00  0.00    +0.000 A 
ATOM      2  N   UNL     1       5.434   5.486  19.604  0.00  0.00    +0.000 NA
ATOM      3  N   UNL     1       6.729   5.361  19.706  0.00  0.00    +0.000 NA
ATOM      4  N   UNL     1       7.480   5.084  18.678  0.00  0.00    +0.000 NA
ATOM      5  C   UNL     1       6.910   4.893  17.481  0.00  0.00    +0.000 A 
ATOM      6  C   UNL     1       7.700   4.587  16.380  0.00  0.00    +0.000 A 
ATOM      7  C   UNL     1       7.131   4.367  15.127  0.00  0.00    +0.000 A 
ATOM      8  C   UNL     1       5.761   4.471  15.024  0.00  0.00    +0.000 A 
ATOM      9 CL   UNL     1       4.963   4.194  13.535  0.00  0.00    +0.000 Cl
ATOM     10  N   UNL     1       4.949   4.786  16.052  0.00  0.00    +0.000 NA
ATOM     11  C   UNL     1       5.540   4.989  17.268  0.00  0.00    +0.000 A 
ENDROOT
BRANCH   1  12
ATOM     12  N   UNL     1       3.413   5.485  18.304  0.00  0.00    +0.000 N 
ATOM     13  H   UNL     1       3.154   6.449  18.519  0.00  0.00    +0.000 HD
BRANCH  12  20
ATOM     14  F   UNL     1       2.034   5.804  20.814  0.00  0.00    +0.000 F 
ATOM     15  C   UNL     1       1.824   4.714  20.059  0.00  0.00    +0.000 A 
ATOM     16  C   UNL     1       0.914   3.770  20.530  0.00  0.00    +0.000 A 
ATOM     17  C   UNL     1       0.599   2.663  19.747  0.00  0.00    +0.000 A 
ATOM     18  C   UNL     1       1.181   2.522  18.487  0.00  0.00    +0.000 A 
ATOM     19  C   UNL     1       2.099   3.471  18.023  0.00  0.00    +0.000 A 
ATOM     20  C   UNL     1       2.467   4.565  18.818  0.00  0.00    +0.000 A 
ENDBRANCH  12  20
ENDBRANCH   1  12
TORSDOF 2
ENDMDL
MODEL 5
REMARK VINA RESULT:      -7.8      1.266      1.531
REMARK  Name = 
REMARK  2 active torsions:
REMARK  status: ('A' for Active; 'I' for Inactive)
REMARK    1  A    between atoms: C_7  and  N_8
REMARK    2  A    between atoms: N_8  and  C_9
REMARK                            x       y       z     vdW  Elec       q    Type
REMARK                         _______ _______ _______ _____ _____    ______ ____
ROOT
ATOM      1  C   UNL     1       5.523   3.962  18.648  0.00  0.00    +0.000 A 
ATOM      2  N   UNL     1       6.024   4.482  19.790  0.00  0.00    +0.000 NA
ATOM      3  N   UNL     1       6.855   5.488  19.744  0.00  0.00    +0.000 NA
ATOM      4  N   UNL     1       7.240   6.016  18.617  0.00  0.00    +0.000 NA
ATOM      5  C   UNL     1       6.795   5.499  17.465  0.00  0.00    +0.000 A 
ATOM      6  C   UNL     1       7.208   6.047  16.257  0.00  0.00    +0.000 A 
ATOM      7  C   UNL     1       6.774   5.519  15.043  0.00  0.00    +0.000 A 
ATOM      8  C   UNL     1       5.919   4.439  15.089  0.00  0.00    +0.000 A 
ATOM      9 CL   UNL     1       5.350   3.700  13.653  0.00  0.00    +0.000 Cl
ATOM     10  N   UNL     1       5.470   3.881  16.230  0.00  0.00    +0.000 NA
ATOM     11  C   UNL     1       5.920   4.421  17.402  0.00  0.00    +0.000 A 
ENDROOT
BRANCH   1  12
ATOM     12  N   UNL     1       4.611   2.865  18.709  0.00  0.00    +0.000 N 
ATOM     13  H   UNL     1       4.714   2.293  17.870  0.00  0.00    +0.000 HD
BRANCH  12  20
ATOM     14  F   UNL     1       2.385   1.851  17.186  0.00  0.00    +0.000 F 
ATOM     15  C   UNL     1       2.177   2.490  18.347  0.00  0.00    +0.000 A 
ATOM     16  C   UNL     1       0.859   2.624  18.781  0.00  0.00    +0.000 A 
ATOM     17  C   UNL     1       0.595   3.204  20.018  0.00  0.00    +0.000 A 
ATOM     18  C   UNL     1       1.653   3.626  20.822  0.00  0.00    +0.000 A 
ATOM     19  C   UNL     1       2.975   3.495  20.378  0.00  0.00    +0.000 A 
ATOM     20  C   UNL     1       3.257   2.959  19.114  0.00  0.00    +0.000 A 
ENDBRANCH  12  20
ENDBRANCH   1  12
TORSDOF 2
ENDMDL
MODEL 6
REMARK VINA RESULT:      -7.7      1.736      2.134
REMARK  Name = 
REMARK  2 active torsions:
REMARK  status: ('A' for Active; 'I' for Inactive)
REMARK    1  A    between atoms: C_7  and  N_8
REMARK    2  A    between atoms: N_8  and  C_9
REMARK                            x       y       z     vdW  Elec       q    Type
REMARK                         _______ _______ _______ _____ _____    ______ ____
ROOT
ATOM      1  C   UNL     1       5.907   3.918  16.469  0.00  0.00    +0.000 A 
ATOM      2  N   UNL     1       6.483   4.676  17.428  0.00  0.00    +0.000 NA
ATOM      3  N   UNL     1       7.341   5.605  17.104  0.00  0.00    +0.000 NA
ATOM      4  N   UNL     1       7.682   5.829  15.866  0.00  0.00    +0.000 NA
ATOM      5  C   UNL     1       7.161   5.070  14.894  0.00  0.00    +0.000 A 
ATOM      6  C   UNL     1       7.526   5.294  13.573  0.00  0.00    +0.000 A 
ATOM      7  C   UNL     1       7.011   4.509  12.543  0.00  0.00    +0.000 A 
ATOM      8  C   UNL     1       6.127   3.509  12.887  0.00  0.00    +0.000 A 
ATOM      9 CL   UNL     1       5.460   2.472  11.699  0.00  0.00    +0.000 Cl
ATOM     10  N   UNL     1       5.723   3.261  14.147  0.00  0.00    +0.000 NA
ATOM     11  C   UNL     1       6.251   4.047  15.133  0.00  0.00    +0.000 A 
ENDROOT
BRANCH   1  12
ATOM     12  N   UNL     1       4.966   2.909  16.835  0.00  0.00    +0.000 N 
ATOM     13  H   UNL     1       4.888   2.229  16.077  0.00  0.00    +0.000 HD
BRANCH  12  20
ATOM     14  F   UNL     1       3.527   0.980  18.420  0.00  0.00    +0.000 F 
ATOM     15  C   UNL     1       3.005   2.194  18.190  0.00  0.00    +0.000 A 
ATOM     16  C   UNL     1       1.763   2.478  18.756  0.00  0.00    +0.000 A 
ATOM     17  C   UNL     1       1.215   3.750  18.617  0.00  0.00    +0.000 A 
ATOM     18  C   UNL     1       1.925   4.735  17.932  0.00  0.00    +0.000 A 
ATOM     19  C   UNL     1       3.168   4.442  17.360  0.00  0.00    +0.000 A 
ATOM     20  C   UNL     1       3.712   3.153  17.446  0.00  0.00    +0.000 A 
ENDBRANCH  12  20
ENDBRANCH   1  12
TORSDOF 2
ENDMDL
MODEL 7
REMARK VINA RESULT:      -7.6      2.607      3.430
REMARK  Name = 
REMARK  2 active torsions:
REMARK  status: ('A' for Active; 'I' for Inactive)
REMARK    1  A    between atoms: C_7  and  N_8
REMARK    2  A    between atoms: N_8  and  C_9
REMARK                            x       y       z     vdW  Elec       q    Type
REMARK                         _______ _______ _______ _____ _____    ______ ____
ROOT
ATOM      1  C   UNL     1       5.176   4.073  17.272  0.00  0.00    +0.000 A 
ATOM      2  N   UNL     1       4.580   4.279  16.076  0.00  0.00    +0.000 NA
ATOM      3  N   UNL     1       4.949   5.279  15.323  0.00  0.00    +0.000 NA
ATOM      4  N   UNL     1       5.881   6.113  15.688  0.00  0.00    +0.000 NA
ATOM      5  C   UNL     1       6.464   5.963  16.884  0.00  0.00    +0.000 A 
ATOM      6  C   UNL     1       7.451   6.853  17.287  0.00  0.00    +0.000 A 
ATOM      7  C   UNL     1       8.063   6.729  18.533  0.00  0.00    +0.000 A 
ATOM      8  C   UNL     1       7.655   5.691  19.342  0.00  0.00    +0.000 A 
ATOM      9 CL   UNL     1       8.325   5.469  20.902  0.00  0.00    +0.000 Cl
ATOM     10  N   UNL     1       6.719   4.787  18.994  0.00  0.00    +0.000 NA
ATOM     11  C   UNL     1       6.135   4.941  17.767  0.00  0.00    +0.000 A 
ENDROOT
BRANCH   1  12
ATOM     12  N   UNL     1       4.768   2.974  18.086  0.00  0.00    +0.000 N 
ATOM     13  H   UNL     1       4.951   2.100  17.590  0.00  0.00    +0.000 HD
BRANCH  12  20
ATOM     14  F   UNL     1       2.291   1.928  17.050  0.00  0.00    +0.000 F 
ATOM     15  C   UNL     1       2.348   2.431  18.293  0.00  0.00    +0.000 A 
ATOM     16  C   UNL     1       1.177   2.411  19.050  0.00  0.00    +0.000 A 
ATOM     17  C   UNL     1       1.202   2.845  20.372  0.00  0.00    +0.000 A 
ATOM     18  C   UNL     1       2.404   3.275  20.934  0.00  0.00    +0.000 A 
ATOM     19  C   UNL     1       3.575   3.299  20.166  0.00  0.00    +0.000 A 
ATOM     20  C   UNL     1       3.558   2.914  18.819  0.00  0.00    +0.000 A 
ENDBRANCH  12  20
ENDBRANCH   1  12
TORSDOF 2
ENDMDL
MODEL 8
REMARK VINA RESULT:      -7.6      1.028      1.042
REMARK  Name = 
REMARK  2 active torsions:
REMARK  status: ('A' for Active; 'I' for Inactive)
REMARK    1  A    between atoms: C_7  and  N_8
REMARK    2  A    between atoms: N_8  and  C_9
REMARK                            x       y       z     vdW  Elec       q    Type
REMARK                         _______ _______ _______ _____ _____    ______ ____
ROOT
ATOM      1  C   UNL     1       4.794   4.468  17.643  0.00  0.00    +0.000 A 
ATOM      2  N   UNL     1       5.393   4.708  18.830  0.00  0.00    +0.000 NA
ATOM      3  N   UNL     1       6.662   5.011  18.875  0.00  0.00    +0.000 NA
ATOM      4  N   UNL     1       7.394   5.083  17.800  0.00  0.00    +0.000 NA
ATOM      5  C   UNL     1       6.842   4.813  16.611  0.00  0.00    +0.000 A 
ATOM      6  C   UNL     1       7.616   4.876  15.459  0.00  0.00    +0.000 A 
ATOM      7  C   UNL     1       7.072   4.584  14.210  0.00  0.00    +0.000 A 
ATOM      8  C   UNL     1       5.739   4.235  14.164  0.00  0.00    +0.000 A 
ATOM      9 CL   UNL     1       4.982   3.831  12.683  0.00  0.00    +0.000 Cl
ATOM     10  N   UNL     1       4.937   4.178  15.245  0.00  0.00    +0.000 NA
ATOM     11  C   UNL     1       5.505   4.466  16.454  0.00  0.00    +0.000 A 
ENDROOT
BRANCH   1  12
ATOM     12  N   UNL     1       3.404   4.142  17.605  0.00  0.00    +0.000 N 
ATOM     13  H   UNL     1       2.911   4.830  17.034  0.00  0.00    +0.000 HD
BRANCH  12  20
ATOM     14  F   UNL     1       3.272   1.447  18.616  0.00  0.00    +0.000 F 
ATOM     15  C   UNL     1       2.552   2.423  19.190  0.00  0.00    +0.000 A 
ATOM     16  C   UNL     1       1.763   2.081  20.288  0.00  0.00    +0.000 A 
ATOM     17  C   UNL     1       1.062   3.071  20.970  0.00  0.00    +0.000 A 
ATOM     18  C   UNL     1       1.174   4.400  20.563  0.00  0.00    +0.000 A 
ATOM     19  C   UNL     1       1.962   4.736  19.455  0.00  0.00    +0.000 A 
ATOM     20  C   UNL     1       2.634   3.746  18.726  0.00  0.00    +0.000 A 
ENDBRANCH  12  20
ENDBRANCH   1  12
TORSDOF 2
ENDMDL
MODEL 9
REMARK VINA RESULT:      -7.6      3.922      4.907
REMARK  Name = 
REMARK  2 active torsions:
REMARK  status: ('A' for Active; 'I' for Inactive)
REMARK    1  A    between atoms: C_7  and  N_8
REMARK    2  A    between atoms: N_8  and  C_9
REMARK                            x       y       z     vdW  Elec       q    Type
REMARK                         _______ _______ _______ _____ _____    ______ ____
ROOT
ATOM      1  C   UNL     1       2.820   5.367  18.739  0.00  0.00    +0.000 A 
ATOM      2  N   UNL     1       1.727   4.602  18.528  0.00  0.00    +0.000 NA
ATOM      3  N   UNL     1       1.771   3.614  17.676  0.00  0.00    +0.000 NA
ATOM      4  N   UNL     1       2.846   3.337  16.994  0.00  0.00    +0.000 NA
ATOM      5  C   UNL     1       3.936   4.100  17.148  0.00  0.00    +0.000 A 
ATOM      6  C   UNL     1       5.084   3.820  16.418  0.00  0.00    +0.000 A 
ATOM      7  C   UNL     1       6.226   4.607  16.546  0.00  0.00    +0.000 A 
ATOM      8  C   UNL     1       6.172   5.668  17.425  0.00  0.00    +0.000 A 
ATOM      9 CL   UNL     1       7.513   6.712  17.635  0.00  0.00    +0.000 Cl
ATOM     10  N   UNL     1       5.094   5.973  18.173  0.00  0.00    +0.000 NA
ATOM     11  C   UNL     1       3.989   5.183  18.018  0.00  0.00    +0.000 A 
ENDROOT
BRANCH   1  12
ATOM     12  N   UNL     1       2.762   6.441  19.677  0.00  0.00    +0.000 N 
ATOM     13  H   UNL     1       2.546   6.070  20.603  0.00  0.00    +0.000 HD
BRANCH  12  20
ATOM     14  F   UNL     1       1.371   7.946  21.703  0.00  0.00    +0.000 F 
ATOM     15  C   UNL     1       1.414   8.391  20.437  0.00  0.00    +0.000 A 
ATOM     16  C   UNL     1       0.779   9.600  20.157  0.00  0.00    +0.000 A 
ATOM     17  C   UNL     1       0.866  10.146  18.880  0.00  0.00    +0.000 A 
ATOM     18  C   UNL     1       1.606   9.489  17.898  0.00  0.00    +0.000 A 
ATOM     19  C   UNL     1       2.236   8.272  18.184  0.00  0.00    +0.000 A 
ATOM     20  C   UNL     1       2.118   7.682  19.449  0.00  0.00    +0.000 A 
ENDBRANCH  12  20
ENDBRANCH   1  12
TORSDOF 2
ENDMDL
