MODEL 1
REMARK VINA RESULT:      -9.2      0.000      0.000
REMARK  Name = 
REMARK  3 active torsions:
REMARK  status: ('A' for Active; 'I' for Inactive)
REMARK    1  A    between atoms: C_4  and  O_5
REMARK    2  A    between atoms: O_5  and  C_6
REMARK    3  A    between atoms: C_22  and  C_23
REMARK                            x       y       z     vdW  Elec       q    Type
REMARK                         _______ _______ _______ _____ _____    ______ ____
ROOT
ATOM      1  C   UNL     1       3.278   6.633  18.245  0.00  0.00    +0.000 C 
ATOM      2  C   UNL     1       3.258   6.555  19.773  0.00  0.00    +0.000 C 
ATOM      3  C   UNL     1       1.995   7.146  20.400  0.00  0.00    +0.000 C 
ATOM      4  N   UNL     1       1.702   8.491  19.884  0.00  0.00    +0.000 N 
ATOM      5  C   UNL     1       0.673   9.150  20.589  0.00  0.00    +0.000 A 
ATOM      6  C   UNL     1       0.052  10.287  20.070  0.00  0.00    +0.000 A 
ATOM      7  C   UNL     1      -0.787  11.078  20.853  0.00  0.00    +0.000 A 
ATOM      8  C   UNL     1      -1.403  12.212  20.331  0.00  0.00    +0.000 A 
ATOM      9  C   UNL     1      -1.836  13.230  21.192  0.00  0.00    +0.000 A 
ATOM     10  C   UNL     1      -1.866  12.996  22.564  0.00  0.00    +0.000 A 
ATOM     11  C   UNL     1      -1.542  11.738  23.073  0.00  0.00    +0.000 A 
ATOM     12  C   UNL     1      -0.934  10.774  22.216  0.00  0.00    +0.000 A 
ATOM     13  C   UNL     1      -0.425   9.550  22.616  0.00  0.00    +0.000 A 
ATOM     14  N   UNL     1       0.350   8.746  21.845  0.00  0.00    +0.000 NA
ATOM     15  C   UNL     1       1.722   8.621  18.419  0.00  0.00    +0.000 C 
ATOM     16  C   UNL     1       3.015   8.077  17.822  0.00  0.00    +0.000 C 
ENDROOT
BRANCH   1  17
ATOM     17  O   UNL     1       2.276   5.805  17.627  0.00  0.00    +0.000 OA
BRANCH  17  21
ATOM     18  C   UNL     1       2.562   1.744  18.235  0.00  0.00    +0.000 A 
ATOM     19  C   UNL     1       1.415   2.465  18.511  0.00  0.00    +0.000 A 
ATOM     20  N   UNL     1       1.312   3.802  18.366  0.00  0.00    +0.000 NA
ATOM     21  C   UNL     1       2.401   4.455  17.902  0.00  0.00    +0.000 A 
ATOM     22  C   UNL     1       3.611   3.823  17.580  0.00  0.00    +0.000 A 
ATOM     23  C   UNL     1       3.673   2.434  17.765  0.00  0.00    +0.000 A 
BRANCH  22  24
ATOM     24  C   UNL     1       4.768   4.586  16.970  0.00  0.00    +0.000 C 
ATOM     25  C   UNL     1       5.089   4.028  15.578  0.00  0.00    +0.000 C 
ATOM     26  C   UNL     1       6.211   4.840  14.949  0.00  0.00    +0.000 C 
ATOM     27  O   UNL     1       7.373   4.819  15.777  0.00  0.00    +0.000 OA
ATOM     28  C   UNL     1       7.140   5.383  17.069  0.00  0.00    +0.000 C 
ATOM     29  C   UNL     1       6.058   4.606  17.812  0.00  0.00    +0.000 C 
ENDBRANCH  22  24
ENDBRANCH  17  21
ENDBRANCH   1  17
TORSDOF 3
ENDMDL
MODEL 2
REMARK VINA RESULT:      -8.9      4.402      7.270
REMARK  Name = 
REMARK  3 active torsions:
REMARK  status: ('A' for Active; 'I' for Inactive)
REMARK    1  A    between atoms: C_4  and  O_5
REMARK    2  A    between atoms: O_5  and  C_6
REMARK    3  A    between atoms: C_22  and  C_23
REMARK                            x       y       z     vdW  Elec       q    Type
REMARK                         _______ _______ _______ _____ _____    ______ ____
ROOT
ATOM      1  C   UNL     1       6.327   5.135  17.614  0.00  0.00    +0.000 C 
ATOM      2  C   UNL     1       7.710   5.241  18.261  0.00  0.00    +0.000 C 
ATOM      3  C   UNL     1       8.012   6.623  18.838  0.00  0.00    +0.000 C 
ATOM      4  N   UNL     1       7.741   7.696  17.868  0.00  0.00    +0.000 N 
ATOM      5  C   UNL     1       8.205   8.960  18.288  0.00  0.00    +0.000 A 
ATOM      6  C   UNL     1       7.780  10.132  17.660  0.00  0.00    +0.000 A 
ATOM      7  C   UNL     1       8.406  11.354  17.902  0.00  0.00    +0.000 A 
ATOM      8  C   UNL     1       7.979  12.520  17.273  0.00  0.00    +0.000 A 
ATOM      9  C   UNL     1       8.859  13.603  17.140  0.00  0.00    +0.000 A 
ATOM     10  C   UNL     1      10.060  13.597  17.844  0.00  0.00    +0.000 A 
ATOM     11  C   UNL     1      10.354  12.561  18.730  0.00  0.00    +0.000 A 
ATOM     12  C   UNL     1       9.546  11.385  18.721  0.00  0.00    +0.000 A 
ATOM     13  C   UNL     1       9.806  10.225  19.431  0.00  0.00    +0.000 A 
ATOM     14  N   UNL     1       9.168   9.043  19.243  0.00  0.00    +0.000 NA
ATOM     15  C   UNL     1       6.428   7.631  17.210  0.00  0.00    +0.000 C 
ATOM     16  C   UNL     1       6.174   6.260  16.592  0.00  0.00    +0.000 C 
ENDROOT
BRANCH   1  17
ATOM     17  O   UNL     1       5.252   5.254  18.564  0.00  0.00    +0.000 OA
BRANCH  17  21
ATOM     18  C   UNL     1       1.892   2.988  17.846  0.00  0.00    +0.000 A 
ATOM     19  C   UNL     1       3.173   2.474  17.772  0.00  0.00    +0.000 A 
ATOM     20  N   UNL     1       4.291   3.207  17.956  0.00  0.00    +0.000 NA
ATOM     21  C   UNL     1       4.125   4.516  18.248  0.00  0.00    +0.000 A 
ATOM     22  C   UNL     1       2.874   5.139  18.358  0.00  0.00    +0.000 A 
ATOM     23  C   UNL     1       1.743   4.338  18.140  0.00  0.00    +0.000 A 
BRANCH  22  24
ATOM     24  C   UNL     1       2.740   6.585  18.784  0.00  0.00    +0.000 C 
ATOM     25  C   UNL     1       1.853   6.685  20.032  0.00  0.00    +0.000 C 
ATOM     26  C   UNL     1       1.776   8.134  20.489  0.00  0.00    +0.000 C 
ATOM     27  O   UNL     1       1.267   8.964  19.446  0.00  0.00    +0.000 OA
ATOM     28  C   UNL     1       2.092   8.951  18.280  0.00  0.00    +0.000 C 
ATOM     29  C   UNL     1       2.197   7.541  17.706  0.00  0.00    +0.000 C 
ENDBRANCH  22  24
ENDBRANCH  17  21
ENDBRANCH   1  17
TORSDOF 3
ENDMDL
MODEL 3
REMARK VINA RESULT:      -8.7      3.167      8.993
REMARK  Name = 
REMARK  3 active torsions:
REMARK  status: ('A' for Active; 'I' for Inactive)
REMARK    1  A    between atoms: C_4  and  O_5
REMARK    2  A    between atoms: O_5  and  C_6
REMARK    3  A    between atoms: C_22  and  C_23
REMARK                            x       y       z     vdW  Elec       q    Type
REMARK                         _______ _______ _______ _____ _____    ______ ____
ROOT
ATOM      1  C   UNL     1      -0.210  10.062  20.715  0.00  0.00    +0.000 C 
ATOM      2  C   UNL     1      -0.090   8.637  21.259  0.00  0.00    +0.000 C 
ATOM      3  C   UNL     1       1.238   7.962  20.919  0.00  0.00    +0.000 C 
ATOM      4  N   UNL     1       1.557   8.064  19.486  0.00  0.00    +0.000 N 
ATOM      5  C   UNL     1       2.661   7.276  19.100  0.00  0.00    +0.000 A 
ATOM      6  C   UNL     1       3.295   7.471  17.872  0.00  0.00    +0.000 A 
ATOM      7  C   UNL     1       4.221   6.553  17.380  0.00  0.00    +0.000 A 
ATOM      8  C   UNL     1       4.851   6.751  16.154  0.00  0.00    +0.000 A 
ATOM      9  C   UNL     1       5.387   5.657  15.460  0.00  0.00    +0.000 A 
ATOM     10  C   UNL     1       5.500   4.429  16.105  0.00  0.00    +0.000 A 
ATOM     11  C   UNL     1       5.155   4.304  17.451  0.00  0.00    +0.000 A 
ATOM     12  C   UNL     1       4.447   5.363  18.091  0.00  0.00    +0.000 A 
ATOM     13  C   UNL     1       3.911   5.317  19.367  0.00  0.00    +0.000 A 
ATOM     14  N   UNL     1       3.050   6.232  19.878  0.00  0.00    +0.000 NA
ATOM     15  C   UNL     1       1.443   9.414  18.912  0.00  0.00    +0.000 C 
ATOM     16  C   UNL     1       0.088  10.044  19.217  0.00  0.00    +0.000 C 
ENDROOT
BRANCH   1  17
ATOM     17  O   UNL     1       0.708  10.980  21.335  0.00  0.00    +0.000 OA
BRANCH  17  21
ATOM     18  C   UNL     1      -0.883  14.449  22.877  0.00  0.00    +0.000 A 
ATOM     19  C   UNL     1      -1.365  13.194  23.200  0.00  0.00    +0.000 A 
ATOM     20  N   UNL     1      -0.891  12.047  22.672  0.00  0.00    +0.000 NA
ATOM     21  C   UNL     1       0.127  12.151  21.791  0.00  0.00    +0.000 A 
ATOM     22  C   UNL     1       0.699  13.369  21.399  0.00  0.00    +0.000 A 
ATOM     23  C   UNL     1       0.160  14.536  21.963  0.00  0.00    +0.000 A 
BRANCH  22  24
ATOM     24  C   UNL     1       1.904  13.425  20.484  0.00  0.00    +0.000 C 
ATOM     25  C   UNL     1       2.800  14.610  20.867  0.00  0.00    +0.000 C 
ATOM     26  C   UNL     1       4.038  14.620  19.983  0.00  0.00    +0.000 C 
ATOM     27  O   UNL     1       3.673  14.694  18.606  0.00  0.00    +0.000 OA
ATOM     28  C   UNL     1       2.883  13.580  18.185  0.00  0.00    +0.000 C 
ATOM     29  C   UNL     1       1.584  13.505  18.980  0.00  0.00    +0.000 C 
ENDBRANCH  22  24
ENDBRANCH  17  21
ENDBRANCH   1  17
TORSDOF 3
ENDMDL
MODEL 4
REMARK VINA RESULT:      -8.3      2.943      9.679
REMARK  Name = 
REMARK  3 active torsions:
REMARK  status: ('A' for Active; 'I' for Inactive)
REMARK    1  A    between atoms: C_4  and  O_5
REMARK    2  A    between atoms: O_5  and  C_6
REMARK    3  A    between atoms: C_22  and  C_23
REMARK                            x       y       z     vdW  Elec       q    Type
REMARK                         _______ _______ _______ _____ _____    ______ ____
ROOT
ATOM      1  C   UNL     1       0.138  10.342  19.986  0.00  0.00    +0.000 C 
ATOM      2  C   UNL     1       0.166   8.964  20.651  0.00  0.00    +0.000 C 
ATOM      3  C   UNL     1       1.462   8.192  20.406  0.00  0.00    +0.000 C 
ATOM      4  N   UNL     1       1.819   8.155  18.979  0.00  0.00    +0.000 N 
ATOM      5  C   UNL     1       2.886   7.278  18.691  0.00  0.00    +0.000 A 
ATOM      6  C   UNL     1       3.560   7.333  17.470  0.00  0.00    +0.000 A 
ATOM      7  C   UNL     1       4.444   6.328  17.083  0.00  0.00    +0.000 A 
ATOM      8  C   UNL     1       5.112   6.387  15.863  0.00  0.00    +0.000 A 
ATOM      9  C   UNL     1       5.603   5.210  15.278  0.00  0.00    +0.000 A 
ATOM     10  C   UNL     1       5.632   4.037  16.027  0.00  0.00    +0.000 A 
ATOM     11  C   UNL     1       5.249   4.046  17.368  0.00  0.00    +0.000 A 
ATOM     12  C   UNL     1       4.586   5.193  17.898  0.00  0.00    +0.000 A 
ATOM     13  C   UNL     1       4.019   5.285  19.157  0.00  0.00    +0.000 A 
ATOM     14  N   UNL     1       3.198   6.285  19.565  0.00  0.00    +0.000 NA
ATOM     15  C   UNL     1       1.794   9.454  18.291  0.00  0.00    +0.000 C 
ATOM     16  C   UNL     1       0.470  10.180  18.503  0.00  0.00    +0.000 C 
ENDROOT
BRANCH   1  17
ATOM     17  O   UNL     1       1.092  11.259  20.552  0.00  0.00    +0.000 OA
BRANCH  17  21
ATOM     18  C   UNL     1       0.703  15.029  18.945  0.00  0.00    +0.000 A 
ATOM     19  C   UNL     1       1.832  14.250  18.766  0.00  0.00    +0.000 A 
ATOM     20  N   UNL     1       2.002  13.032  19.322  0.00  0.00    +0.000 NA
ATOM     21  C   UNL     1       0.989  12.555  20.079  0.00  0.00    +0.000 A 
ATOM     22  C   UNL     1      -0.203  13.254  20.318  0.00  0.00    +0.000 A 
ATOM     23  C   UNL     1      -0.324  14.524  19.733  0.00  0.00    +0.000 A 
BRANCH  22  24
ATOM     24  C   UNL     1      -1.347  12.634  21.092  0.00  0.00    +0.000 C 
ATOM     25  C   UNL     1      -2.658  13.355  20.757  0.00  0.00    +0.000 C 
ATOM     26  C   UNL     1      -3.811  12.686  21.491  0.00  0.00    +0.000 C 
ATOM     27  O   UNL     1      -3.582  12.692  22.899  0.00  0.00    +0.000 OA
ATOM     28  C   UNL     1      -2.399  11.981  23.268  0.00  0.00    +0.000 C 
ATOM     29  C   UNL     1      -1.167  12.606  22.621  0.00  0.00    +0.000 C 
ENDBRANCH  22  24
ENDBRANCH  17  21
ENDBRANCH   1  17
TORSDOF 3
ENDMDL
MODEL 5
REMARK VINA RESULT:      -8.2      3.954     10.413
REMARK  Name = 
REMARK  3 active torsions:
REMARK  status: ('A' for Active; 'I' for Inactive)
REMARK    1  A    between atoms: C_4  and  O_5
REMARK    2  A    between atoms: O_5  and  C_6
REMARK    3  A    between atoms: C_22  and  C_23
REMARK                            x       y       z     vdW  Elec       q    Type
REMARK                         _______ _______ _______ _____ _____    ______ ____
ROOT
ATOM      1  C   UNL     1      -1.488  12.769  21.803  0.00  0.00    +0.000 C 
ATOM      2  C   UNL     1      -0.649  13.158  20.585  0.00  0.00    +0.000 C 
ATOM      3  C   UNL     1      -0.268  11.972  19.700  0.00  0.00    +0.000 C 
ATOM      4  N   UNL     1       0.316  10.869  20.478  0.00  0.00    +0.000 N 
ATOM      5  C   UNL     1       0.871   9.849  19.676  0.00  0.00    +0.000 A 
ATOM      6  C   UNL     1       1.191   8.600  20.211  0.00  0.00    +0.000 A 
ATOM      7  C   UNL     1       1.952   7.678  19.496  0.00  0.00    +0.000 A 
ATOM      8  C   UNL     1       2.270   6.434  20.034  0.00  0.00    +0.000 A 
ATOM      9  C   UNL     1       3.381   5.728  19.552  0.00  0.00    +0.000 A 
ATOM     10  C   UNL     1       4.010   6.158  18.387  0.00  0.00    +0.000 A 
ATOM     11  C   UNL     1       3.497   7.235  17.665  0.00  0.00    +0.000 A 
ATOM     12  C   UNL     1       2.486   8.053  18.252  0.00  0.00    +0.000 A 
ATOM     13  C   UNL     1       1.995   9.232  17.719  0.00  0.00    +0.000 A 
ATOM     14  N   UNL     1       1.210  10.114  18.387  0.00  0.00    +0.000 NA
ATOM     15  C   UNL     1      -0.448  10.466  21.668  0.00  0.00    +0.000 C 
ATOM     16  C   UNL     1      -0.767  11.657  22.564  0.00  0.00    +0.000 C 
ENDROOT
BRANCH   1  17
ATOM     17  O   UNL     1      -2.797  12.283  21.452  0.00  0.00    +0.000 OA
BRANCH  17  21
ATOM     18  C   UNL     1      -5.832  14.145  23.517  0.00  0.00    +0.000 A 
ATOM     19  C   UNL     1      -4.513  14.177  23.931  0.00  0.00    +0.000 A 
ATOM     20  N   UNL     1      -3.509  13.536  23.298  0.00  0.00    +0.000 NA
ATOM     21  C   UNL     1      -3.830  12.842  22.184  0.00  0.00    +0.000 A 
ATOM     22  C   UNL     1      -5.131  12.750  21.669  0.00  0.00    +0.000 A 
ATOM     23  C   UNL     1      -6.143  13.419  22.373  0.00  0.00    +0.000 A 
BRANCH  22  24
ATOM     24  C   UNL     1      -5.421  12.041  20.363  0.00  0.00    +0.000 C 
ATOM     25  C   UNL     1      -5.429  13.051  19.209  0.00  0.00    +0.000 C 
ATOM     26  C   UNL     1      -5.659  12.322  17.893  0.00  0.00    +0.000 C 
ATOM     27  O   UNL     1      -6.885  11.594  17.929  0.00  0.00    +0.000 OA
ATOM     28  C   UNL     1      -6.905  10.598  18.954  0.00  0.00    +0.000 C 
ATOM     29  C   UNL     1      -6.731  11.233  20.330  0.00  0.00    +0.000 C 
ENDBRANCH  22  24
ENDBRANCH  17  21
ENDBRANCH   1  17
TORSDOF 3
ENDMDL
MODEL 6
REMARK VINA RESULT:      -8.2      3.412      9.450
REMARK  Name = 
REMARK  3 active torsions:
REMARK  status: ('A' for Active; 'I' for Inactive)
REMARK    1  A    between atoms: C_4  and  O_5
REMARK    2  A    between atoms: O_5  and  C_6
REMARK    3  A    between atoms: C_22  and  C_23
REMARK                            x       y       z     vdW  Elec       q    Type
REMARK                         _______ _______ _______ _____ _____    ______ ____
ROOT
ATOM      1  C   UNL     1      -0.198  11.315  21.849  0.00  0.00    +0.000 C 
ATOM      2  C   UNL     1       0.963  11.346  20.852  0.00  0.00    +0.000 C 
ATOM      3  C   UNL     1       1.143  10.039  20.081  0.00  0.00    +0.000 C 
ATOM      4  N   UNL     1       1.179   8.872  20.976  0.00  0.00    +0.000 N 
ATOM      5  C   UNL     1       1.554   7.678  20.325  0.00  0.00    +0.000 A 
ATOM      6  C   UNL     1       1.352   6.433  20.923  0.00  0.00    +0.000 A 
ATOM      7  C   UNL     1       1.930   5.276  20.404  0.00  0.00    +0.000 A 
ATOM      8  C   UNL     1       1.727   4.037  21.005  0.00  0.00    +0.000 A 
ATOM      9  C   UNL     1       2.644   2.999  20.791  0.00  0.00    +0.000 A 
ATOM     10  C   UNL     1       3.611   3.136  19.799  0.00  0.00    +0.000 A 
ATOM     11  C   UNL     1       3.621   4.261  18.974  0.00  0.00    +0.000 A 
ATOM     12  C   UNL     1       2.808   5.383  19.313  0.00  0.00    +0.000 A 
ATOM     13  C   UNL     1       2.829   6.613  18.678  0.00  0.00    +0.000 A 
ATOM     14  N   UNL     1       2.227   7.735  19.146  0.00  0.00    +0.000 NA
ATOM     15  C   UNL     1       0.090   8.803  21.962  0.00  0.00    +0.000 C 
ATOM     16  C   UNL     1      -0.034  10.098  22.758  0.00  0.00    +0.000 C 
ENDROOT
BRANCH   1  17
ATOM     17  O   UNL     1      -1.484  11.216  21.210  0.00  0.00    +0.000 OA
BRANCH  17  21
ATOM     18  C   UNL     1      -3.756  14.617  21.673  0.00  0.00    +0.000 A 
ATOM     19  C   UNL     1      -2.804  14.220  22.594  0.00  0.00    +0.000 A 
ATOM     20  N   UNL     1      -2.081  13.086  22.488  0.00  0.00    +0.000 NA
ATOM     21  C   UNL     1      -2.302  12.316  21.400  0.00  0.00    +0.000 A 
ATOM     22  C   UNL     1      -3.234  12.627  20.400  0.00  0.00    +0.000 A 
ATOM     23  C   UNL     1      -3.974  13.808  20.564  0.00  0.00    +0.000 A 
BRANCH  22  24
ATOM     24  C   UNL     1      -3.374  11.782  19.151  0.00  0.00    +0.000 C 
ATOM     25  C   UNL     1      -2.201  12.052  18.201  0.00  0.00    +0.000 C 
ATOM     26  C   UNL     1      -2.316  11.153  16.979  0.00  0.00    +0.000 C 
ATOM     27  O   UNL     1      -3.559  11.367  16.312  0.00  0.00    +0.000 OA
ATOM     28  C   UNL     1      -4.686  11.073  17.140  0.00  0.00    +0.000 C 
ATOM     29  C   UNL     1      -4.694  11.962  18.380  0.00  0.00    +0.000 C 
ENDBRANCH  22  24
ENDBRANCH  17  21
ENDBRANCH   1  17
TORSDOF 3
ENDMDL
MODEL 7
REMARK VINA RESULT:      -8.1      3.179      9.281
REMARK  Name = 
REMARK  3 active torsions:
REMARK  status: ('A' for Active; 'I' for Inactive)
REMARK    1  A    between atoms: C_4  and  O_5
REMARK    2  A    between atoms: O_5  and  C_6
REMARK    3  A    between atoms: C_22  and  C_23
REMARK                            x       y       z     vdW  Elec       q    Type
REMARK                         _______ _______ _______ _____ _____    ______ ____
ROOT
ATOM      1  C   UNL     1       0.591  11.026  20.590  0.00  0.00    +0.000 C 
ATOM      2  C   UNL     1       1.432  10.739  19.344  0.00  0.00    +0.000 C 
ATOM      3  C   UNL     1       1.405   9.273  18.911  0.00  0.00    +0.000 C 
ATOM      4  N   UNL     1       1.695   8.363  20.030  0.00  0.00    +0.000 N 
ATOM      5  C   UNL     1       1.887   7.025  19.628  0.00  0.00    +0.000 A 
ATOM      6  C   UNL     1       1.868   5.980  20.554  0.00  0.00    +0.000 A 
ATOM      7  C   UNL     1       2.290   4.697  20.210  0.00  0.00    +0.000 A 
ATOM      8  C   UNL     1       2.271   3.659  21.137  0.00  0.00    +0.000 A 
ATOM      9  C   UNL     1       3.103   2.546  20.956  0.00  0.00    +0.000 A 
ATOM     10  C   UNL     1       3.759   2.375  19.740  0.00  0.00    +0.000 A 
ATOM     11  C   UNL     1       3.532   3.259  18.686  0.00  0.00    +0.000 A 
ATOM     12  C   UNL     1       2.834   4.478  18.934  0.00  0.00    +0.000 A 
ATOM     13  C   UNL     1       2.669   5.509  18.026  0.00  0.00    +0.000 A 
ATOM     14  N   UNL     1       2.209   6.747  18.337  0.00  0.00    +0.000 NA
ATOM     15  C   UNL     1       0.920   8.607  21.255  0.00  0.00    +0.000 C 
ATOM     16  C   UNL     1       1.009  10.063  21.699  0.00  0.00    +0.000 C 
ENDROOT
BRANCH   1  17
ATOM     17  O   UNL     1      -0.820  10.852  20.366  0.00  0.00    +0.000 OA
BRANCH  17  21
ATOM     18  C   UNL     1      -3.000  14.162  21.480  0.00  0.00    +0.000 A 
ATOM     19  C   UNL     1      -1.887  13.728  22.176  0.00  0.00    +0.000 A 
ATOM     20  N   UNL     1      -1.185  12.620  21.859  0.00  0.00    +0.000 NA
ATOM     21  C   UNL     1      -1.600  11.918  20.782  0.00  0.00    +0.000 A 
ATOM     22  C   UNL     1      -2.707  12.272  19.998  0.00  0.00    +0.000 A 
ATOM     23  C   UNL     1      -3.415  13.422  20.379  0.00  0.00    +0.000 A 
BRANCH  22  24
ATOM     24  C   UNL     1      -3.071  11.508  18.743  0.00  0.00    +0.000 C 
ATOM     25  C   UNL     1      -2.037  11.780  17.644  0.00  0.00    +0.000 C 
ATOM     26  C   UNL     1      -2.376  10.959  16.409  0.00  0.00    +0.000 C 
ATOM     27  O   UNL     1      -3.690  11.266  15.946  0.00  0.00    +0.000 OA
ATOM     28  C   UNL     1      -4.698  10.974  16.916  0.00  0.00    +0.000 C 
ATOM     29  C   UNL     1      -4.479  11.789  18.186  0.00  0.00    +0.000 C 
ENDBRANCH  22  24
ENDBRANCH  17  21
ENDBRANCH   1  17
TORSDOF 3
ENDMDL
MODEL 8
REMARK VINA RESULT:      -8.0      4.698      9.497
REMARK  Name = 
REMARK  3 active torsions:
REMARK  status: ('A' for Active; 'I' for Inactive)
REMARK    1  A    between atoms: C_4  and  O_5
REMARK    2  A    between atoms: O_5  and  C_6
REMARK    3  A    between atoms: C_22  and  C_23
REMARK                            x       y       z     vdW  Elec       q    Type
REMARK                         _______ _______ _______ _____ _____    ______ ____
ROOT
ATOM      1  C   UNL     1      -1.050  13.853  19.537  0.00  0.00    +0.000 C 
ATOM      2  C   UNL     1      -1.415  12.913  20.688  0.00  0.00    +0.000 C 
ATOM      3  C   UNL     1      -0.379  11.818  20.936  0.00  0.00    +0.000 C 
ATOM      4  N   UNL     1      -0.020  11.108  19.698  0.00  0.00    +0.000 N 
ATOM      5  C   UNL     1       0.768   9.959  19.919  0.00  0.00    +0.000 A 
ATOM      6  C   UNL     1       1.452   9.338  18.873  0.00  0.00    +0.000 A 
ATOM      7  C   UNL     1       2.031   8.080  19.030  0.00  0.00    +0.000 A 
ATOM      8  C   UNL     1       2.712   7.464  17.983  0.00  0.00    +0.000 A 
ATOM      9  C   UNL     1       2.869   6.071  17.977  0.00  0.00    +0.000 A 
ATOM     10  C   UNL     1       2.559   5.344  19.124  0.00  0.00    +0.000 A 
ATOM     11  C   UNL     1       2.169   6.000  20.291  0.00  0.00    +0.000 A 
ATOM     12  C   UNL     1       1.840   7.387  20.236  0.00  0.00    +0.000 A 
ATOM     13  C   UNL     1       1.297   8.126  21.273  0.00  0.00    +0.000 A 
ATOM     14  N   UNL     1       0.777   9.373  21.145  0.00  0.00    +0.000 NA
ATOM     15  C   UNL     1       0.327  11.969  18.558  0.00  0.00    +0.000 C 
ATOM     16  C   UNL     1      -0.749  13.017  18.294  0.00  0.00    +0.000 C 
ENDROOT
BRANCH   1  17
ATOM     17  O   UNL     1       0.110  14.658  19.817  0.00  0.00    +0.000 OA
BRANCH  17  21
ATOM     18  C   UNL     1       0.323  18.292  17.894  0.00  0.00    +0.000 A 
ATOM     19  C   UNL     1      -0.849  17.797  18.435  0.00  0.00    +0.000 A 
ATOM     20  N   UNL     1      -0.955  16.590  19.027  0.00  0.00    +0.000 NA
ATOM     21  C   UNL     1       0.169  15.843  19.103  0.00  0.00    +0.000 A 
ATOM     22  C   UNL     1       1.412  16.250  18.599  0.00  0.00    +0.000 A 
ATOM     23  C   UNL     1       1.466  17.506  17.977  0.00  0.00    +0.000 A 
BRANCH  22  24
ATOM     24  C   UNL     1       2.662  15.419  18.798  0.00  0.00    +0.000 C 
ATOM     25  C   UNL     1       3.370  15.837  20.092  0.00  0.00    +0.000 C 
ATOM     26  C   UNL     1       4.589  14.954  20.316  0.00  0.00    +0.000 C 
ATOM     27  O   UNL     1       5.483  15.041  19.207  0.00  0.00    +0.000 OA
ATOM     28  C   UNL     1       4.886  14.607  17.983  0.00  0.00    +0.000 C 
ATOM     29  C   UNL     1       3.673  15.465  17.637  0.00  0.00    +0.000 C 
ENDBRANCH  22  24
ENDBRANCH  17  21
ENDBRANCH   1  17
TORSDOF 3
ENDMDL
MODEL 9
REMARK VINA RESULT:      -7.7      1.775      3.645
REMARK  Name = 
REMARK  3 active torsions:
REMARK  status: ('A' for Active; 'I' for Inactive)
REMARK    1  A    between atoms: C_4  and  O_5
REMARK    2  A    between atoms: O_5  and  C_6
REMARK    3  A    between atoms: C_22  and  C_23
REMARK                            x       y       z     vdW  Elec       q    Type
REMARK                         _______ _______ _______ _____ _____    ______ ____
ROOT
ATOM      1  C   UNL     1       2.878   6.480  18.306  0.00  0.00    +0.000 C 
ATOM      2  C   UNL     1       2.327   7.548  17.359  0.00  0.00    +0.000 C 
ATOM      3  C   UNL     1       2.065   8.892  18.038  0.00  0.00    +0.000 C 
ATOM      4  N   UNL     1       1.271   8.742  19.268  0.00  0.00    +0.000 N 
ATOM      5  C   UNL     1       0.831   9.970  19.804  0.00  0.00    +0.000 A 
ATOM      6  C   UNL     1       0.337  10.056  21.107  0.00  0.00    +0.000 A 
ATOM      7  C   UNL     1      -0.316  11.200  21.562  0.00  0.00    +0.000 A 
ATOM      8  C   UNL     1      -0.809  11.281  22.861  0.00  0.00    +0.000 A 
ATOM      9  C   UNL     1      -1.838  12.183  23.163  0.00  0.00    +0.000 A 
ATOM     10  C   UNL     1      -2.192  13.152  22.228  0.00  0.00    +0.000 A 
ATOM     11  C   UNL     1      -1.481  13.274  21.035  0.00  0.00    +0.000 A 
ATOM     12  C   UNL     1      -0.564  12.248  20.660  0.00  0.00    +0.000 A 
ATOM     13  C   UNL     1       0.093  12.161  19.444  0.00  0.00    +0.000 A 
ATOM     14  N   UNL     1       0.777  11.072  19.011  0.00  0.00    +0.000 NA
ATOM     15  C   UNL     1       1.754   7.717  20.206  0.00  0.00    +0.000 C 
ATOM     16  C   UNL     1       1.953   6.371  19.517  0.00  0.00    +0.000 C 
ENDROOT
BRANCH   1  17
ATOM     17  O   UNL     1       4.199   6.784  18.788  0.00  0.00    +0.000 OA
BRANCH  17  21
ATOM     18  C   UNL     1       7.366   5.221  16.673  0.00  0.00    +0.000 A 
ATOM     19  C   UNL     1       7.279   6.558  17.013  0.00  0.00    +0.000 A 
ATOM     20  N   UNL     1       6.229   7.102  17.664  0.00  0.00    +0.000 NA
ATOM     21  C   UNL     1       5.223   6.270  18.012  0.00  0.00    +0.000 A 
ATOM     22  C   UNL     1       5.213   4.897  17.728  0.00  0.00    +0.000 A 
ATOM     23  C   UNL     1       6.318   4.382  17.034  0.00  0.00    +0.000 A 
BRANCH  22  24
ATOM     24  C   UNL     1       4.108   3.990  18.226  0.00  0.00    +0.000 C 
ATOM     25  C   UNL     1       4.606   3.162  19.417  0.00  0.00    +0.000 C 
ATOM     26  C   UNL     1       3.471   2.300  19.950  0.00  0.00    +0.000 C 
ATOM     27  O   UNL     1       2.962   1.447  18.925  0.00  0.00    +0.000 OA
ATOM     28  C   UNL     1       2.432   2.175  17.815  0.00  0.00    +0.000 C 
ATOM     29  C   UNL     1       3.510   3.041  17.171  0.00  0.00    +0.000 C 
ENDBRANCH  22  24
ENDBRANCH  17  21
ENDBRANCH   1  17
TORSDOF 3
ENDMDL
