MODEL 1
REMARK VINA RESULT:      -7.5      0.000      0.000
REMARK  Name = 
REMARK  4 active torsions:
REMARK  status: ('A' for Active; 'I' for Inactive)
REMARK    1  A    between atoms: N_4  and  N_5
REMARK    2  A    between atoms: C_6  and  C_8
REMARK    3  A    between atoms: C_8  and  C_9
REMARK    4  A    between atoms: C_9  and  N_10
REMARK                            x       y       z     vdW  Elec       q    Type
REMARK                         _______ _______ _______ _____ _____    ______ ____
ROOT
ATOM      1  C   UNL     1       7.364   6.173  18.469  0.00  0.00    +0.000 C 
ENDROOT
BRANCH   1   3
ATOM      2  N   UNL     1       7.281   5.874  16.065  0.00  0.00    +0.000 N 
ATOM      3  C   UNL     1       7.619   5.290  17.268  0.00  0.00    +0.000 C 
ATOM      4  O   UNL     1       8.138   4.177  17.346  0.00  0.00    +0.000 OA
ATOM      5  H   UNL     1       6.687   6.697  15.956  0.00  0.00    +0.000 HD
BRANCH   2   9
ATOM      6  N   UNL     1       5.346   4.073  15.508  0.00  0.00    +0.000 NA
ATOM      7  C   UNL     1       6.297   4.284  14.659  0.00  0.00    +0.000 C 
ATOM      8  N   UNL     1       6.339   3.667  13.460  0.00  0.00    +0.000 N 
ATOM      9  N   UNL     1       7.375   5.077  14.917  0.00  0.00    +0.000 N 
ATOM     10  H   UNL     1       4.686   3.402  15.108  0.00  0.00    +0.000 HD
ATOM     11  H   UNL     1       5.503   3.200  13.134  0.00  0.00    +0.000 HD
ATOM     12  H   UNL     1       6.880   4.097  12.722  0.00  0.00    +0.000 HD
ATOM     13  H   UNL     1       7.843   5.538  14.141  0.00  0.00    +0.000 HD
ENDBRANCH   2   9
ENDBRANCH   1   3
BRANCH   1  14
ATOM     14  C   UNL     1       6.516   5.439  19.509  0.00  0.00    +0.000 C 
BRANCH  14  15
ATOM     15  N   UNL     1       5.195   5.070  18.998  0.00  0.00    +0.000 N 
ATOM     16  N   UNL     1       4.419   6.127  18.528  0.00  0.00    +0.000 N 
ATOM     17  C   UNL     1       3.121   5.977  18.113  0.00  0.00    +0.000 A 
ATOM     18  O   UNL     1       2.463   6.950  17.767  0.00  0.00    +0.000 OA
ATOM     19  C   UNL     1       2.588   4.590  18.110  0.00  0.00    +0.000 A 
ATOM     20 CL   UNL     1       0.991   4.392  17.467  0.00  0.00    +0.000 Cl
ATOM     21  C   UNL     1       3.314   3.575  18.593  0.00  0.00    +0.000 A 
ATOM     22 CL   UNL     1       2.735   1.939  18.631  0.00  0.00    +0.000 Cl
ATOM     23  C   UNL     1       4.687   3.790  19.134  0.00  0.00    +0.000 A 
ATOM     24  O   UNL     1       5.330   2.878  19.645  0.00  0.00    +0.000 OA
ATOM     25  H   UNL     1       4.771   7.078  18.587  0.00  0.00    +0.000 HD
ENDBRANCH  14  15
ENDBRANCH   1  14
TORSDOF 4
ENDMDL
MODEL 2
REMARK VINA RESULT:      -7.5      1.958      2.585
REMARK  Name = 
REMARK  4 active torsions:
REMARK  status: ('A' for Active; 'I' for Inactive)
REMARK    1  A    between atoms: N_4  and  N_5
REMARK    2  A    between atoms: C_6  and  C_8
REMARK    3  A    between atoms: C_8  and  C_9
REMARK    4  A    between atoms: C_9  and  N_10
REMARK                            x       y       z     vdW  Elec       q    Type
REMARK                         _______ _______ _______ _____ _____    ______ ____
ROOT
ATOM      1  C   UNL     1       5.387   5.947  15.612  0.00  0.00    +0.000 C 
ENDROOT
BRANCH   1   3
ATOM      2  N   UNL     1       5.693   4.388  13.781  0.00  0.00    +0.000 N 
ATOM      3  C   UNL     1       6.115   4.749  15.043  0.00  0.00    +0.000 C 
ATOM      4  O   UNL     1       7.041   4.184  15.624  0.00  0.00    +0.000 OA
ATOM      5  H   UNL     1       4.824   4.693  13.340  0.00  0.00    +0.000 HD
BRANCH   2   9
ATOM      6  N   UNL     1       4.538   3.242  11.624  0.00  0.00    +0.000 NA
ATOM      7  C   UNL     1       5.654   2.779  12.082  0.00  0.00    +0.000 C 
ATOM      8  N   UNL     1       6.307   1.759  11.488  0.00  0.00    +0.000 N 
ATOM      9  N   UNL     1       6.234   3.216  13.236  0.00  0.00    +0.000 N 
ATOM     10  H   UNL     1       4.282   2.719  10.784  0.00  0.00    +0.000 HD
ATOM     11  H   UNL     1       6.030   1.497  10.552  0.00  0.00    +0.000 HD
ATOM     12  H   UNL     1       7.297   1.660  11.664  0.00  0.00    +0.000 HD
ATOM     13  H   UNL     1       7.244   3.153  13.334  0.00  0.00    +0.000 HD
ENDBRANCH   2   9
ENDBRANCH   1   3
BRANCH   1  14
ATOM     14  C   UNL     1       5.430   5.931  17.140  0.00  0.00    +0.000 C 
BRANCH  14  15
ATOM     15  N   UNL     1       4.586   4.883  17.715  0.00  0.00    +0.000 N 
ATOM     16  N   UNL     1       3.268   4.862  17.266  0.00  0.00    +0.000 N 
ATOM     17  C   UNL     1       2.316   4.017  17.775  0.00  0.00    +0.000 A 
ATOM     18  O   UNL     1       1.155   4.082  17.387  0.00  0.00    +0.000 OA
ATOM     19  C   UNL     1       2.779   3.043  18.798  0.00  0.00    +0.000 A 
ATOM     20 CL   UNL     1       1.600   1.898  19.345  0.00  0.00    +0.000 Cl
ATOM     21  C   UNL     1       4.034   3.080  19.260  0.00  0.00    +0.000 A 
ATOM     22 CL   UNL     1       4.624   1.980  20.466  0.00  0.00    +0.000 Cl
ATOM     23  C   UNL     1       5.019   4.082  18.758  0.00  0.00    +0.000 A 
ATOM     24  O   UNL     1       6.149   4.170  19.229  0.00  0.00    +0.000 OA
ATOM     25  H   UNL     1       2.946   5.568  16.609  0.00  0.00    +0.000 HD
ENDBRANCH  14  15
ENDBRANCH   1  14
TORSDOF 4
ENDMDL
MODEL 3
REMARK VINA RESULT:      -7.4      2.931      4.550
REMARK  Name = 
REMARK  4 active torsions:
REMARK  status: ('A' for Active; 'I' for Inactive)
REMARK    1  A    between atoms: N_4  and  N_5
REMARK    2  A    between atoms: C_6  and  C_8
REMARK    3  A    between atoms: C_8  and  C_9
REMARK    4  A    between atoms: C_9  and  N_10
REMARK                            x       y       z     vdW  Elec       q    Type
REMARK                         _______ _______ _______ _____ _____    ______ ____
ROOT
ATOM      1  C   UNL     1       7.472   5.855  18.474  0.00  0.00    +0.000 C 
ENDROOT
BRANCH   1   3
ATOM      2  N   UNL     1       8.349   8.114  18.408  0.00  0.00    +0.000 N 
ATOM      3  C   UNL     1       7.520   7.203  17.789  0.00  0.00    +0.000 C 
ATOM      4  O   UNL     1       6.924   7.448  16.740  0.00  0.00    +0.000 OA
ATOM      5  H   UNL     1       8.711   8.031  19.359  0.00  0.00    +0.000 HD
BRANCH   2   9
ATOM      6  N   UNL     1       9.431  10.119  19.860  0.00  0.00    +0.000 NA
ATOM      7  C   UNL     1       9.025  10.340  18.653  0.00  0.00    +0.000 C 
ATOM      8  N   UNL     1       9.167  11.542  18.057  0.00  0.00    +0.000 N 
ATOM      9  N   UNL     1       8.355   9.421  17.903  0.00  0.00    +0.000 N 
ATOM     10  H   UNL     1       9.852  10.974  20.231  0.00  0.00    +0.000 HD
ATOM     11  H   UNL     1       9.792  12.215  18.481  0.00  0.00    +0.000 HD
ATOM     12  H   UNL     1       9.155  11.577  17.047  0.00  0.00    +0.000 HD
ATOM     13  H   UNL     1       8.430   9.463  16.890  0.00  0.00    +0.000 HD
ENDBRANCH   2   9
ENDBRANCH   1   3
BRANCH   1  14
ATOM     14  C   UNL     1       6.779   4.821  17.586  0.00  0.00    +0.000 C 
BRANCH  14  15
ATOM     15  N   UNL     1       5.513   4.352  18.152  0.00  0.00    +0.000 N 
ATOM     16  N   UNL     1       5.625   3.406  19.168  0.00  0.00    +0.000 N 
ATOM     17  C   UNL     1       4.544   2.783  19.736  0.00  0.00    +0.000 A 
ATOM     18  O   UNL     1       4.701   1.913  20.583  0.00  0.00    +0.000 OA
ATOM     19  C   UNL     1       3.207   3.230  19.266  0.00  0.00    +0.000 A 
ATOM     20 CL   UNL     1       1.844   2.530  20.075  0.00  0.00    +0.000 Cl
ATOM     21  C   UNL     1       3.091   4.112  18.266  0.00  0.00    +0.000 A 
ATOM     22 CL   UNL     1       1.556   4.655  17.665  0.00  0.00    +0.000 Cl
ATOM     23  C   UNL     1       4.291   4.693  17.599  0.00  0.00    +0.000 A 
ATOM     24  O   UNL     1       4.193   5.446  16.634  0.00  0.00    +0.000 OA
ATOM     25  H   UNL     1       6.543   3.065  19.443  0.00  0.00    +0.000 HD
ENDBRANCH  14  15
ENDBRANCH   1  14
TORSDOF 4
ENDMDL
MODEL 4
REMARK VINA RESULT:      -7.4      2.353      3.944
REMARK  Name = 
REMARK  4 active torsions:
REMARK  status: ('A' for Active; 'I' for Inactive)
REMARK    1  A    between atoms: N_4  and  N_5
REMARK    2  A    between atoms: C_6  and  C_8
REMARK    3  A    between atoms: C_8  and  C_9
REMARK    4  A    between atoms: C_9  and  N_10
REMARK                            x       y       z     vdW  Elec       q    Type
REMARK                         _______ _______ _______ _____ _____    ______ ____
ROOT
ATOM      1  C   UNL     1       5.929   3.902  16.325  0.00  0.00    +0.000 C 
ENDROOT
BRANCH   1   3
ATOM      2  N   UNL     1       6.227   6.125  17.246  0.00  0.00    +0.000 N 
ATOM      3  C   UNL     1       6.586   5.261  16.233  0.00  0.00    +0.000 C 
ATOM      4  O   UNL     1       7.414   5.553  15.370  0.00  0.00    +0.000 OA
ATOM      5  H   UNL     1       5.423   6.006  17.864  0.00  0.00    +0.000 HD
BRANCH   2   9
ATOM      6  N   UNL     1       8.223   6.949  18.869  0.00  0.00    +0.000 NA
ATOM      7  C   UNL     1       7.783   7.729  17.938  0.00  0.00    +0.000 C 
ATOM      8  N   UNL     1       8.321   8.944  17.704  0.00  0.00    +0.000 N 
ATOM      9  N   UNL     1       6.699   7.441  17.164  0.00  0.00    +0.000 N 
ATOM     10  H   UNL     1       9.004   7.407  19.345  0.00  0.00    +0.000 HD
ATOM     11  H   UNL     1       9.219   9.156  18.120  0.00  0.00    +0.000 HD
ATOM     12  H   UNL     1       8.186   9.357  16.792  0.00  0.00    +0.000 HD
ATOM     13  H   UNL     1       6.645   7.832  16.226  0.00  0.00    +0.000 HD
ENDBRANCH   2   9
ENDBRANCH   1   3
BRANCH   1  14
ATOM     14  C   UNL     1       4.407   4.040  16.393  0.00  0.00    +0.000 C 
BRANCH  14  15
ATOM     15  N   UNL     1       3.869   3.683  17.707  0.00  0.00    +0.000 N 
ATOM     16  N   UNL     1       4.763   3.053  18.569  0.00  0.00    +0.000 N 
ATOM     17  C   UNL     1       4.400   2.557  19.794  0.00  0.00    +0.000 A 
ATOM     18  O   UNL     1       5.212   1.956  20.487  0.00  0.00    +0.000 OA
ATOM     19  C   UNL     1       2.994   2.797  20.210  0.00  0.00    +0.000 A 
ATOM     20 CL   UNL     1       2.575   2.279  21.809  0.00  0.00    +0.000 Cl
ATOM     21  C   UNL     1       2.120   3.370  19.374  0.00  0.00    +0.000 A 
ATOM     22 CL   UNL     1       0.462   3.659  19.800  0.00  0.00    +0.000 Cl
ATOM     23  C   UNL     1       2.523   3.805  18.006  0.00  0.00    +0.000 A 
ATOM     24  O   UNL     1       1.711   4.264  17.208  0.00  0.00    +0.000 OA
ATOM     25  H   UNL     1       5.706   2.842  18.254  0.00  0.00    +0.000 HD
ENDBRANCH  14  15
ENDBRANCH   1  14
TORSDOF 4
ENDMDL
MODEL 5
REMARK VINA RESULT:      -7.3      1.498      2.751
REMARK  Name = 
REMARK  4 active torsions:
REMARK  status: ('A' for Active; 'I' for Inactive)
REMARK    1  A    between atoms: N_4  and  N_5
REMARK    2  A    between atoms: C_6  and  C_8
REMARK    3  A    between atoms: C_8  and  C_9
REMARK    4  A    between atoms: C_9  and  N_10
REMARK                            x       y       z     vdW  Elec       q    Type
REMARK                         _______ _______ _______ _____ _____    ______ ____
ROOT
ATOM      1  C   UNL     1       6.809   5.719  18.327  0.00  0.00    +0.000 C 
ENDROOT
BRANCH   1   3
ATOM      2  N   UNL     1       7.136   5.779  15.925  0.00  0.00    +0.000 N 
ATOM      3  C   UNL     1       7.443   5.114  17.093  0.00  0.00    +0.000 C 
ATOM      4  O   UNL     1       8.211   4.153  17.132  0.00  0.00    +0.000 OA
ATOM      5  H   UNL     1       6.374   6.449  15.811  0.00  0.00    +0.000 HD
BRANCH   2   9
ATOM      6  N   UNL     1       5.462   4.276  14.430  0.00  0.00    +0.000 NA
ATOM      7  C   UNL     1       6.639   4.569  13.986  0.00  0.00    +0.000 C 
ATOM      8  N   UNL     1       7.059   4.190  12.761  0.00  0.00    +0.000 N 
ATOM      9  N   UNL     1       7.586   5.210  14.727  0.00  0.00    +0.000 N 
ATOM     10  H   UNL     1       4.958   3.748  13.714  0.00  0.00    +0.000 HD
ATOM     11  H   UNL     1       6.368   3.861  12.100  0.00  0.00    +0.000 HD
ATOM     12  H   UNL     1       7.816   4.709  12.336  0.00  0.00    +0.000 HD
ATOM     13  H   UNL     1       8.287   5.773  14.250  0.00  0.00    +0.000 HD
ENDBRANCH   2   9
ENDBRANCH   1   3
BRANCH   1  14
ATOM     14  C   UNL     1       5.312   5.945  18.111  0.00  0.00    +0.000 C 
BRANCH  14  15
ATOM     15  N   UNL     1       4.486   5.103  18.977  0.00  0.00    +0.000 N 
ATOM     16  N   UNL     1       5.058   3.891  19.356  0.00  0.00    +0.000 N 
ATOM     17  C   UNL     1       4.386   2.937  20.076  0.00  0.00    +0.000 A 
ATOM     18  O   UNL     1       4.916   1.862  20.329  0.00  0.00    +0.000 OA
ATOM     19  C   UNL     1       3.013   3.293  20.517  0.00  0.00    +0.000 A 
ATOM     20 CL   UNL     1       2.217   2.135  21.531  0.00  0.00    +0.000 Cl
ATOM     21  C   UNL     1       2.443   4.439  20.128  0.00  0.00    +0.000 A 
ATOM     22 CL   UNL     1       0.836   4.897  20.597  0.00  0.00    +0.000 Cl
ATOM     23  C   UNL     1       3.166   5.410  19.256  0.00  0.00    +0.000 A 
ATOM     24  O   UNL     1       2.625   6.428  18.836  0.00  0.00    +0.000 OA
ATOM     25  H   UNL     1       5.975   3.632  19.002  0.00  0.00    +0.000 HD
ENDBRANCH  14  15
ENDBRANCH   1  14
TORSDOF 4
ENDMDL
MODEL 6
REMARK VINA RESULT:      -7.3      1.895      3.247
REMARK  Name = 
REMARK  4 active torsions:
REMARK  status: ('A' for Active; 'I' for Inactive)
REMARK    1  A    between atoms: N_4  and  N_5
REMARK    2  A    between atoms: C_6  and  C_8
REMARK    3  A    between atoms: C_8  and  C_9
REMARK    4  A    between atoms: C_9  and  N_10
REMARK                            x       y       z     vdW  Elec       q    Type
REMARK                         _______ _______ _______ _____ _____    ______ ____
ROOT
ATOM      1  C   UNL     1       5.208   5.495  16.195  0.00  0.00    +0.000 C 
ENDROOT
BRANCH   1   3
ATOM      2  N   UNL     1       5.718   4.277  14.161  0.00  0.00    +0.000 N 
ATOM      3  C   UNL     1       6.114   4.534  15.457  0.00  0.00    +0.000 C 
ATOM      4  O   UNL     1       7.145   4.071  15.943  0.00  0.00    +0.000 OA
ATOM      5  H   UNL     1       4.793   4.479  13.777  0.00  0.00    +0.000 HD
BRANCH   2   9
ATOM      6  N   UNL     1       4.769   3.344  11.810  0.00  0.00    +0.000 NA
ATOM      7  C   UNL     1       5.939   2.984  12.224  0.00  0.00    +0.000 C 
ATOM      8  N   UNL     1       6.745   2.185  11.495  0.00  0.00    +0.000 N 
ATOM      9  N   UNL     1       6.435   3.306  13.452  0.00  0.00    +0.000 N 
ATOM     10  H   UNL     1       4.603   2.934  10.888  0.00  0.00    +0.000 HD
ATOM     11  H   UNL     1       6.520   2.042  10.520  0.00  0.00    +0.000 HD
ATOM     12  H   UNL     1       7.737   2.208  11.685  0.00  0.00    +0.000 HD
ATOM     13  H   UNL     1       7.443   3.379  13.572  0.00  0.00    +0.000 HD
ENDBRANCH   2   9
ENDBRANCH   1   3
BRANCH   1  14
ATOM     14  C   UNL     1       5.701   5.711  17.627  0.00  0.00    +0.000 C 
BRANCH  14  15
ATOM     15  N   UNL     1       4.852   5.050  18.619  0.00  0.00    +0.000 N 
ATOM     16  N   UNL     1       5.242   3.761  18.976  0.00  0.00    +0.000 N 
ATOM     17  C   UNL     1       4.506   2.959  19.810  0.00  0.00    +0.000 A 
ATOM     18  O   UNL     1       4.863   1.811  20.043  0.00  0.00    +0.000 OA
ATOM     19  C   UNL     1       3.283   3.567  20.396  0.00  0.00    +0.000 A 
ATOM     20 CL   UNL     1       2.426   2.592  21.544  0.00  0.00    +0.000 Cl
ATOM     21  C   UNL     1       2.883   4.790  20.030  0.00  0.00    +0.000 A 
ATOM     22 CL   UNL     1       1.453   5.541  20.667  0.00  0.00    +0.000 Cl
ATOM     23  C   UNL     1       3.652   5.597  19.039  0.00  0.00    +0.000 A 
ATOM     24  O   UNL     1       3.253   6.688  18.645  0.00  0.00    +0.000 OA
ATOM     25  H   UNL     1       6.048   3.334  18.528  0.00  0.00    +0.000 HD
ENDBRANCH  14  15
ENDBRANCH   1  14
TORSDOF 4
ENDMDL
MODEL 7
REMARK VINA RESULT:      -7.2      1.926      3.059
REMARK  Name = 
REMARK  4 active torsions:
REMARK  status: ('A' for Active; 'I' for Inactive)
REMARK    1  A    between atoms: N_4  and  N_5
REMARK    2  A    between atoms: C_6  and  C_8
REMARK    3  A    between atoms: C_8  and  C_9
REMARK    4  A    between atoms: C_9  and  N_10
REMARK                            x       y       z     vdW  Elec       q    Type
REMARK                         _______ _______ _______ _____ _____    ______ ____
ROOT
ATOM      1  C   UNL     1       5.314   5.928  15.977  0.00  0.00    +0.000 C 
ENDROOT
BRANCH   1   3
ATOM      2  N   UNL     1       5.607   4.189  14.314  0.00  0.00    +0.000 N 
ATOM      3  C   UNL     1       6.245   5.137  15.086  0.00  0.00    +0.000 C 
ATOM      4  O   UNL     1       7.453   5.359  15.008  0.00  0.00    +0.000 OA
ATOM      5  H   UNL     1       4.660   3.841  14.471  0.00  0.00    +0.000 HD
BRANCH   2   9
ATOM      6  N   UNL     1       4.787   3.374  11.872  0.00  0.00    +0.000 NA
ATOM      7  C   UNL     1       5.972   3.073  12.290  0.00  0.00    +0.000 C 
ATOM      8  N   UNL     1       6.853   2.398  11.524  0.00  0.00    +0.000 N 
ATOM      9  N   UNL     1       6.414   3.334  13.552  0.00  0.00    +0.000 N 
ATOM     10  H   UNL     1       4.673   3.027  10.917  0.00  0.00    +0.000 HD
ATOM     11  H   UNL     1       6.661   2.317  10.535  0.00  0.00    +0.000 HD
ATOM     12  H   UNL     1       7.836   2.482  11.743  0.00  0.00    +0.000 HD
ATOM     13  H   UNL     1       7.410   3.475  13.706  0.00  0.00    +0.000 HD
ENDBRANCH   2   9
ENDBRANCH   1   3
BRANCH   1  14
ATOM     14  C   UNL     1       5.643   5.690  17.452  0.00  0.00    +0.000 C 
BRANCH  14  15
ATOM     15  N   UNL     1       4.621   4.895  18.134  0.00  0.00    +0.000 N 
ATOM     16  N   UNL     1       4.642   3.530  17.858  0.00  0.00    +0.000 N 
ATOM     17  C   UNL     1       3.695   2.656  18.327  0.00  0.00    +0.000 A 
ATOM     18  O   UNL     1       3.725   1.475  18.003  0.00  0.00    +0.000 OA
ATOM     19  C   UNL     1       2.664   3.227  19.232  0.00  0.00    +0.000 A 
ATOM     20 CL   UNL     1       1.546   2.096  19.919  0.00  0.00    +0.000 Cl
ATOM     21  C   UNL     1       2.616   4.542  19.473  0.00  0.00    +0.000 A 
ATOM     22 CL   UNL     1       1.424   5.266  20.506  0.00  0.00    +0.000 Cl
ATOM     23  C   UNL     1       3.601   5.481  18.863  0.00  0.00    +0.000 A 
ATOM     24  O   UNL     1       3.520   6.696  19.021  0.00  0.00    +0.000 OA
ATOM     25  H   UNL     1       5.315   3.158  17.194  0.00  0.00    +0.000 HD
ENDBRANCH  14  15
ENDBRANCH   1  14
TORSDOF 4
ENDMDL
MODEL 8
REMARK VINA RESULT:      -7.2      1.640      1.756
REMARK  Name = 
REMARK  4 active torsions:
REMARK  status: ('A' for Active; 'I' for Inactive)
REMARK    1  A    between atoms: N_4  and  N_5
REMARK    2  A    between atoms: C_6  and  C_8
REMARK    3  A    between atoms: C_8  and  C_9
REMARK    4  A    between atoms: C_9  and  N_10
REMARK                            x       y       z     vdW  Elec       q    Type
REMARK                         _______ _______ _______ _____ _____    ______ ____
ROOT
ATOM      1  C   UNL     1       6.461   6.118  17.876  0.00  0.00    +0.000 C 
ENDROOT
BRANCH   1   3
ATOM      2  N   UNL     1       6.941   5.851  15.515  0.00  0.00    +0.000 N 
ATOM      3  C   UNL     1       7.195   5.374  16.783  0.00  0.00    +0.000 C 
ATOM      4  O   UNL     1       7.995   4.465  17.006  0.00  0.00    +0.000 OA
ATOM      5  H   UNL     1       6.163   6.461  15.260  0.00  0.00    +0.000 HD
BRANCH   2   9
ATOM      6  N   UNL     1       5.373   4.228  14.029  0.00  0.00    +0.000 NA
ATOM      7  C   UNL     1       6.599   4.440  13.680  0.00  0.00    +0.000 C 
ATOM      8  N   UNL     1       7.127   3.914  12.556  0.00  0.00    +0.000 N 
ATOM      9  N   UNL     1       7.489   5.139  14.440  0.00  0.00    +0.000 N 
ATOM     10  H   UNL     1       4.926   3.633  13.327  0.00  0.00    +0.000 HD
ATOM     11  H   UNL     1       6.495   3.528  11.867  0.00  0.00    +0.000 HD
ATOM     12  H   UNL     1       7.941   4.362  12.157  0.00  0.00    +0.000 HD
ATOM     13  H   UNL     1       8.254   5.626  13.980  0.00  0.00    +0.000 HD
ENDBRANCH   2   9
ENDBRANCH   1   3
BRANCH   1  14
ATOM     14  C   UNL     1       5.072   6.548  17.399  0.00  0.00    +0.000 C 
BRANCH  14  15
ATOM     15  N   UNL     1       4.004   5.721  17.963  0.00  0.00    +0.000 N 
ATOM     16  N   UNL     1       3.332   6.271  19.051  0.00  0.00    +0.000 N 
ATOM     17  C   UNL     1       2.378   5.593  19.765  0.00  0.00    +0.000 A 
ATOM     18  O   UNL     1       1.862   6.102  20.752  0.00  0.00    +0.000 OA
ATOM     19  C   UNL     1       2.024   4.238  19.267  0.00  0.00    +0.000 A 
ATOM     20 CL   UNL     1       0.732   3.437  20.098  0.00  0.00    +0.000 Cl
ATOM     21  C   UNL     1       2.689   3.689  18.245  0.00  0.00    +0.000 A 
ATOM     22 CL   UNL     1       2.331   2.104  17.633  0.00  0.00    +0.000 Cl
ATOM     23  C   UNL     1       3.795   4.415  17.555  0.00  0.00    +0.000 A 
ATOM     24  O   UNL     1       4.457   3.890  16.665  0.00  0.00    +0.000 OA
ATOM     25  H   UNL     1       3.620   7.174  19.419  0.00  0.00    +0.000 HD
ENDBRANCH  14  15
ENDBRANCH   1  14
TORSDOF 4
ENDMDL
MODEL 9
REMARK VINA RESULT:      -7.2      1.746      2.603
REMARK  Name = 
REMARK  4 active torsions:
REMARK  status: ('A' for Active; 'I' for Inactive)
REMARK    1  A    between atoms: N_4  and  N_5
REMARK    2  A    between atoms: C_6  and  C_8
REMARK    3  A    between atoms: C_8  and  C_9
REMARK    4  A    between atoms: C_9  and  N_10
REMARK                            x       y       z     vdW  Elec       q    Type
REMARK                         _______ _______ _______ _____ _____    ______ ____
ROOT
ATOM      1  C   UNL     1       6.787   5.744  18.452  0.00  0.00    +0.000 C 
ENDROOT
BRANCH   1   3
ATOM      2  N   UNL     1       7.206   5.213  16.124  0.00  0.00    +0.000 N 
ATOM      3  C   UNL     1       7.224   6.207  17.079  0.00  0.00    +0.000 C 
ATOM      4  O   UNL     1       7.510   7.376  16.821  0.00  0.00    +0.000 OA
ATOM      5  H   UNL     1       7.162   4.211  16.316  0.00  0.00    +0.000 HD
BRANCH   2   9
ATOM      6  N   UNL     1       6.448   3.778  13.964  0.00  0.00    +0.000 NA
ATOM      7  C   UNL     1       7.183   4.831  13.816  0.00  0.00    +0.000 C 
ATOM      8  N   UNL     1       7.554   5.282  12.600  0.00  0.00    +0.000 N 
ATOM      9  N   UNL     1       7.712   5.533  14.857  0.00  0.00    +0.000 N 
ATOM     10  H   UNL     1       6.222   3.398  13.041  0.00  0.00    +0.000 HD
ATOM     11  H   UNL     1       7.073   4.918  11.788  0.00  0.00    +0.000 HD
ATOM     12  H   UNL     1       7.823   6.253  12.514  0.00  0.00    +0.000 HD
ATOM     13  H   UNL     1       7.903   6.525  14.736  0.00  0.00    +0.000 HD
ENDBRANCH   2   9
ENDBRANCH   1   3
BRANCH   1  14
ATOM     14  C   UNL     1       6.431   4.257  18.433  0.00  0.00    +0.000 C 
BRANCH  14  15
ATOM     15  N   UNL     1       5.037   4.009  18.805  0.00  0.00    +0.000 N 
ATOM     16  N   UNL     1       4.851   3.320  20.001  0.00  0.00    +0.000 N 
ATOM     17  C   UNL     1       3.620   2.912  20.447  0.00  0.00    +0.000 A 
ATOM     18  O   UNL     1       3.519   2.254  21.476  0.00  0.00    +0.000 OA
ATOM     19  C   UNL     1       2.454   3.315  19.620  0.00  0.00    +0.000 A 
ATOM     20 CL   UNL     1       0.895   2.905  20.254  0.00  0.00    +0.000 Cl
ATOM     21  C   UNL     1       2.627   3.946  18.453  0.00  0.00    +0.000 A 
ATOM     22 CL   UNL     1       1.303   4.425  17.438  0.00  0.00    +0.000 Cl
ATOM     23  C   UNL     1       3.988   4.284  17.946  0.00  0.00    +0.000 A 
ATOM     24  O   UNL     1       4.159   4.796  16.843  0.00  0.00    +0.000 OA
ATOM     25  H   UNL     1       5.657   2.999  20.531  0.00  0.00    +0.000 HD
ENDBRANCH  14  15
ENDBRANCH   1  14
TORSDOF 4
ENDMDL
