MODEL 1
REMARK VINA RESULT:      -6.9      0.000      0.000
REMARK  Name = 
REMARK  6 active torsions:
REMARK  status: ('A' for Active; 'I' for Inactive)
REMARK    1  A    between atoms: C_1  and  O_2
REMARK    2  A    between atoms: O_2  and  C_3
REMARK    3  A    between atoms: C_6  and  C_7
REMARK    4  A    between atoms: C_7  and  C_8
REMARK    5  A    between atoms: C_8  and  N_9
REMARK    6  A    between atoms: C_13  and  N_14
REMARK                            x       y       z     vdW  Elec       q    Type
REMARK                         _______ _______ _______ _____ _____    ______ ____
ROOT
ATOM      1  N   UNL     1       8.653   7.945  18.824  0.00  0.00    +0.000 N 
ATOM      2  C   UNL     1       7.760   7.076  18.169  0.00  0.00    +0.000 A 
ATOM      3  C   UNL     1       7.729   5.731  18.542  0.00  0.00    +0.000 A 
ATOM      4  C   UNL     1       6.871   4.847  17.878  0.00  0.00    +0.000 A 
ATOM      5  C   UNL     1       6.065   5.342  16.855  0.00  0.00    +0.000 A 
ATOM      6  C   UNL     1       6.147   6.683  16.537  0.00  0.00    +0.000 A 
ATOM      7  N   UNL     1       6.977   7.543  17.172  0.00  0.00    +0.000 NA
ATOM      8  H   UNL     1       8.491   7.890  19.826  0.00  0.00    +0.000 HD
ENDROOT
BRANCH   5   9
ATOM      9  N   UNL     1       5.151   4.482  16.119  0.00  0.00    +0.000 N 
ATOM     10  O   UNL     1       4.269   3.898  16.762  0.00  0.00    +0.000 OA
ATOM     11  O   UNL     1       5.309   4.387  14.894  0.00  0.00    +0.000 OA
ENDBRANCH   5   9
BRANCH   1  12
ATOM     12  C   UNL     1       8.566   9.326  18.323  0.00  0.00    +0.000 C 
BRANCH  12  13
ATOM     13  C   UNL     1       9.152  10.322  19.327  0.00  0.00    +0.000 C 
BRANCH  13  17
ATOM     14  C   UNL     1      10.684  13.878  17.386  0.00  0.00    +0.000 A 
ATOM     15  C   UNL     1      11.321  12.649  17.218  0.00  0.00    +0.000 A 
ATOM     16  C   UNL     1      10.819  11.496  17.829  0.00  0.00    +0.000 A 
ATOM     17  C   UNL     1       9.674  11.560  18.633  0.00  0.00    +0.000 A 
ATOM     18  C   UNL     1       9.056  12.803  18.824  0.00  0.00    +0.000 A 
ATOM     19  C   UNL     1       9.556  13.955  18.202  0.00  0.00    +0.000 A 
BRANCH  14  21
ATOM     20  C   UNL     1      10.639  16.195  16.914  0.00  0.00    +0.000 C 
ATOM     21  O   UNL     1      11.273  14.933  16.745  0.00  0.00    +0.000 OA
ENDBRANCH  14  21
ENDBRANCH  13  17
ENDBRANCH  12  13
ENDBRANCH   1  12
TORSDOF 5
ENDMDL
MODEL 2
REMARK VINA RESULT:      -6.9      6.197      8.030
REMARK  Name = 
REMARK  6 active torsions:
REMARK  status: ('A' for Active; 'I' for Inactive)
REMARK    1  A    between atoms: C_1  and  O_2
REMARK    2  A    between atoms: O_2  and  C_3
REMARK    3  A    between atoms: C_6  and  C_7
REMARK    4  A    between atoms: C_7  and  C_8
REMARK    5  A    between atoms: C_8  and  N_9
REMARK    6  A    between atoms: C_13  and  N_14
REMARK                            x       y       z     vdW  Elec       q    Type
REMARK                         _______ _______ _______ _____ _____    ______ ____
ROOT
ATOM      1  N   UNL     1       7.597   5.805  15.439  0.00  0.00    +0.000 N 
ATOM      2  C   UNL     1       7.022   4.969  14.464  0.00  0.00    +0.000 A 
ATOM      3  C   UNL     1       7.566   4.955  13.178  0.00  0.00    +0.000 A 
ATOM      4  C   UNL     1       6.986   4.155  12.187  0.00  0.00    +0.000 A 
ATOM      5  C   UNL     1       5.870   3.389  12.518  0.00  0.00    +0.000 A 
ATOM      6  C   UNL     1       5.382   3.452  13.808  0.00  0.00    +0.000 A 
ATOM      7  N   UNL     1       5.936   4.226  14.770  0.00  0.00    +0.000 NA
ATOM      8  H   UNL     1       8.590   5.594  15.510  0.00  0.00    +0.000 HD
ENDROOT
BRANCH   5   9
ATOM      9  N   UNL     1       5.211   2.536  11.540  0.00  0.00    +0.000 N 
ATOM     10  O   UNL     1       4.130   2.924  11.078  0.00  0.00    +0.000 OA
ATOM     11  O   UNL     1       5.771   1.477  11.229  0.00  0.00    +0.000 OA
ENDBRANCH   5   9
BRANCH   1  12
ATOM     12  C   UNL     1       6.915   5.707  16.739  0.00  0.00    +0.000 C 
BRANCH  12  13
ATOM     13  C   UNL     1       5.888   6.829  16.916  0.00  0.00    +0.000 C 
BRANCH  13  17
ATOM     14  C   UNL     1       2.711   5.674  19.623  0.00  0.00    +0.000 A 
ATOM     15  C   UNL     1       2.507   6.680  18.678  0.00  0.00    +0.000 A 
ATOM     16  C   UNL     1       3.524   7.044  17.792  0.00  0.00    +0.000 A 
ATOM     17  C   UNL     1       4.772   6.411  17.847  0.00  0.00    +0.000 A 
ATOM     18  C   UNL     1       4.982   5.422  18.818  0.00  0.00    +0.000 A 
ATOM     19  C   UNL     1       3.957   5.054  19.699  0.00  0.00    +0.000 A 
BRANCH  14  21
ATOM     20  C   UNL     1       1.051   4.129  20.293  0.00  0.00    +0.000 C 
ATOM     21  O   UNL     1       1.643   5.414  20.438  0.00  0.00    +0.000 OA
ENDBRANCH  14  21
ENDBRANCH  13  17
ENDBRANCH  12  13
ENDBRANCH   1  12
TORSDOF 5
ENDMDL
MODEL 3
REMARK VINA RESULT:      -6.9      0.273      1.303
REMARK  Name = 
REMARK  6 active torsions:
REMARK  status: ('A' for Active; 'I' for Inactive)
REMARK    1  A    between atoms: C_1  and  O_2
REMARK    2  A    between atoms: O_2  and  C_3
REMARK    3  A    between atoms: C_6  and  C_7
REMARK    4  A    between atoms: C_7  and  C_8
REMARK    5  A    between atoms: C_8  and  N_9
REMARK    6  A    between atoms: C_13  and  N_14
REMARK                            x       y       z     vdW  Elec       q    Type
REMARK                         _______ _______ _______ _____ _____    ______ ____
ROOT
ATOM      1  N   UNL     1       8.678   7.909  18.908  0.00  0.00    +0.000 N 
ATOM      2  C   UNL     1       7.811   7.032  18.230  0.00  0.00    +0.000 A 
ATOM      3  C   UNL     1       7.759   5.693  18.623  0.00  0.00    +0.000 A 
ATOM      4  C   UNL     1       6.928   4.800  17.938  0.00  0.00    +0.000 A 
ATOM      5  C   UNL     1       6.168   5.280  16.872  0.00  0.00    +0.000 A 
ATOM      6  C   UNL     1       6.270   6.615  16.535  0.00  0.00    +0.000 A 
ATOM      7  N   UNL     1       7.075   7.483  17.191  0.00  0.00    +0.000 NA
ATOM      8  H   UNL     1       8.472   7.872  19.903  0.00  0.00    +0.000 HD
ENDROOT
BRANCH   5   9
ATOM      9  N   UNL     1       5.285   4.410  16.111  0.00  0.00    +0.000 N 
ATOM     10  O   UNL     1       5.538   4.245  14.911  0.00  0.00    +0.000 OA
ATOM     11  O   UNL     1       4.335   3.887  16.710  0.00  0.00    +0.000 OA
ENDBRANCH   5   9
BRANCH   1  12
ATOM     12  C   UNL     1       8.618   9.281  18.380  0.00  0.00    +0.000 C 
BRANCH  12  13
ATOM     13  C   UNL     1       9.203  10.288  19.374  0.00  0.00    +0.000 C 
BRANCH  13  17
ATOM     14  C   UNL     1      10.713  13.775  17.296  0.00  0.00    +0.000 A 
ATOM     15  C   UNL     1       9.481  13.817  17.950  0.00  0.00    +0.000 A 
ATOM     16  C   UNL     1       8.999  12.699  18.635  0.00  0.00    +0.000 A 
ATOM     17  C   UNL     1       9.740  11.512  18.666  0.00  0.00    +0.000 A 
ATOM     18  C   UNL     1      10.963  11.465  17.982  0.00  0.00    +0.000 A 
ATOM     19  C   UNL     1      11.448  12.590  17.304  0.00  0.00    +0.000 A 
BRANCH  14  21
ATOM     20  C   UNL     1      11.439  16.017  17.495  0.00  0.00    +0.000 C 
ATOM     21  O   UNL     1      11.073  14.929  16.655  0.00  0.00    +0.000 OA
ENDBRANCH  14  21
ENDBRANCH  13  17
ENDBRANCH  12  13
ENDBRANCH   1  12
TORSDOF 5
ENDMDL
MODEL 4
REMARK VINA RESULT:      -6.8      2.137      2.643
REMARK  Name = 
REMARK  6 active torsions:
REMARK  status: ('A' for Active; 'I' for Inactive)
REMARK    1  A    between atoms: C_1  and  O_2
REMARK    2  A    between atoms: O_2  and  C_3
REMARK    3  A    between atoms: C_6  and  C_7
REMARK    4  A    between atoms: C_7  and  C_8
REMARK    5  A    between atoms: C_8  and  N_9
REMARK    6  A    between atoms: C_13  and  N_14
REMARK                            x       y       z     vdW  Elec       q    Type
REMARK                         _______ _______ _______ _____ _____    ______ ____
ROOT
ATOM      1  N   UNL     1       7.825   7.216  16.981  0.00  0.00    +0.000 N 
ATOM      2  C   UNL     1       6.960   6.171  17.356  0.00  0.00    +0.000 A 
ATOM      3  C   UNL     1       6.496   5.292  16.376  0.00  0.00    +0.000 A 
ATOM      4  C   UNL     1       5.609   4.268  16.726  0.00  0.00    +0.000 A 
ATOM      5  C   UNL     1       5.211   4.157  18.057  0.00  0.00    +0.000 A 
ATOM      6  C   UNL     1       5.707   5.062  18.974  0.00  0.00    +0.000 A 
ATOM      7  N   UNL     1       6.562   6.056  18.642  0.00  0.00    +0.000 NA
ATOM      8  H   UNL     1       8.626   6.822  16.494  0.00  0.00    +0.000 HD
ENDROOT
BRANCH   5   9
ATOM      9  N   UNL     1       4.289   3.120  18.495  0.00  0.00    +0.000 N 
ATOM     10  O   UNL     1       3.348   2.835  17.742  0.00  0.00    +0.000 OA
ATOM     11  O   UNL     1       4.500   2.586  19.592  0.00  0.00    +0.000 OA
ENDBRANCH   5   9
BRANCH   1  12
ATOM     12  C   UNL     1       8.227   8.053  18.122  0.00  0.00    +0.000 C 
BRANCH  12  13
ATOM     13  C   UNL     1       8.026   9.541  17.820  0.00  0.00    +0.000 C 
BRANCH  13  17
ATOM     14  C   UNL     1      11.248  11.888  19.515  0.00  0.00    +0.000 A 
ATOM     15  C   UNL     1      11.095  11.789  18.132  0.00  0.00    +0.000 A 
ATOM     16  C   UNL     1      10.046  11.046  17.582  0.00  0.00    +0.000 A 
ATOM     17  C   UNL     1       9.139  10.377  18.413  0.00  0.00    +0.000 A 
ATOM     18  C   UNL     1       9.315  10.455  19.801  0.00  0.00    +0.000 A 
ATOM     19  C   UNL     1      10.361  11.207  20.349  0.00  0.00    +0.000 A 
BRANCH  14  21
ATOM     20  C   UNL     1      12.329  13.991  19.499  0.00  0.00    +0.000 C 
ATOM     21  O   UNL     1      12.315  12.636  19.932  0.00  0.00    +0.000 OA
ENDBRANCH  14  21
ENDBRANCH  13  17
ENDBRANCH  12  13
ENDBRANCH   1  12
TORSDOF 5
ENDMDL
MODEL 5
REMARK VINA RESULT:      -6.8      6.357      7.957
REMARK  Name = 
REMARK  6 active torsions:
REMARK  status: ('A' for Active; 'I' for Inactive)
REMARK    1  A    between atoms: C_1  and  O_2
REMARK    2  A    between atoms: O_2  and  C_3
REMARK    3  A    between atoms: C_6  and  C_7
REMARK    4  A    between atoms: C_7  and  C_8
REMARK    5  A    between atoms: C_8  and  N_9
REMARK    6  A    between atoms: C_13  and  N_14
REMARK                            x       y       z     vdW  Elec       q    Type
REMARK                         _______ _______ _______ _____ _____    ______ ____
ROOT
ATOM      1  N   UNL     1       7.549   5.791  15.440  0.00  0.00    +0.000 N 
ATOM      2  C   UNL     1       6.965   4.962  14.463  0.00  0.00    +0.000 A 
ATOM      3  C   UNL     1       7.598   4.825  13.226  0.00  0.00    +0.000 A 
ATOM      4  C   UNL     1       7.015   4.031  12.233  0.00  0.00    +0.000 A 
ATOM      5  C   UNL     1       5.807   3.394  12.512  0.00  0.00    +0.000 A 
ATOM      6  C   UNL     1       5.235   3.575  13.756  0.00  0.00    +0.000 A 
ATOM      7  N   UNL     1       5.792   4.344  14.719  0.00  0.00    +0.000 NA
ATOM      8  H   UNL     1       8.507   5.491  15.597  0.00  0.00    +0.000 HD
ENDROOT
BRANCH   5   9
ATOM      9  N   UNL     1       5.140   2.556  11.527  0.00  0.00    +0.000 N 
ATOM     10  O   UNL     1       4.053   2.948  11.083  0.00  0.00    +0.000 OA
ATOM     11  O   UNL     1       5.699   1.503  11.192  0.00  0.00    +0.000 OA
ENDBRANCH   5   9
BRANCH   1  12
ATOM     12  C   UNL     1       6.767   5.831  16.685  0.00  0.00    +0.000 C 
BRANCH  12  13
ATOM     13  C   UNL     1       5.525   6.714  16.537  0.00  0.00    +0.000 C 
BRANCH  13  17
ATOM     14  C   UNL     1       2.655   5.954  19.691  0.00  0.00    +0.000 A 
ATOM     15  C   UNL     1       3.757   5.116  19.518  0.00  0.00    +0.000 A 
ATOM     16  C   UNL     1       4.694   5.368  18.512  0.00  0.00    +0.000 A 
ATOM     17  C   UNL     1       4.534   6.461  17.651  0.00  0.00    +0.000 A 
ATOM     18  C   UNL     1       3.409   7.282  17.810  0.00  0.00    +0.000 A 
ATOM     19  C   UNL     1       2.477   7.032  18.825  0.00  0.00    +0.000 A 
BRANCH  14  21
ATOM     20  C   UNL     1       1.420   4.231  20.738  0.00  0.00    +0.000 C 
ATOM     21  O   UNL     1       1.806   5.600  20.703  0.00  0.00    +0.000 OA
ENDBRANCH  14  21
ENDBRANCH  13  17
ENDBRANCH  12  13
ENDBRANCH   1  12
TORSDOF 5
ENDMDL
MODEL 6
REMARK VINA RESULT:      -6.7      6.532      8.505
REMARK  Name = 
REMARK  6 active torsions:
REMARK  status: ('A' for Active; 'I' for Inactive)
REMARK    1  A    between atoms: C_1  and  O_2
REMARK    2  A    between atoms: O_2  and  C_3
REMARK    3  A    between atoms: C_6  and  C_7
REMARK    4  A    between atoms: C_7  and  C_8
REMARK    5  A    between atoms: C_8  and  N_9
REMARK    6  A    between atoms: C_13  and  N_14
REMARK                            x       y       z     vdW  Elec       q    Type
REMARK                         _______ _______ _______ _____ _____    ______ ____
ROOT
ATOM      1  N   UNL     1       5.660   5.863  17.926  0.00  0.00    +0.000 N 
ATOM      2  C   UNL     1       4.756   5.125  18.712  0.00  0.00    +0.000 A 
ATOM      3  C   UNL     1       3.675   5.784  19.299  0.00  0.00    +0.000 A 
ATOM      4  C   UNL     1       2.785   5.072  20.111  0.00  0.00    +0.000 A 
ATOM      5  C   UNL     1       3.008   3.712  20.311  0.00  0.00    +0.000 A 
ATOM      6  C   UNL     1       4.099   3.123  19.703  0.00  0.00    +0.000 A 
ATOM      7  N   UNL     1       4.965   3.806  18.919  0.00  0.00    +0.000 NA
ATOM      8  H   UNL     1       5.143   6.348  17.197  0.00  0.00    +0.000 HD
ENDROOT
BRANCH   5   9
ATOM      9  N   UNL     1       2.128   2.908  21.146  0.00  0.00    +0.000 N 
ATOM     10  O   UNL     1       2.612   2.398  22.165  0.00  0.00    +0.000 OA
ATOM     11  O   UNL     1       0.949   2.782  20.787  0.00  0.00    +0.000 OA
ENDBRANCH   5   9
BRANCH   1  12
ATOM     12  C   UNL     1       6.741   5.029  17.378  0.00  0.00    +0.000 C 
BRANCH  12  13
ATOM     13  C   UNL     1       7.314   5.632  16.092  0.00  0.00    +0.000 C 
BRANCH  13  17
ATOM     14  C   UNL     1       5.862   3.515  12.603  0.00  0.00    +0.000 A 
ATOM     15  C   UNL     1       5.144   3.487  13.799  0.00  0.00    +0.000 A 
ATOM     16  C   UNL     1       5.602   4.182  14.922  0.00  0.00    +0.000 A 
ATOM     17  C   UNL     1       6.797   4.910  14.867  0.00  0.00    +0.000 A 
ATOM     18  C   UNL     1       7.530   4.910  13.673  0.00  0.00    +0.000 A 
ATOM     19  C   UNL     1       7.064   4.219  12.547  0.00  0.00    +0.000 A 
BRANCH  14  21
ATOM     20  C   UNL     1       4.023   3.196  11.150  0.00  0.00    +0.000 C 
ATOM     21  O   UNL     1       5.318   2.789  11.579  0.00  0.00    +0.000 OA
ENDBRANCH  14  21
ENDBRANCH  13  17
ENDBRANCH  12  13
ENDBRANCH   1  12
TORSDOF 5
ENDMDL
MODEL 7
REMARK VINA RESULT:      -6.7      6.306      8.096
REMARK  Name = 
REMARK  6 active torsions:
REMARK  status: ('A' for Active; 'I' for Inactive)
REMARK    1  A    between atoms: C_1  and  O_2
REMARK    2  A    between atoms: O_2  and  C_3
REMARK    3  A    between atoms: C_6  and  C_7
REMARK    4  A    between atoms: C_7  and  C_8
REMARK    5  A    between atoms: C_8  and  N_9
REMARK    6  A    between atoms: C_13  and  N_14
REMARK                            x       y       z     vdW  Elec       q    Type
REMARK                         _______ _______ _______ _____ _____    ______ ____
ROOT
ATOM      1  N   UNL     1       5.060   4.022  18.069  0.00  0.00    +0.000 N 
ATOM      2  C   UNL     1       5.739   4.268  16.861  0.00  0.00    +0.000 A 
ATOM      3  C   UNL     1       6.769   5.211  16.843  0.00  0.00    +0.000 A 
ATOM      4  C   UNL     1       7.432   5.491  15.643  0.00  0.00    +0.000 A 
ATOM      5  C   UNL     1       7.039   4.814  14.491  0.00  0.00    +0.000 A 
ATOM      6  C   UNL     1       6.012   3.896  14.579  0.00  0.00    +0.000 A 
ATOM      7  N   UNL     1       5.364   3.623  15.735  0.00  0.00    +0.000 NA
ATOM      8  H   UNL     1       5.739   3.774  18.784  0.00  0.00    +0.000 HD
ENDROOT
BRANCH   5   9
ATOM      9  N   UNL     1       7.680   5.056  13.207  0.00  0.00    +0.000 N 
ATOM     10  O   UNL     1       7.271   4.412  12.232  0.00  0.00    +0.000 OA
ATOM     11  O   UNL     1       8.593   5.892  13.166  0.00  0.00    +0.000 OA
ENDBRANCH   5   9
BRANCH   1  12
ATOM     12  C   UNL     1       4.007   3.005  17.927  0.00  0.00    +0.000 C 
BRANCH  12  13
ATOM     13  C   UNL     1       2.658   3.643  17.582  0.00  0.00    +0.000 C 
BRANCH  13  17
ATOM     14  C   UNL     1       1.971   7.159  20.018  0.00  0.00    +0.000 A 
ATOM     15  C   UNL     1       2.443   7.283  18.711  0.00  0.00    +0.000 A 
ATOM     16  C   UNL     1       2.650   6.152  17.916  0.00  0.00    +0.000 A 
ATOM     17  C   UNL     1       2.398   4.872  18.426  0.00  0.00    +0.000 A 
ATOM     18  C   UNL     1       1.954   4.751  19.750  0.00  0.00    +0.000 A 
ATOM     19  C   UNL     1       1.739   5.887  20.540  0.00  0.00    +0.000 A 
BRANCH  14  21
ATOM     20  C   UNL     1       0.740   8.381  21.624  0.00  0.00    +0.000 C 
ATOM     21  O   UNL     1       1.817   8.337  20.696  0.00  0.00    +0.000 OA
ENDBRANCH  14  21
ENDBRANCH  13  17
ENDBRANCH  12  13
ENDBRANCH   1  12
TORSDOF 5
ENDMDL
MODEL 8
REMARK VINA RESULT:      -6.7      5.982      7.247
REMARK  Name = 
REMARK  6 active torsions:
REMARK  status: ('A' for Active; 'I' for Inactive)
REMARK    1  A    between atoms: C_1  and  O_2
REMARK    2  A    between atoms: O_2  and  C_3
REMARK    3  A    between atoms: C_6  and  C_7
REMARK    4  A    between atoms: C_7  and  C_8
REMARK    5  A    between atoms: C_8  and  N_9
REMARK    6  A    between atoms: C_13  and  N_14
REMARK                            x       y       z     vdW  Elec       q    Type
REMARK                         _______ _______ _______ _____ _____    ______ ____
ROOT
ATOM      1  N   UNL     1       4.707   5.399  19.449  0.00  0.00    +0.000 N 
ATOM      2  C   UNL     1       5.301   5.242  18.183  0.00  0.00    +0.000 A 
ATOM      3  C   UNL     1       6.594   5.729  17.977  0.00  0.00    +0.000 A 
ATOM      4  C   UNL     1       7.187   5.611  16.716  0.00  0.00    +0.000 A 
ATOM      5  C   UNL     1       6.462   5.004  15.692  0.00  0.00    +0.000 A 
ATOM      6  C   UNL     1       5.188   4.546  15.964  0.00  0.00    +0.000 A 
ATOM      7  N   UNL     1       4.607   4.661  17.181  0.00  0.00    +0.000 NA
ATOM      8  H   UNL     1       5.320   4.998  20.154  0.00  0.00    +0.000 HD
ENDROOT
BRANCH   5   9
ATOM      9  N   UNL     1       7.012   4.849  14.354  0.00  0.00    +0.000 N 
ATOM     10  O   UNL     1       6.486   4.011  13.611  0.00  0.00    +0.000 OA
ATOM     11  O   UNL     1       7.972   5.566  14.039  0.00  0.00    +0.000 OA
ENDBRANCH   5   9
BRANCH   1  12
ATOM     12  C   UNL     1       3.350   4.834  19.508  0.00  0.00    +0.000 C 
BRANCH  12  13
ATOM     13  C   UNL     1       2.476   5.585  20.517  0.00  0.00    +0.000 C 
BRANCH  13  17
ATOM     14  C   UNL     1       1.282   9.455  18.982  0.00  0.00    +0.000 A 
ATOM     15  C   UNL     1       1.938   8.538  18.160  0.00  0.00    +0.000 A 
ATOM     16  C   UNL     1       2.310   7.283  18.648  0.00  0.00    +0.000 A 
ATOM     17  C   UNL     1       2.040   6.929  19.975  0.00  0.00    +0.000 A 
ATOM     18  C   UNL     1       1.408   7.865  20.806  0.00  0.00    +0.000 A 
ATOM     19  C   UNL     1       1.028   9.119  20.311  0.00  0.00    +0.000 A 
BRANCH  14  21
ATOM     20  C   UNL     1      -0.088  11.383  18.990  0.00  0.00    +0.000 C 
ATOM     21  O   UNL     1       0.977  10.651  18.393  0.00  0.00    +0.000 OA
ENDBRANCH  14  21
ENDBRANCH  13  17
ENDBRANCH  12  13
ENDBRANCH   1  12
TORSDOF 5
ENDMDL
MODEL 9
REMARK VINA RESULT:      -6.7      6.409      8.452
REMARK  Name = 
REMARK  6 active torsions:
REMARK  status: ('A' for Active; 'I' for Inactive)
REMARK    1  A    between atoms: C_1  and  O_2
REMARK    2  A    between atoms: O_2  and  C_3
REMARK    3  A    between atoms: C_6  and  C_7
REMARK    4  A    between atoms: C_7  and  C_8
REMARK    5  A    between atoms: C_8  and  N_9
REMARK    6  A    between atoms: C_13  and  N_14
REMARK                            x       y       z     vdW  Elec       q    Type
REMARK                         _______ _______ _______ _____ _____    ______ ____
ROOT
ATOM      1  N   UNL     1       7.575   5.687  15.699  0.00  0.00    +0.000 N 
ATOM      2  C   UNL     1       7.054   4.885  14.666  0.00  0.00    +0.000 A 
ATOM      3  C   UNL     1       7.486   5.103  13.357  0.00  0.00    +0.000 A 
ATOM      4  C   UNL     1       6.954   4.337  12.314  0.00  0.00    +0.000 A 
ATOM      5  C   UNL     1       5.998   3.370  12.618  0.00  0.00    +0.000 A 
ATOM      6  C   UNL     1       5.614   3.209  13.934  0.00  0.00    +0.000 A 
ATOM      7  N   UNL     1       6.122   3.948  14.947  0.00  0.00    +0.000 NA
ATOM      8  H   UNL     1       8.590   5.631  15.680  0.00  0.00    +0.000 HD
ENDROOT
BRANCH   5   9
ATOM      9  N   UNL     1       5.397   2.539  11.585  0.00  0.00    +0.000 N 
ATOM     10  O   UNL     1       4.293   2.883  11.143  0.00  0.00    +0.000 OA
ATOM     11  O   UNL     1       6.025   1.539  11.211  0.00  0.00    +0.000 OA
ENDBRANCH   5   9
BRANCH   1  12
ATOM     12  C   UNL     1       7.025   5.335  17.017  0.00  0.00    +0.000 C 
BRANCH  12  13
ATOM     13  C   UNL     1       5.976   6.353  17.474  0.00  0.00    +0.000 C 
BRANCH  13  17
ATOM     14  C   UNL     1       2.467   4.334  19.015  0.00  0.00    +0.000 A 
ATOM     15  C   UNL     1       3.361   4.964  19.882  0.00  0.00    +0.000 A 
ATOM     16  C   UNL     1       4.485   5.630  19.387  0.00  0.00    +0.000 A 
ATOM     17  C   UNL     1       4.739   5.666  18.010  0.00  0.00    +0.000 A 
ATOM     18  C   UNL     1       3.855   5.006  17.146  0.00  0.00    +0.000 A 
ATOM     19  C   UNL     1       2.724   4.347  17.645  0.00  0.00    +0.000 A 
BRANCH  14  21
ATOM     20  C   UNL     1       1.503   3.562  21.032  0.00  0.00    +0.000 C 
ATOM     21  O   UNL     1       1.411   3.710  19.619  0.00  0.00    +0.000 OA
ENDBRANCH  14  21
ENDBRANCH  13  17
ENDBRANCH  12  13
ENDBRANCH   1  12
TORSDOF 5
ENDMDL
