MODEL 1
REMARK VINA RESULT:      -8.3      0.000      0.000
REMARK  Name = 
REMARK  6 active torsions:
REMARK  status: ('A' for Active; 'I' for Inactive)
REMARK    1  A    between atoms: C_1  and  C_2
REMARK    2  A    between atoms: C_2  and  N_3
REMARK    3  A    between atoms: N_3  and  C_19
REMARK    4  A    between atoms: C_4  and  C_6
REMARK    5  A    between atoms: C_6  and  N_7
REMARK    6  A    between atoms: C_23  and  C_24
REMARK                            x       y       z     vdW  Elec       q    Type
REMARK                         _______ _______ _______ _____ _____    ______ ____
ROOT
ATOM      1  C   UNL     1       3.831   4.760  18.188  0.00  0.00    +0.000 C 
ENDROOT
BRANCH   1   2
ATOM      2  N   UNL     1       5.251   4.810  17.801  0.00  0.00    +0.000 N 
ATOM      3  C   UNL     1       6.228   5.077  18.751  0.00  0.00    +0.000 C 
ATOM      4  O   UNL     1       6.055   5.093  19.968  0.00  0.00    +0.000 OA
ATOM      5  C   UNL     1       7.637   5.309  18.232  0.00  0.00    +0.000 C 
ATOM      6  O   UNL     1       7.926   5.390  16.860  0.00  0.00    +0.000 OA
ATOM      7  C   UNL     1       6.949   4.916  16.038  0.00  0.00    +0.000 A 
ATOM      8  C   UNL     1       7.356   4.757  14.711  0.00  0.00    +0.000 A 
ATOM      9  C   UNL     1       6.460   4.295  13.759  0.00  0.00    +0.000 A 
ATOM     10 CL   UNL     1       6.972   4.080  12.132  0.00  0.00    +0.000 Cl
ATOM     11  C   UNL     1       5.150   4.004  14.124  0.00  0.00    +0.000 A 
ATOM     12  C   UNL     1       4.735   4.185  15.453  0.00  0.00    +0.000 A 
ATOM     13  C   UNL     1       5.634   4.641  16.433  0.00  0.00    +0.000 A 
ENDBRANCH   1   2
BRANCH   1  15
ATOM     14  N   UNL     1       2.435   6.277  19.631  0.00  0.00    +0.000 N 
ATOM     15  C   UNL     1       3.084   6.093  18.399  0.00  0.00    +0.000 C 
ATOM     16  O   UNL     1       3.147   6.939  17.497  0.00  0.00    +0.000 OA
BRANCH  14  17
ATOM     17  C   UNL     1       1.847   7.552  19.901  0.00  0.00    +0.000 A 
ATOM     18  C   UNL     1       1.767   8.527  18.896  0.00  0.00    +0.000 A 
ATOM     19  C   UNL     1       1.146   9.746  19.152  0.00  0.00    +0.000 A 
ATOM     20  C   UNL     1       0.630  10.026  20.414  0.00  0.00    +0.000 A 
ATOM     21  C   UNL     1       0.732   9.081  21.441  0.00  0.00    +0.000 A 
ATOM     22  C   UNL     1       0.232   9.380  22.822  0.00  0.00    +0.000 C 
ATOM     23  C   UNL     1       1.335   7.846  21.169  0.00  0.00    +0.000 A 
ENDBRANCH  14  17
BRANCH  14  25
ATOM     24  C   UNL     1       1.017   4.260  20.319  0.00  0.00    +0.000 C 
ATOM     25  C   UNL     1       2.153   5.225  20.625  0.00  0.00    +0.000 C 
ENDBRANCH  14  25
ENDBRANCH   1  15
TORSDOF 4
ENDMDL
MODEL 2
REMARK VINA RESULT:      -8.2      2.288      3.819
REMARK  Name = 
REMARK  6 active torsions:
REMARK  status: ('A' for Active; 'I' for Inactive)
REMARK    1  A    between atoms: C_1  and  C_2
REMARK    2  A    between atoms: C_2  and  N_3
REMARK    3  A    between atoms: N_3  and  C_19
REMARK    4  A    between atoms: C_4  and  C_6
REMARK    5  A    between atoms: C_6  and  N_7
REMARK    6  A    between atoms: C_23  and  C_24
REMARK                            x       y       z     vdW  Elec       q    Type
REMARK                         _______ _______ _______ _____ _____    ______ ____
ROOT
ATOM      1  C   UNL     1       2.932   7.448  19.393  0.00  0.00    +0.000 C 
ENDROOT
BRANCH   1   2
ATOM      2  N   UNL     1       2.901   6.031  18.994  0.00  0.00    +0.000 N 
ATOM      3  C   UNL     1       2.110   5.124  19.688  0.00  0.00    +0.000 C 
ATOM      4  O   UNL     1       1.250   5.416  20.517  0.00  0.00    +0.000 OA
ATOM      5  C   UNL     1       2.291   3.656  19.339  0.00  0.00    +0.000 C 
ATOM      6  O   UNL     1       3.298   3.213  18.466  0.00  0.00    +0.000 OA
ATOM      7  C   UNL     1       3.865   4.186  17.701  0.00  0.00    +0.000 A 
ATOM      8  C   UNL     1       4.661   3.696  16.663  0.00  0.00    +0.000 A 
ATOM      9  C   UNL     1       5.314   4.575  15.812  0.00  0.00    +0.000 A 
ATOM     10 CL   UNL     1       6.274   3.966  14.523  0.00  0.00    +0.000 Cl
ATOM     11  C   UNL     1       5.187   5.946  16.003  0.00  0.00    +0.000 A 
ATOM     12  C   UNL     1       4.405   6.439  17.060  0.00  0.00    +0.000 A 
ATOM     13  C   UNL     1       3.727   5.562  17.924  0.00  0.00    +0.000 A 
ENDBRANCH   1   2
BRANCH   1  15
ATOM     14  N   UNL     1       1.128   9.178  19.682  0.00  0.00    +0.000 N 
ATOM     15  C   UNL     1       1.882   8.401  18.787  0.00  0.00    +0.000 C 
ATOM     16  O   UNL     1       1.804   8.467  17.553  0.00  0.00    +0.000 OA
BRANCH  14  17
ATOM     17  C   UNL     1       0.243  10.162  19.143  0.00  0.00    +0.000 A 
ATOM     18  C   UNL     1       0.510  11.528  19.308  0.00  0.00    +0.000 A 
ATOM     19  C   UNL     1      -0.328  12.480  18.733  0.00  0.00    +0.000 A 
ATOM     20  C   UNL     1      -1.458  12.090  18.020  0.00  0.00    +0.000 A 
ATOM     21  C   UNL     1      -1.764  10.732  17.875  0.00  0.00    +0.000 A 
ATOM     22  C   UNL     1      -3.003  10.288  17.158  0.00  0.00    +0.000 C 
ATOM     23  C   UNL     1      -0.901   9.779  18.434  0.00  0.00    +0.000 A 
ENDBRANCH  14  17
BRANCH  14  25
ATOM     24  C   UNL     1      -0.326   8.597  21.707  0.00  0.00    +0.000 C 
ATOM     25  C   UNL     1       1.035   8.971  21.140  0.00  0.00    +0.000 C 
ENDBRANCH  14  25
ENDBRANCH   1  15
TORSDOF 4
ENDMDL
MODEL 3
REMARK VINA RESULT:      -8.0      2.236      3.760
REMARK  Name = 
REMARK  6 active torsions:
REMARK  status: ('A' for Active; 'I' for Inactive)
REMARK    1  A    between atoms: C_1  and  C_2
REMARK    2  A    between atoms: C_2  and  N_3
REMARK    3  A    between atoms: N_3  and  C_19
REMARK    4  A    between atoms: C_4  and  C_6
REMARK    5  A    between atoms: C_6  and  N_7
REMARK    6  A    between atoms: C_23  and  C_24
REMARK                            x       y       z     vdW  Elec       q    Type
REMARK                         _______ _______ _______ _____ _____    ______ ____
ROOT
ATOM      1  C   UNL     1       2.690   7.057  19.593  0.00  0.00    +0.000 C 
ENDROOT
BRANCH   1   2
ATOM      2  N   UNL     1       2.741   5.758  18.900  0.00  0.00    +0.000 N 
ATOM      3  C   UNL     1       1.929   4.711  19.314  0.00  0.00    +0.000 C 
ATOM      4  O   UNL     1       0.995   4.803  20.109  0.00  0.00    +0.000 OA
ATOM      5  C   UNL     1       2.189   3.355  18.679  0.00  0.00    +0.000 C 
ATOM      6  O   UNL     1       3.278   3.127  17.822  0.00  0.00    +0.000 OA
ATOM      7  C   UNL     1       3.871   4.251  17.335  0.00  0.00    +0.000 A 
ATOM      8  C   UNL     1       4.767   4.008  16.290  0.00  0.00    +0.000 A 
ATOM      9  C   UNL     1       5.455   5.060  15.705  0.00  0.00    +0.000 A 
ATOM     10 CL   UNL     1       6.538   4.759  14.404  0.00  0.00    +0.000 Cl
ATOM     11  C   UNL     1       5.265   6.357  16.171  0.00  0.00    +0.000 A 
ATOM     12  C   UNL     1       4.383   6.598  17.236  0.00  0.00    +0.000 A 
ATOM     13  C   UNL     1       3.668   5.544  17.831  0.00  0.00    +0.000 A 
ENDBRANCH   1   2
BRANCH   1  15
ATOM     14  N   UNL     1       1.223   9.081  19.877  0.00  0.00    +0.000 N 
ATOM     15  C   UNL     1       1.821   8.176  18.984  0.00  0.00    +0.000 C 
ATOM     16  O   UNL     1       1.747   8.244  17.750  0.00  0.00    +0.000 OA
BRANCH  14  17
ATOM     17  C   UNL     1       0.522  10.202  19.333  0.00  0.00    +0.000 A 
ATOM     18  C   UNL     1      -0.785  10.058  18.847  0.00  0.00    +0.000 A 
ATOM     19  C   UNL     1      -1.481  11.165  18.369  0.00  0.00    +0.000 A 
ATOM     20  C   UNL     1      -0.878  12.419  18.334  0.00  0.00    +0.000 A 
ATOM     21  C   UNL     1       0.439  12.578  18.780  0.00  0.00    +0.000 A 
ATOM     22  C   UNL     1       1.129  13.907  18.703  0.00  0.00    +0.000 C 
ATOM     23  C   UNL     1       1.124  11.464  19.285  0.00  0.00    +0.000 A 
ENDBRANCH  14  17
BRANCH  14  25
ATOM     24  C   UNL     1      -0.287   8.673  21.903  0.00  0.00    +0.000 C 
ATOM     25  C   UNL     1       1.106   8.906  21.336  0.00  0.00    +0.000 C 
ENDBRANCH  14  25
ENDBRANCH   1  15
TORSDOF 4
ENDMDL
MODEL 4
REMARK VINA RESULT:      -7.9      0.323      1.363
REMARK  Name = 
REMARK  6 active torsions:
REMARK  status: ('A' for Active; 'I' for Inactive)
REMARK    1  A    between atoms: C_1  and  C_2
REMARK    2  A    between atoms: C_2  and  N_3
REMARK    3  A    between atoms: N_3  and  C_19
REMARK    4  A    between atoms: C_4  and  C_6
REMARK    5  A    between atoms: C_6  and  N_7
REMARK    6  A    between atoms: C_23  and  C_24
REMARK                            x       y       z     vdW  Elec       q    Type
REMARK                         _______ _______ _______ _____ _____    ______ ____
ROOT
ATOM      1  C   UNL     1       3.823   4.695  18.142  0.00  0.00    +0.000 C 
ENDROOT
BRANCH   1   2
ATOM      2  N   UNL     1       5.245   4.769  17.767  0.00  0.00    +0.000 N 
ATOM      3  C   UNL     1       6.211   5.034  18.729  0.00  0.00    +0.000 C 
ATOM      4  O   UNL     1       6.028   5.027  19.945  0.00  0.00    +0.000 OA
ATOM      5  C   UNL     1       7.621   5.291  18.226  0.00  0.00    +0.000 C 
ATOM      6  O   UNL     1       7.920   5.397  16.858  0.00  0.00    +0.000 OA
ATOM      7  C   UNL     1       6.956   4.924  16.021  0.00  0.00    +0.000 A 
ATOM      8  C   UNL     1       7.376   4.792  14.694  0.00  0.00    +0.000 A 
ATOM      9  C   UNL     1       6.493   4.335  13.728  0.00  0.00    +0.000 A 
ATOM     10 CL   UNL     1       7.022   4.152  12.102  0.00  0.00    +0.000 Cl
ATOM     11  C   UNL     1       5.184   4.021  14.077  0.00  0.00    +0.000 A 
ATOM     12  C   UNL     1       4.756   4.176  15.405  0.00  0.00    +0.000 A 
ATOM     13  C   UNL     1       5.641   4.627  16.399  0.00  0.00    +0.000 A 
ENDBRANCH   1   2
BRANCH   1  15
ATOM     14  N   UNL     1       2.433   6.129  19.673  0.00  0.00    +0.000 N 
ATOM     15  C   UNL     1       3.073   6.012  18.428  0.00  0.00    +0.000 C 
ATOM     16  O   UNL     1       3.127   6.906  17.573  0.00  0.00    +0.000 OA
BRANCH  14  17
ATOM     17  C   UNL     1       1.844   7.386  20.014  0.00  0.00    +0.000 A 
ATOM     18  C   UNL     1       1.309   7.599  21.292  0.00  0.00    +0.000 A 
ATOM     19  C   UNL     1       0.786   8.843  21.635  0.00  0.00    +0.000 A 
ATOM     20  C   UNL     1       0.754   9.877  20.704  0.00  0.00    +0.000 A 
ATOM     21  C   UNL     1       1.249   9.675  19.411  0.00  0.00    +0.000 A 
ATOM     22  C   UNL     1       1.178  10.756  18.375  0.00  0.00    +0.000 C 
ATOM     23  C   UNL     1       1.799   8.428  19.082  0.00  0.00    +0.000 A 
ENDBRANCH  14  17
BRANCH  14  25
ATOM     24  C   UNL     1       0.981   4.116  20.299  0.00  0.00    +0.000 C 
ATOM     25  C   UNL     1       2.162   5.024  20.612  0.00  0.00    +0.000 C 
ENDBRANCH  14  25
ENDBRANCH   1  15
TORSDOF 4
ENDMDL
MODEL 5
REMARK VINA RESULT:      -7.5      3.337      7.778
REMARK  Name = 
REMARK  6 active torsions:
REMARK  status: ('A' for Active; 'I' for Inactive)
REMARK    1  A    between atoms: C_1  and  C_2
REMARK    2  A    between atoms: C_2  and  N_3
REMARK    3  A    between atoms: N_3  and  C_19
REMARK    4  A    between atoms: C_4  and  C_6
REMARK    5  A    between atoms: C_6  and  N_7
REMARK    6  A    between atoms: C_23  and  C_24
REMARK                            x       y       z     vdW  Elec       q    Type
REMARK                         _______ _______ _______ _____ _____    ______ ____
ROOT
ATOM      1  C   UNL     1       5.064   3.655  18.315  0.00  0.00    +0.000 C 
ENDROOT
BRANCH   1   2
ATOM      2  N   UNL     1       3.725   3.407  18.876  0.00  0.00    +0.000 N 
ATOM      3  C   UNL     1       3.169   2.135  18.825  0.00  0.00    +0.000 C 
ATOM      4  O   UNL     1       3.768   1.106  18.519  0.00  0.00    +0.000 OA
ATOM      5  C   UNL     1       1.712   2.012  19.241  0.00  0.00    +0.000 C 
ATOM      6  O   UNL     1       0.919   3.134  19.531  0.00  0.00    +0.000 OA
ATOM      7  C   UNL     1       1.611   4.287  19.746  0.00  0.00    +0.000 A 
ATOM      8  C   UNL     1       0.838   5.316  20.290  0.00  0.00    +0.000 A 
ATOM      9  C   UNL     1       1.409   6.553  20.549  0.00  0.00    +0.000 A 
ATOM     10 CL   UNL     1       0.458   7.808  21.239  0.00  0.00    +0.000 Cl
ATOM     11  C   UNL     1       2.749   6.773  20.253  0.00  0.00    +0.000 A 
ATOM     12  C   UNL     1       3.521   5.746  19.685  0.00  0.00    +0.000 A 
ATOM     13  C   UNL     1       2.961   4.483  19.428  0.00  0.00    +0.000 A 
ENDBRANCH   1   2
BRANCH   1  15
ATOM     14  N   UNL     1       6.462   4.217  16.300  0.00  0.00    +0.000 N 
ATOM     15  C   UNL     1       5.186   3.904  16.798  0.00  0.00    +0.000 C 
ATOM     16  O   UNL     1       4.171   3.758  16.105  0.00  0.00    +0.000 OA
BRANCH  14  17
ATOM     17  C   UNL     1       6.627   4.322  14.884  0.00  0.00    +0.000 A 
ATOM     18  C   UNL     1       7.577   5.198  14.340  0.00  0.00    +0.000 A 
ATOM     19  C   UNL     1       7.769   5.255  12.963  0.00  0.00    +0.000 A 
ATOM     20  C   UNL     1       6.998   4.473  12.107  0.00  0.00    +0.000 A 
ATOM     21  C   UNL     1       6.019   3.619  12.628  0.00  0.00    +0.000 A 
ATOM     22  C   UNL     1       5.139   2.807  11.725  0.00  0.00    +0.000 C 
ATOM     23  C   UNL     1       5.849   3.547  14.017  0.00  0.00    +0.000 A 
ENDBRANCH  14  17
BRANCH  14  25
ATOM     24  C   UNL     1       7.542   5.926  17.871  0.00  0.00    +0.000 C 
ATOM     25  C   UNL     1       7.632   4.612  17.107  0.00  0.00    +0.000 C 
ENDBRANCH  14  25
ENDBRANCH   1  15
TORSDOF 4
ENDMDL
MODEL 6
REMARK VINA RESULT:      -7.4      6.263     10.768
REMARK  Name = 
REMARK  6 active torsions:
REMARK  status: ('A' for Active; 'I' for Inactive)
REMARK    1  A    between atoms: C_1  and  C_2
REMARK    2  A    between atoms: C_2  and  N_3
REMARK    3  A    between atoms: N_3  and  C_19
REMARK    4  A    between atoms: C_4  and  C_6
REMARK    5  A    between atoms: C_6  and  N_7
REMARK    6  A    between atoms: C_23  and  C_24
REMARK                            x       y       z     vdW  Elec       q    Type
REMARK                         _______ _______ _______ _____ _____    ______ ____
ROOT
ATOM      1  C   UNL     1      -1.880  11.889  17.746  0.00  0.00    +0.000 C 
ENDROOT
BRANCH   1   2
ATOM      2  N   UNL     1      -3.298  11.833  18.137  0.00  0.00    +0.000 N 
ATOM      3  C   UNL     1      -4.268  11.481  17.207  0.00  0.00    +0.000 C 
ATOM      4  O   UNL     1      -4.051  11.008  16.093  0.00  0.00    +0.000 OA
ATOM      5  C   UNL     1      -5.716  11.643  17.639  0.00  0.00    +0.000 C 
ATOM      6  O   UNL     1      -6.071  12.246  18.857  0.00  0.00    +0.000 OA
ATOM      7  C   UNL     1      -5.057  12.359  19.759  0.00  0.00    +0.000 A 
ATOM      8  C   UNL     1      -5.481  12.709  21.044  0.00  0.00    +0.000 A 
ATOM      9  C   UNL     1      -4.554  12.873  22.062  0.00  0.00    +0.000 A 
ATOM     10 CL   UNL     1      -5.084  13.280  23.645  0.00  0.00    +0.000 Cl
ATOM     11  C   UNL     1      -3.199  12.705  21.799  0.00  0.00    +0.000 A 
ATOM     12  C   UNL     1      -2.771  12.377  20.502  0.00  0.00    +0.000 A 
ATOM     13  C   UNL     1      -3.698  12.194  19.462  0.00  0.00    +0.000 A 
ENDBRANCH   1   2
BRANCH   1  15
ATOM     14  N   UNL     1       0.118  10.799  18.819  0.00  0.00    +0.000 N 
ATOM     15  C   UNL     1      -1.004  10.642  17.990  0.00  0.00    +0.000 C 
ATOM     16  O   UNL     1      -1.372   9.571  17.490  0.00  0.00    +0.000 OA
BRANCH  14  17
ATOM     17  C   UNL     1       0.870   9.633  19.166  0.00  0.00    +0.000 A 
ATOM     18  C   UNL     1       0.763   9.072  20.446  0.00  0.00    +0.000 A 
ATOM     19  C   UNL     1       1.456   7.905  20.759  0.00  0.00    +0.000 A 
ATOM     20  C   UNL     1       2.289   7.304  19.821  0.00  0.00    +0.000 A 
ATOM     21  C   UNL     1       2.439   7.869  18.549  0.00  0.00    +0.000 A 
ATOM     22  C   UNL     1       3.372   7.271  17.539  0.00  0.00    +0.000 C 
ATOM     23  C   UNL     1       1.718   9.028  18.232  0.00  0.00    +0.000 A 
ENDBRANCH  14  17
BRANCH  14  25
ATOM     24  C   UNL     1       1.967  12.546  18.531  0.00  0.00    +0.000 C 
ATOM     25  C   UNL     1       0.705  12.083  19.246  0.00  0.00    +0.000 C 
ENDBRANCH  14  25
ENDBRANCH   1  15
TORSDOF 4
ENDMDL
MODEL 7
REMARK VINA RESULT:      -7.4      3.479      7.767
REMARK  Name = 
REMARK  6 active torsions:
REMARK  status: ('A' for Active; 'I' for Inactive)
REMARK    1  A    between atoms: C_1  and  C_2
REMARK    2  A    between atoms: C_2  and  N_3
REMARK    3  A    between atoms: N_3  and  C_19
REMARK    4  A    between atoms: C_4  and  C_6
REMARK    5  A    between atoms: C_6  and  N_7
REMARK    6  A    between atoms: C_23  and  C_24
REMARK                            x       y       z     vdW  Elec       q    Type
REMARK                         _______ _______ _______ _____ _____    ______ ____
ROOT
ATOM      1  C   UNL     1       1.699   7.902  18.353  0.00  0.00    +0.000 C 
ENDROOT
BRANCH   1   2
ATOM      2  N   UNL     1       1.519   8.715  19.567  0.00  0.00    +0.000 N 
ATOM      3  C   UNL     1       1.349   8.103  20.802  0.00  0.00    +0.000 C 
ATOM      4  O   UNL     1       1.527   6.909  21.037  0.00  0.00    +0.000 OA
ATOM      5  C   UNL     1       0.971   9.006  21.964  0.00  0.00    +0.000 C 
ATOM      6  O   UNL     1       0.668  10.366  21.786  0.00  0.00    +0.000 OA
ATOM      7  C   UNL     1       1.061  10.892  20.594  0.00  0.00    +0.000 A 
ATOM      8  C   UNL     1       0.996  12.287  20.542  0.00  0.00    +0.000 A 
ATOM      9  C   UNL     1       1.353  12.958  19.383  0.00  0.00    +0.000 A 
ATOM     10 CL   UNL     1       1.292  14.675  19.333  0.00  0.00    +0.000 Cl
ATOM     11  C   UNL     1       1.762  12.240  18.265  0.00  0.00    +0.000 A 
ATOM     12  C   UNL     1       1.805  10.837  18.308  0.00  0.00    +0.000 A 
ATOM     13  C   UNL     1       1.459  10.142  19.480  0.00  0.00    +0.000 A 
ENDBRANCH   1   2
BRANCH   1  15
ATOM     14  N   UNL     1       3.355   6.033  18.047  0.00  0.00    +0.000 N 
ATOM     15  C   UNL     1       3.120   7.417  18.002  0.00  0.00    +0.000 C 
ATOM     16  O   UNL     1       3.950   8.266  17.649  0.00  0.00    +0.000 OA
BRANCH  14  17
ATOM     17  C   UNL     1       4.624   5.549  17.600  0.00  0.00    +0.000 A 
ATOM     18  C   UNL     1       5.706   5.461  18.487  0.00  0.00    +0.000 A 
ATOM     19  C   UNL     1       6.923   4.938  18.058  0.00  0.00    +0.000 A 
ATOM     20  C   UNL     1       7.092   4.530  16.738  0.00  0.00    +0.000 A 
ATOM     21  C   UNL     1       6.036   4.644  15.827  0.00  0.00    +0.000 A 
ATOM     22  C   UNL     1       6.209   4.262  14.387  0.00  0.00    +0.000 C 
ATOM     23  C   UNL     1       4.806   5.147  16.272  0.00  0.00    +0.000 A 
ENDBRANCH  14  17
BRANCH  14  25
ATOM     24  C   UNL     1       1.578   4.217  17.739  0.00  0.00    +0.000 C 
ATOM     25  C   UNL     1       2.474   5.026  18.666  0.00  0.00    +0.000 C 
ENDBRANCH  14  25
ENDBRANCH   1  15
TORSDOF 4
ENDMDL
MODEL 8
REMARK VINA RESULT:      -7.3      4.904      8.862
REMARK  Name = 
REMARK  6 active torsions:
REMARK  status: ('A' for Active; 'I' for Inactive)
REMARK    1  A    between atoms: C_1  and  C_2
REMARK    2  A    between atoms: C_2  and  N_3
REMARK    3  A    between atoms: N_3  and  C_19
REMARK    4  A    between atoms: C_4  and  C_6
REMARK    5  A    between atoms: C_6  and  N_7
REMARK    6  A    between atoms: C_23  and  C_24
REMARK                            x       y       z     vdW  Elec       q    Type
REMARK                         _______ _______ _______ _____ _____    ______ ____
ROOT
ATOM      1  C   UNL     1       1.581   9.068  20.350  0.00  0.00    +0.000 C 
ENDROOT
BRANCH   1   2
ATOM      2  N   UNL     1       0.454   9.897  19.890  0.00  0.00    +0.000 N 
ATOM      3  C   UNL     1       0.198  10.041  18.533  0.00  0.00    +0.000 C 
ATOM      4  O   UNL     1       0.711   9.376  17.635  0.00  0.00    +0.000 OA
ATOM      5  C   UNL     1      -0.851  11.069  18.143  0.00  0.00    +0.000 C 
ATOM      6  O   UNL     1      -1.438  11.933  19.082  0.00  0.00    +0.000 OA
ATOM      7  C   UNL     1      -1.268  11.569  20.383  0.00  0.00    +0.000 A 
ATOM      8  C   UNL     1      -2.073  12.279  21.278  0.00  0.00    +0.000 A 
ATOM      9  C   UNL     1      -1.995  12.023  22.638  0.00  0.00    +0.000 A 
ATOM     10 CL   UNL     1      -3.003  12.883  23.732  0.00  0.00    +0.000 Cl
ATOM     11  C   UNL     1      -1.102  11.068  23.113  0.00  0.00    +0.000 A 
ATOM     12  C   UNL     1      -0.277  10.371  22.216  0.00  0.00    +0.000 A 
ATOM     13  C   UNL     1      -0.352  10.609  20.833  0.00  0.00    +0.000 A 
ENDBRANCH   1   2
BRANCH   1  15
ATOM     14  N   UNL     1       2.070   6.650  19.854  0.00  0.00    +0.000 N 
ATOM     15  C   UNL     1       1.326   7.570  20.612  0.00  0.00    +0.000 C 
ATOM     16  O   UNL     1       0.527   7.267  21.508  0.00  0.00    +0.000 OA
BRANCH  14  17
ATOM     17  C   UNL     1       1.949   5.261  20.168  0.00  0.00    +0.000 A 
ATOM     18  C   UNL     1       2.419   4.764  21.392  0.00  0.00    +0.000 A 
ATOM     19  C   UNL     1       2.248   3.420  21.713  0.00  0.00    +0.000 A 
ATOM     20  C   UNL     1       1.644   2.548  20.812  0.00  0.00    +0.000 A 
ATOM     21  C   UNL     1       1.201   3.016  19.570  0.00  0.00    +0.000 A 
ATOM     22  C   UNL     1       0.595   2.087  18.561  0.00  0.00    +0.000 C 
ATOM     23  C   UNL     1       1.351   4.375  19.264  0.00  0.00    +0.000 A 
ENDBRANCH  14  17
BRANCH  14  25
ATOM     24  C   UNL     1       4.189   6.252  18.475  0.00  0.00    +0.000 C 
ATOM     25  C   UNL     1       2.854   6.962  18.644  0.00  0.00    +0.000 C 
ENDBRANCH  14  25
ENDBRANCH   1  15
TORSDOF 4
ENDMDL
MODEL 9
REMARK VINA RESULT:      -7.2      2.898      7.241
REMARK  Name = 
REMARK  6 active torsions:
REMARK  status: ('A' for Active; 'I' for Inactive)
REMARK    1  A    between atoms: C_1  and  C_2
REMARK    2  A    between atoms: C_2  and  N_3
REMARK    3  A    between atoms: N_3  and  C_19
REMARK    4  A    between atoms: C_4  and  C_6
REMARK    5  A    between atoms: C_6  and  N_7
REMARK    6  A    between atoms: C_23  and  C_24
REMARK                            x       y       z     vdW  Elec       q    Type
REMARK                         _______ _______ _______ _____ _____    ______ ____
ROOT
ATOM      1  C   UNL     1       4.990   3.619  18.454  0.00  0.00    +0.000 C 
ENDROOT
BRANCH   1   2
ATOM      2  N   UNL     1       3.896   4.273  19.191  0.00  0.00    +0.000 N 
ATOM      3  C   UNL     1       3.240   3.602  20.215  0.00  0.00    +0.000 C 
ATOM      4  O   UNL     1       3.607   2.545  20.725  0.00  0.00    +0.000 OA
ATOM      5  C   UNL     1       1.999   4.271  20.783  0.00  0.00    +0.000 C 
ATOM      6  O   UNL     1       1.453   5.436  20.220  0.00  0.00    +0.000 OA
ATOM      7  C   UNL     1       2.279   6.106  19.370  0.00  0.00    +0.000 A 
ATOM      8  C   UNL     1       1.827   7.384  19.035  0.00  0.00    +0.000 A 
ATOM      9  C   UNL     1       2.562   8.176  18.165  0.00  0.00    +0.000 A 
ATOM     10 CL   UNL     1       2.013   9.757  17.774  0.00  0.00    +0.000 Cl
ATOM     11  C   UNL     1       3.743   7.690  17.615  0.00  0.00    +0.000 A 
ATOM     12  C   UNL     1       4.185   6.396  17.934  0.00  0.00    +0.000 A 
ATOM     13  C   UNL     1       3.459   5.585  18.823  0.00  0.00    +0.000 A 
ENDBRANCH   1   2
BRANCH   1  15
ATOM     14  N   UNL     1       6.390   4.188  16.442  0.00  0.00    +0.000 N 
ATOM     15  C   UNL     1       5.112   3.884  16.940  0.00  0.00    +0.000 C 
ATOM     16  O   UNL     1       4.093   3.759  16.247  0.00  0.00    +0.000 OA
BRANCH  14  17
ATOM     17  C   UNL     1       6.553   4.309  15.027  0.00  0.00    +0.000 A 
ATOM     18  C   UNL     1       7.547   5.140  14.493  0.00  0.00    +0.000 A 
ATOM     19  C   UNL     1       7.735   5.210  13.115  0.00  0.00    +0.000 A 
ATOM     20  C   UNL     1       6.917   4.487  12.251  0.00  0.00    +0.000 A 
ATOM     21  C   UNL     1       5.895   3.679  12.763  0.00  0.00    +0.000 A 
ATOM     22  C   UNL     1       4.967   2.932  11.853  0.00  0.00    +0.000 C 
ATOM     23  C   UNL     1       5.729   3.593  14.152  0.00  0.00    +0.000 A 
ENDBRANCH  14  17
BRANCH  14  25
ATOM     24  C   UNL     1       7.541   5.917  17.939  0.00  0.00    +0.000 C 
ATOM     25  C   UNL     1       7.566   4.559  17.251  0.00  0.00    +0.000 C 
ENDBRANCH  14  25
ENDBRANCH   1  15
TORSDOF 4
ENDMDL
