MODEL 1
REMARK VINA RESULT:      -6.6      0.000      0.000
REMARK  Name = 
REMARK  6 active torsions:
REMARK  status: ('A' for Active; 'I' for Inactive)
REMARK    1  A    between atoms: C_1  and  O_2
REMARK    2  A    between atoms: O_2  and  C_3
REMARK    3  A    between atoms: C_8  and  N_9
REMARK    4  A    between atoms: N_9  and  S_10
REMARK    5  A    between atoms: S_10  and  C_11
REMARK    6  A    between atoms: C_17  and  C_18
REMARK                            x       y       z     vdW  Elec       q    Type
REMARK                         _______ _______ _______ _____ _____    ______ ____
ROOT
ATOM      1  C   UNL     1       6.229   5.563  18.108  0.00  0.00    +0.000 A 
ATOM      2  C   UNL     1       5.579   6.153  19.194  0.00  0.00    +0.000 A 
ATOM      3  C   UNL     1       4.283   5.782  19.527  0.00  0.00    +0.000 A 
ATOM      4  C   UNL     1       3.568   4.884  18.732  0.00  0.00    +0.000 A 
ATOM      5  C   UNL     1       4.176   4.349  17.554  0.00  0.00    +0.000 A 
ATOM      6  C   UNL     1       5.545   4.640  17.282  0.00  0.00    +0.000 A 
ATOM      7  C   UNL     1       3.274   3.594  16.590  0.00  0.00    +0.000 C 
ATOM      8  C   UNL     1       2.111   2.869  17.262  0.00  0.00    +0.000 C 
ATOM      9  C   UNL     1       1.298   3.860  18.079  0.00  0.00    +0.000 C 
ATOM     10  C   UNL     1       2.161   4.491  19.177  0.00  0.00    +0.000 C 
ENDROOT
BRANCH  10  11
ATOM     11  C   UNL     1       2.308   3.546  20.346  0.00  0.00    +0.000 A 
ATOM     12  C   UNL     1       1.379   3.286  21.336  0.00  0.00    +0.000 A 
ATOM     13  N   UNL     1       1.902   2.260  22.073  0.00  0.00    +0.000 N 
ATOM     14  C   UNL     1       3.107   1.933  21.525  0.00  0.00    +0.000 A 
ATOM     15  N   UNL     1       3.386   2.696  20.495  0.00  0.00    +0.000 NA
ATOM     16  H   UNL     1       1.466   1.798  22.859  0.00  0.00    +0.000 HD
ENDBRANCH  10  11
BRANCH   1  18
ATOM     17  C   UNL     1       7.785   7.296  17.824  0.00  0.00    +0.000 C 
ATOM     18  O   UNL     1       7.554   5.874  17.871  0.00  0.00    +0.000 OA
ENDBRANCH   1  18
BRANCH   6  19
ATOM     19  N   UNL     1       6.245   4.044  16.163  0.00  0.00    +0.000 N 
ATOM     20  H   UNL     1       6.064   3.057  16.016  0.00  0.00    +0.000 HD
BRANCH  19  21
ATOM     21  S   UNL     1       6.486   4.812  14.678  0.00  0.00    +0.000 S 
ATOM     22  C   UNL     1       6.200   3.576  13.404  0.00  0.00    +0.000 C 
ATOM     23  O   UNL     1       5.550   5.879  14.522  0.00  0.00    +0.000 OA
ATOM     24  O   UNL     1       7.924   5.071  14.639  0.00  0.00    +0.000 OA
ENDBRANCH  19  21
ENDBRANCH   6  19
TORSDOF 4
ENDMDL
MODEL 2
REMARK VINA RESULT:      -6.5      2.138      3.144
REMARK  Name = 
REMARK  6 active torsions:
REMARK  status: ('A' for Active; 'I' for Inactive)
REMARK    1  A    between atoms: C_1  and  O_2
REMARK    2  A    between atoms: O_2  and  C_3
REMARK    3  A    between atoms: C_8  and  N_9
REMARK    4  A    between atoms: N_9  and  S_10
REMARK    5  A    between atoms: S_10  and  C_11
REMARK    6  A    between atoms: C_17  and  C_18
REMARK                            x       y       z     vdW  Elec       q    Type
REMARK                         _______ _______ _______ _____ _____    ______ ____
ROOT
ATOM      1  C   UNL     1       3.121   7.268  17.798  0.00  0.00    +0.000 A 
ATOM      2  C   UNL     1       1.852   6.926  18.267  0.00  0.00    +0.000 A 
ATOM      3  C   UNL     1       1.493   5.593  18.423  0.00  0.00    +0.000 A 
ATOM      4  C   UNL     1       2.355   4.568  18.028  0.00  0.00    +0.000 A 
ATOM      5  C   UNL     1       3.618   4.896  17.445  0.00  0.00    +0.000 A 
ATOM      6  C   UNL     1       4.030   6.261  17.396  0.00  0.00    +0.000 A 
ATOM      7  C   UNL     1       4.396   3.764  16.794  0.00  0.00    +0.000 C 
ATOM      8  C   UNL     1       4.169   2.399  17.439  0.00  0.00    +0.000 C 
ATOM      9  C   UNL     1       2.683   2.081  17.448  0.00  0.00    +0.000 C 
ATOM     10  C   UNL     1       1.912   3.126  18.262  0.00  0.00    +0.000 C 
ENDROOT
BRANCH  10  11
ATOM     11  C   UNL     1       2.046   2.850  19.742  0.00  0.00    +0.000 A 
ATOM     12  C   UNL     1       3.216   2.737  20.471  0.00  0.00    +0.000 A 
ATOM     13  N   UNL     1       2.827   2.641  21.779  0.00  0.00    +0.000 N 
ATOM     14  C   UNL     1       1.465   2.695  21.808  0.00  0.00    +0.000 A 
ATOM     15  N   UNL     1       0.965   2.807  20.600  0.00  0.00    +0.000 NA
ATOM     16  H   UNL     1       3.433   2.578  22.585  0.00  0.00    +0.000 HD
ENDBRANCH  10  11
BRANCH   1  18
ATOM     17  C   UNL     1       2.349   9.483  17.869  0.00  0.00    +0.000 C 
ATOM     18  O   UNL     1       3.484   8.600  17.759  0.00  0.00    +0.000 OA
ENDBRANCH   1  18
BRANCH   6  19
ATOM     19  N   UNL     1       5.340   6.645  16.915  0.00  0.00    +0.000 N 
ATOM     20  H   UNL     1       5.400   7.576  16.518  0.00  0.00    +0.000 HD
BRANCH  19  21
ATOM     21  S   UNL     1       6.787   6.262  17.699  0.00  0.00    +0.000 S 
ATOM     22  C   UNL     1       7.747   7.780  17.784  0.00  0.00    +0.000 C 
ATOM     23  O   UNL     1       6.518   5.796  19.022  0.00  0.00    +0.000 OA
ATOM     24  O   UNL     1       7.498   5.416  16.742  0.00  0.00    +0.000 OA
ENDBRANCH  19  21
ENDBRANCH   6  19
TORSDOF 4
ENDMDL
MODEL 3
REMARK VINA RESULT:      -6.3      3.355      6.254
REMARK  Name = 
REMARK  6 active torsions:
REMARK  status: ('A' for Active; 'I' for Inactive)
REMARK    1  A    between atoms: C_1  and  O_2
REMARK    2  A    between atoms: O_2  and  C_3
REMARK    3  A    between atoms: C_8  and  N_9
REMARK    4  A    between atoms: N_9  and  S_10
REMARK    5  A    between atoms: S_10  and  C_11
REMARK    6  A    between atoms: C_17  and  C_18
REMARK                            x       y       z     vdW  Elec       q    Type
REMARK                         _______ _______ _______ _____ _____    ______ ____
ROOT
ATOM      1  C   UNL     1       2.688   5.205  18.920  0.00  0.00    +0.000 A 
ATOM      2  C   UNL     1       2.623   5.998  17.773  0.00  0.00    +0.000 A 
ATOM      3  C   UNL     1       3.783   6.378  17.110  0.00  0.00    +0.000 A 
ATOM      4  C   UNL     1       5.041   6.056  17.626  0.00  0.00    +0.000 A 
ATOM      5  C   UNL     1       5.133   5.337  18.858  0.00  0.00    +0.000 A 
ATOM      6  C   UNL     1       3.941   4.848  19.471  0.00  0.00    +0.000 A 
ATOM      7  C   UNL     1       6.505   5.246  19.507  0.00  0.00    +0.000 C 
ATOM      8  C   UNL     1       7.665   5.240  18.514  0.00  0.00    +0.000 C 
ATOM      9  C   UNL     1       7.582   6.470  17.627  0.00  0.00    +0.000 C 
ATOM     10  C   UNL     1       6.274   6.473  16.828  0.00  0.00    +0.000 C 
ENDROOT
BRANCH  10  11
ATOM     11  C   UNL     1       6.375   5.542  15.641  0.00  0.00    +0.000 A 
ATOM     12  C   UNL     1       5.410   4.667  15.178  0.00  0.00    +0.000 A 
ATOM     13  N   UNL     1       5.902   4.163  14.005  0.00  0.00    +0.000 N 
ATOM     14  C   UNL     1       7.124   4.732  13.794  0.00  0.00    +0.000 A 
ATOM     15  N   UNL     1       7.442   5.554  14.766  0.00  0.00    +0.000 NA
ATOM     16  H   UNL     1       5.437   3.517  13.384  0.00  0.00    +0.000 HD
ENDBRANCH  10  11
BRANCH   1  18
ATOM     17  C   UNL     1       0.906   3.690  18.732  0.00  0.00    +0.000 C 
ATOM     18  O   UNL     1       1.514   4.756  19.491  0.00  0.00    +0.000 OA
ENDBRANCH   1  18
BRANCH   6  19
ATOM     19  N   UNL     1       3.978   4.024  20.661  0.00  0.00    +0.000 N 
ATOM     20  H   UNL     1       3.450   4.379  21.450  0.00  0.00    +0.000 HD
BRANCH  19  21
ATOM     21  S   UNL     1       3.924   2.336  20.646  0.00  0.00    +0.000 S 
ATOM     22  C   UNL     1       3.778   1.838  18.924  0.00  0.00    +0.000 C 
ATOM     23  O   UNL     1       5.131   1.803  21.193  0.00  0.00    +0.000 OA
ATOM     24  O   UNL     1       2.630   2.015  21.244  0.00  0.00    +0.000 OA
ENDBRANCH  19  21
ENDBRANCH   6  19
TORSDOF 4
ENDMDL
MODEL 4
REMARK VINA RESULT:      -6.2      2.177      3.040
REMARK  Name = 
REMARK  6 active torsions:
REMARK  status: ('A' for Active; 'I' for Inactive)
REMARK    1  A    between atoms: C_1  and  O_2
REMARK    2  A    between atoms: O_2  and  C_3
REMARK    3  A    between atoms: C_8  and  N_9
REMARK    4  A    between atoms: N_9  and  S_10
REMARK    5  A    between atoms: S_10  and  C_11
REMARK    6  A    between atoms: C_17  and  C_18
REMARK                            x       y       z     vdW  Elec       q    Type
REMARK                         _______ _______ _______ _____ _____    ______ ____
ROOT
ATOM      1  C   UNL     1       3.228   7.147  17.824  0.00  0.00    +0.000 A 
ATOM      2  C   UNL     1       1.935   6.866  18.268  0.00  0.00    +0.000 A 
ATOM      3  C   UNL     1       1.518   5.552  18.441  0.00  0.00    +0.000 A 
ATOM      4  C   UNL     1       2.347   4.485  18.086  0.00  0.00    +0.000 A 
ATOM      5  C   UNL     1       3.635   4.751  17.527  0.00  0.00    +0.000 A 
ATOM      6  C   UNL     1       4.104   6.096  17.462  0.00  0.00    +0.000 A 
ATOM      7  C   UNL     1       4.382   3.575  16.916  0.00  0.00    +0.000 C 
ATOM      8  C   UNL     1       4.084   2.234  17.581  0.00  0.00    +0.000 C 
ATOM      9  C   UNL     1       2.587   1.976  17.560  0.00  0.00    +0.000 C 
ATOM     10  C   UNL     1       1.840   3.067  18.336  0.00  0.00    +0.000 C 
ENDROOT
BRANCH  10  11
ATOM     11  C   UNL     1       1.929   2.815  19.824  0.00  0.00    +0.000 A 
ATOM     12  C   UNL     1       3.076   2.702  20.588  0.00  0.00    +0.000 A 
ATOM     13  N   UNL     1       2.650   2.633  21.886  0.00  0.00    +0.000 N 
ATOM     14  C   UNL     1       1.288   2.703  21.875  0.00  0.00    +0.000 A 
ATOM     15  N   UNL     1       0.824   2.800  20.651  0.00  0.00    +0.000 NA
ATOM     16  H   UNL     1       3.231   2.577  22.710  0.00  0.00    +0.000 HD
ENDBRANCH  10  11
BRANCH   1  18
ATOM     17  C   UNL     1       2.546   9.392  17.835  0.00  0.00    +0.000 C 
ATOM     18  O   UNL     1       3.646   8.462  17.767  0.00  0.00    +0.000 OA
ENDBRANCH   1  18
BRANCH   6  19
ATOM     19  N   UNL     1       5.439   6.418  17.005  0.00  0.00    +0.000 N 
ATOM     20  H   UNL     1       5.528   7.299  16.512  0.00  0.00    +0.000 HD
BRANCH  19  21
ATOM     21  S   UNL     1       6.844   6.114  17.894  0.00  0.00    +0.000 S 
ATOM     22  C   UNL     1       7.589   4.636  17.193  0.00  0.00    +0.000 C 
ATOM     23  O   UNL     1       7.750   7.210  17.766  0.00  0.00    +0.000 OA
ATOM     24  O   UNL     1       6.352   5.704  19.208  0.00  0.00    +0.000 OA
ENDBRANCH  19  21
ENDBRANCH   6  19
TORSDOF 4
ENDMDL
MODEL 5
REMARK VINA RESULT:      -6.1      5.809      7.144
REMARK  Name = 
REMARK  6 active torsions:
REMARK  status: ('A' for Active; 'I' for Inactive)
REMARK    1  A    between atoms: C_1  and  O_2
REMARK    2  A    between atoms: O_2  and  C_3
REMARK    3  A    between atoms: C_8  and  N_9
REMARK    4  A    between atoms: N_9  and  S_10
REMARK    5  A    between atoms: S_10  and  C_11
REMARK    6  A    between atoms: C_17  and  C_18
REMARK                            x       y       z     vdW  Elec       q    Type
REMARK                         _______ _______ _______ _____ _____    ______ ____
ROOT
ATOM      1  C   UNL     1       2.783   7.216  18.135  0.00  0.00    +0.000 A 
ATOM      2  C   UNL     1       2.257   8.232  17.335  0.00  0.00    +0.000 A 
ATOM      3  C   UNL     1       1.487   9.244  17.895  0.00  0.00    +0.000 A 
ATOM      4  C   UNL     1       1.144   9.217  19.249  0.00  0.00    +0.000 A 
ATOM      5  C   UNL     1       1.581   8.128  20.064  0.00  0.00    +0.000 A 
ATOM      6  C   UNL     1       2.468   7.156  19.513  0.00  0.00    +0.000 A 
ATOM      7  C   UNL     1       0.966   8.008  21.449  0.00  0.00    +0.000 C 
ATOM      8  C   UNL     1       0.580   9.344  22.078  0.00  0.00    +0.000 C 
ATOM      9  C   UNL     1      -0.359  10.094  21.147  0.00  0.00    +0.000 C 
ATOM     10  C   UNL     1       0.327  10.380  19.806  0.00  0.00    +0.000 C 
ENDROOT
BRANCH  10  11
ATOM     11  C   UNL     1       1.257  11.564  19.928  0.00  0.00    +0.000 A 
ATOM     12  C   UNL     1       1.902  12.234  18.905  0.00  0.00    +0.000 A 
ATOM     13  N   UNL     1       2.501  13.315  19.490  0.00  0.00    +0.000 N 
ATOM     14  C   UNL     1       2.213  13.273  20.822  0.00  0.00    +0.000 A 
ATOM     15  N   UNL     1       1.479  12.226  21.120  0.00  0.00    +0.000 NA
ATOM     16  H   UNL     1       3.030  14.037  19.023  0.00  0.00    +0.000 HD
ENDBRANCH  10  11
BRANCH   1  18
ATOM     17  C   UNL     1       4.870   6.877  17.119  0.00  0.00    +0.000 C 
ATOM     18  O   UNL     1       3.633   6.288  17.566  0.00  0.00    +0.000 OA
ENDBRANCH   1  18
BRANCH   6  19
ATOM     19  N   UNL     1       3.029   6.091  20.318  0.00  0.00    +0.000 N 
ATOM     20  H   UNL     1       3.337   6.365  21.244  0.00  0.00    +0.000 HD
BRANCH  19  21
ATOM     21  S   UNL     1       2.424   4.514  20.356  0.00  0.00    +0.000 S 
ATOM     22  C   UNL     1       3.659   3.467  19.576  0.00  0.00    +0.000 C 
ATOM     23  O   UNL     1       2.234   4.097  21.709  0.00  0.00    +0.000 OA
ATOM     24  O   UNL     1       1.302   4.540  19.420  0.00  0.00    +0.000 OA
ENDBRANCH  19  21
ENDBRANCH   6  19
TORSDOF 4
ENDMDL
MODEL 6
REMARK VINA RESULT:      -6.1      3.442      6.122
REMARK  Name = 
REMARK  6 active torsions:
REMARK  status: ('A' for Active; 'I' for Inactive)
REMARK    1  A    between atoms: C_1  and  O_2
REMARK    2  A    between atoms: O_2  and  C_3
REMARK    3  A    between atoms: C_8  and  N_9
REMARK    4  A    between atoms: N_9  and  S_10
REMARK    5  A    between atoms: S_10  and  C_11
REMARK    6  A    between atoms: C_17  and  C_18
REMARK                            x       y       z     vdW  Elec       q    Type
REMARK                         _______ _______ _______ _____ _____    ______ ____
ROOT
ATOM      1  C   UNL     1       2.984   7.250  17.993  0.00  0.00    +0.000 A 
ATOM      2  C   UNL     1       3.679   7.825  16.927  0.00  0.00    +0.000 A 
ATOM      3  C   UNL     1       4.957   7.391  16.601  0.00  0.00    +0.000 A 
ATOM      4  C   UNL     1       5.612   6.440  17.386  0.00  0.00    +0.000 A 
ATOM      5  C   UNL     1       4.962   5.916  18.546  0.00  0.00    +0.000 A 
ATOM      6  C   UNL     1       3.607   6.276  18.809  0.00  0.00    +0.000 A 
ATOM      7  C   UNL     1       5.810   5.095  19.505  0.00  0.00    +0.000 C 
ATOM      8  C   UNL     1       6.941   4.321  18.832  0.00  0.00    +0.000 C 
ATOM      9  C   UNL     1       7.816   5.282  18.044  0.00  0.00    +0.000 C 
ATOM     10  C   UNL     1       7.002   5.981  16.950  0.00  0.00    +0.000 C 
ENDROOT
BRANCH  10  11
ATOM     11  C   UNL     1       6.818   5.067  15.760  0.00  0.00    +0.000 A 
ATOM     12  C   UNL     1       6.005   3.952  15.676  0.00  0.00    +0.000 A 
ATOM     13  N   UNL     1       6.059   3.555  14.368  0.00  0.00    +0.000 N 
ATOM     14  C   UNL     1       6.885   4.417  13.709  0.00  0.00    +0.000 A 
ATOM     15  N   UNL     1       7.368   5.329  14.520  0.00  0.00    +0.000 NA
ATOM     16  H   UNL     1       5.553   2.786  13.950  0.00  0.00    +0.000 HD
ENDBRANCH  10  11
BRANCH   1  18
ATOM     17  C   UNL     1       1.458   9.032  17.980  0.00  0.00    +0.000 C 
ATOM     18  O   UNL     1       1.676   7.628  18.222  0.00  0.00    +0.000 OA
ENDBRANCH   1  18
BRANCH   6  19
ATOM     19  N   UNL     1       2.863   5.696  19.907  0.00  0.00    +0.000 N 
ATOM     20  H   UNL     1       2.291   6.347  20.433  0.00  0.00    +0.000 HD
BRANCH  19  21
ATOM     21  S   UNL     1       2.107   4.186  19.847  0.00  0.00    +0.000 S 
ATOM     22  C   UNL     1       1.661   3.899  18.129  0.00  0.00    +0.000 C 
ATOM     23  O   UNL     1       3.013   3.170  20.278  0.00  0.00    +0.000 OA
ATOM     24  O   UNL     1       0.837   4.395  20.539  0.00  0.00    +0.000 OA
ENDBRANCH  19  21
ENDBRANCH   6  19
TORSDOF 4
ENDMDL
MODEL 7
REMARK VINA RESULT:      -6.0      3.340      6.193
REMARK  Name = 
REMARK  6 active torsions:
REMARK  status: ('A' for Active; 'I' for Inactive)
REMARK    1  A    between atoms: C_1  and  O_2
REMARK    2  A    between atoms: O_2  and  C_3
REMARK    3  A    between atoms: C_8  and  N_9
REMARK    4  A    between atoms: N_9  and  S_10
REMARK    5  A    between atoms: S_10  and  C_11
REMARK    6  A    between atoms: C_17  and  C_18
REMARK                            x       y       z     vdW  Elec       q    Type
REMARK                         _______ _______ _______ _____ _____    ______ ____
ROOT
ATOM      1  C   UNL     1       2.794   6.827  18.765  0.00  0.00    +0.000 A 
ATOM      2  C   UNL     1       3.189   7.550  17.638  0.00  0.00    +0.000 A 
ATOM      3  C   UNL     1       4.431   7.329  17.057  0.00  0.00    +0.000 A 
ATOM      4  C   UNL     1       5.347   6.450  17.639  0.00  0.00    +0.000 A 
ATOM      5  C   UNL     1       5.005   5.779  18.853  0.00  0.00    +0.000 A 
ATOM      6  C   UNL     1       3.687   5.919  19.380  0.00  0.00    +0.000 A 
ATOM      7  C   UNL     1       6.123   5.048  19.580  0.00  0.00    +0.000 C 
ATOM      8  C   UNL     1       7.203   4.487  18.659  0.00  0.00    +0.000 C 
ATOM      9  C   UNL     1       7.774   5.605  17.802  0.00  0.00    +0.000 C 
ATOM     10  C   UNL     1       6.679   6.226  16.927  0.00  0.00    +0.000 C 
ENDROOT
BRANCH  10  11
ATOM     11  C   UNL     1       6.404   5.354  15.724  0.00  0.00    +0.000 A 
ATOM     12  C   UNL     1       5.249   4.647  15.447  0.00  0.00    +0.000 A 
ATOM     13  N   UNL     1       5.417   4.143  14.187  0.00  0.00    +0.000 N 
ATOM     14  C   UNL     1       6.642   4.547  13.743  0.00  0.00    +0.000 A 
ATOM     15  N   UNL     1       7.265   5.265  14.648  0.00  0.00    +0.000 NA
ATOM     16  H   UNL     1       4.748   3.601  13.659  0.00  0.00    +0.000 HD
ENDBRANCH  10  11
BRANCH   1  18
ATOM     17  C   UNL     1       1.417   8.081  20.193  0.00  0.00    +0.000 C 
ATOM     18  O   UNL     1       1.512   6.993  19.252  0.00  0.00    +0.000 OA
ENDBRANCH   1  18
BRANCH   6  19
ATOM     19  N   UNL     1       3.250   5.181  20.547  0.00  0.00    +0.000 N 
ATOM     20  H   UNL     1       2.752   5.726  21.242  0.00  0.00    +0.000 HD
BRANCH  19  21
ATOM     21  S   UNL     1       2.631   3.610  20.497  0.00  0.00    +0.000 S 
ATOM     22  C   UNL     1       0.993   3.722  19.765  0.00  0.00    +0.000 C 
ATOM     23  O   UNL     1       3.461   2.784  19.680  0.00  0.00    +0.000 OA
ATOM     24  O   UNL     1       2.398   3.274  21.901  0.00  0.00    +0.000 OA
ENDBRANCH  19  21
ENDBRANCH   6  19
TORSDOF 4
ENDMDL
MODEL 8
REMARK VINA RESULT:      -6.0      1.070      1.112
REMARK  Name = 
REMARK  6 active torsions:
REMARK  status: ('A' for Active; 'I' for Inactive)
REMARK    1  A    between atoms: C_1  and  O_2
REMARK    2  A    between atoms: O_2  and  C_3
REMARK    3  A    between atoms: C_8  and  N_9
REMARK    4  A    between atoms: N_9  and  S_10
REMARK    5  A    between atoms: S_10  and  C_11
REMARK    6  A    between atoms: C_17  and  C_18
REMARK                            x       y       z     vdW  Elec       q    Type
REMARK                         _______ _______ _______ _____ _____    ______ ____
ROOT
ATOM      1  C   UNL     1       5.147   6.372  17.714  0.00  0.00    +0.000 A 
ATOM      2  C   UNL     1       4.152   6.934  18.516  0.00  0.00    +0.000 A 
ATOM      3  C   UNL     1       3.023   6.201  18.859  0.00  0.00    +0.000 A 
ATOM      4  C   UNL     1       2.813   4.923  18.335  0.00  0.00    +0.000 A 
ATOM      5  C   UNL     1       3.766   4.370  17.425  0.00  0.00    +0.000 A 
ATOM      6  C   UNL     1       4.978   5.077  17.170  0.00  0.00    +0.000 A 
ATOM      7  C   UNL     1       3.365   3.105  16.684  0.00  0.00    +0.000 C 
ATOM      8  C   UNL     1       2.419   2.197  17.467  0.00  0.00    +0.000 C 
ATOM      9  C   UNL     1       1.185   2.981  17.879  0.00  0.00    +0.000 C 
ATOM     10  C   UNL     1       1.570   4.158  18.782  0.00  0.00    +0.000 C 
ENDROOT
BRANCH  10  11
ATOM     11  C   UNL     1       1.820   3.683  20.195  0.00  0.00    +0.000 A 
ATOM     12  C   UNL     1       2.419   4.387  21.223  0.00  0.00    +0.000 A 
ATOM     13  N   UNL     1       2.280   3.605  22.336  0.00  0.00    +0.000 N 
ATOM     14  C   UNL     1       1.619   2.472  21.963  0.00  0.00    +0.000 A 
ATOM     15  N   UNL     1       1.340   2.483  20.680  0.00  0.00    +0.000 NA
ATOM     16  H   UNL     1       2.578   3.832  23.274  0.00  0.00    +0.000 HD
ENDBRANCH  10  11
BRANCH   1  18
ATOM     17  C   UNL     1       7.417   6.601  18.259  0.00  0.00    +0.000 C 
ATOM     18  O   UNL     1       6.304   7.088  17.482  0.00  0.00    +0.000 OA
ENDBRANCH   1  18
BRANCH   6  19
ATOM     19  N   UNL     1       6.027   4.519  16.342  0.00  0.00    +0.000 N 
ATOM     20  H   UNL     1       6.129   3.512  16.392  0.00  0.00    +0.000 HD
BRANCH  19  21
ATOM     21  S   UNL     1       6.390   5.056  14.782  0.00  0.00    +0.000 S 
ATOM     22  C   UNL     1       6.168   3.649  13.686  0.00  0.00    +0.000 C 
ATOM     23  O   UNL     1       5.490   6.099  14.403  0.00  0.00    +0.000 OA
ATOM     24  O   UNL     1       7.832   5.291  14.811  0.00  0.00    +0.000 OA
ENDBRANCH  19  21
ENDBRANCH   6  19
TORSDOF 4
ENDMDL
MODEL 9
REMARK VINA RESULT:      -6.0      3.284      6.279
REMARK  Name = 
REMARK  6 active torsions:
REMARK  status: ('A' for Active; 'I' for Inactive)
REMARK    1  A    between atoms: C_1  and  O_2
REMARK    2  A    between atoms: O_2  and  C_3
REMARK    3  A    between atoms: C_8  and  N_9
REMARK    4  A    between atoms: N_9  and  S_10
REMARK    5  A    between atoms: S_10  and  C_11
REMARK    6  A    between atoms: C_17  and  C_18
REMARK                            x       y       z     vdW  Elec       q    Type
REMARK                         _______ _______ _______ _____ _____    ______ ____
ROOT
ATOM      1  C   UNL     1       2.754   5.475  18.876  0.00  0.00    +0.000 A 
ATOM      2  C   UNL     1       2.748   6.286  17.740  0.00  0.00    +0.000 A 
ATOM      3  C   UNL     1       3.931   6.577  17.074  0.00  0.00    +0.000 A 
ATOM      4  C   UNL     1       5.160   6.145  17.575  0.00  0.00    +0.000 A 
ATOM      5  C   UNL     1       5.201   5.404  18.797  0.00  0.00    +0.000 A 
ATOM      6  C   UNL     1       3.977   5.007  19.413  0.00  0.00    +0.000 A 
ATOM      7  C   UNL     1       6.565   5.190  19.434  0.00  0.00    +0.000 C 
ATOM      8  C   UNL     1       7.714   5.101  18.432  0.00  0.00    +0.000 C 
ATOM      9  C   UNL     1       7.728   6.346  17.561  0.00  0.00    +0.000 C 
ATOM     10  C   UNL     1       6.419   6.468  16.773  0.00  0.00    +0.000 C 
ENDROOT
BRANCH  10  11
ATOM     11  C   UNL     1       6.434   5.549  15.573  0.00  0.00    +0.000 A 
ATOM     12  C   UNL     1       5.418   4.716  15.143  0.00  0.00    +0.000 A 
ATOM     13  N   UNL     1       5.840   4.209  13.944  0.00  0.00    +0.000 N 
ATOM     14  C   UNL     1       7.072   4.733  13.687  0.00  0.00    +0.000 A 
ATOM     15  N   UNL     1       7.462   5.532  14.652  0.00  0.00    +0.000 NA
ATOM     16  H   UNL     1       5.325   3.587  13.337  0.00  0.00    +0.000 HD
ENDBRANCH  10  11
BRANCH   1  18
ATOM     17  C   UNL     1       1.280   5.847  20.664  0.00  0.00    +0.000 C 
ATOM     18  O   UNL     1       1.550   5.117  19.450  0.00  0.00    +0.000 OA
ENDBRANCH   1  18
BRANCH   6  19
ATOM     19  N   UNL     1       3.953   4.167  20.591  0.00  0.00    +0.000 N 
ATOM     20  H   UNL     1       3.557   4.595  21.421  0.00  0.00    +0.000 HD
BRANCH  19  21
ATOM     21  S   UNL     1       3.595   2.516  20.570  0.00  0.00    +0.000 S 
ATOM     22  C   UNL     1       2.189   2.277  21.665  0.00  0.00    +0.000 C 
ATOM     23  O   UNL     1       3.240   2.110  19.248  0.00  0.00    +0.000 OA
ATOM     24  O   UNL     1       4.724   1.897  21.262  0.00  0.00    +0.000 OA
ENDBRANCH  19  21
ENDBRANCH   6  19
TORSDOF 4
ENDMDL
