MODEL 1
REMARK VINA RESULT:      -8.0      0.000      0.000
REMARK  Name = 
REMARK  2 active torsions:
REMARK  status: ('A' for Active; 'I' for Inactive)
REMARK    1  A    between atoms: C_6  and  C_7
REMARK    2  A    between atoms: N_19  and  O_20
REMARK                            x       y       z     vdW  Elec       q    Type
REMARK                         _______ _______ _______ _____ _____    ______ ____
ROOT
ATOM      1  O   UNL     1       0.289   9.592  23.824  0.00  0.00    +0.000 OA
ATOM      2  C   UNL     1       0.353   9.641  22.595  0.00  0.00    +0.000 A 
ATOM      3  N   UNL     1       1.113   8.710  21.926  0.00  0.00    +0.000 N 
ATOM      4  C   UNL     1       1.289   8.710  20.540  0.00  0.00    +0.000 A 
ATOM      5  C   UNL     1       2.095   7.738  19.942  0.00  0.00    +0.000 A 
ATOM      6  C   UNL     1       2.312   7.731  18.548  0.00  0.00    +0.000 A 
ATOM      7  C   UNL     1       1.693   8.743  17.785  0.00  0.00    +0.000 A 
ATOM      8  C   UNL     1       0.884   9.714  18.380  0.00  0.00    +0.000 A 
ATOM      9  C   UNL     1       0.680   9.688  19.758  0.00  0.00    +0.000 A 
ATOM     10  C   UNL     1      -0.170  10.697  20.419  0.00  0.00    +0.000 A 
ATOM     11  O   UNL     1      -0.726  11.585  19.780  0.00  0.00    +0.000 OA
ATOM     12  N   UNL     1      -0.275  10.573  21.792  0.00  0.00    +0.000 N 
ATOM     13  H   UNL     1       1.570   8.022  22.513  0.00  0.00    +0.000 HD
ENDROOT
BRANCH   6  14
ATOM     14  C   UNL     1       3.175   6.708  17.914  0.00  0.00    +0.000 A 
ATOM     15  C   UNL     1       4.341   7.067  17.212  0.00  0.00    +0.000 A 
ATOM     16  C   UNL     1       5.131   6.105  16.571  0.00  0.00    +0.000 A 
ATOM     17  C   UNL     1       4.778   4.763  16.637  0.00  0.00    +0.000 A 
ATOM     18 CL   UNL     1       5.731   3.582  15.830  0.00  0.00    +0.000 Cl
ATOM     19  C   UNL     1       3.648   4.373  17.348  0.00  0.00    +0.000 A 
ATOM     20  C   UNL     1       2.854   5.339  17.976  0.00  0.00    +0.000 A 
ENDBRANCH   6  14
BRANCH  12  21
ATOM     21  O   UNL     1      -1.056  11.560  22.432  0.00  0.00    +0.000 OA
ATOM     22  H   UNL     1      -0.371  12.109  22.863  0.00  0.00    +0.000 HD
ENDBRANCH  12  21
TORSDOF 2
ENDMDL
MODEL 2
REMARK VINA RESULT:      -8.0      0.117      1.083
REMARK  Name = 
REMARK  2 active torsions:
REMARK  status: ('A' for Active; 'I' for Inactive)
REMARK    1  A    between atoms: C_6  and  C_7
REMARK    2  A    between atoms: N_19  and  O_20
REMARK                            x       y       z     vdW  Elec       q    Type
REMARK                         _______ _______ _______ _____ _____    ______ ____
ROOT
ATOM      1  O   UNL     1       0.457   9.486  23.878  0.00  0.00    +0.000 OA
ATOM      2  C   UNL     1       0.493   9.559  22.649  0.00  0.00    +0.000 A 
ATOM      3  N   UNL     1       1.226   8.633  21.944  0.00  0.00    +0.000 N 
ATOM      4  C   UNL     1       1.368   8.658  20.554  0.00  0.00    +0.000 A 
ATOM      5  C   UNL     1       2.149   7.690  19.918  0.00  0.00    +0.000 A 
ATOM      6  C   UNL     1       2.331   7.707  18.519  0.00  0.00    +0.000 A 
ATOM      7  C   UNL     1       1.705   8.740  17.791  0.00  0.00    +0.000 A 
ATOM      8  C   UNL     1       0.920   9.708  18.424  0.00  0.00    +0.000 A 
ATOM      9  C   UNL     1       0.750   9.657  19.806  0.00  0.00    +0.000 A 
ATOM     10  C   UNL     1      -0.072  10.661  20.507  0.00  0.00    +0.000 A 
ATOM     11  O   UNL     1      -0.635  11.567  19.899  0.00  0.00    +0.000 OA
ATOM     12  N   UNL     1      -0.145  10.512  21.879  0.00  0.00    +0.000 N 
ATOM     13  H   UNL     1       1.690   7.929  22.506  0.00  0.00    +0.000 HD
ENDROOT
BRANCH   6  14
ATOM     14  C   UNL     1       3.168   6.689  17.845  0.00  0.00    +0.000 A 
ATOM     15  C   UNL     1       2.849   5.319  17.907  0.00  0.00    +0.000 A 
ATOM     16  C   UNL     1       3.667   4.352  17.311  0.00  0.00    +0.000 A 
ATOM     17  C   UNL     1       4.812   4.740  16.625  0.00  0.00    +0.000 A 
ATOM     18 CL   UNL     1       5.832   3.553  15.915  0.00  0.00    +0.000 Cl
ATOM     19  C   UNL     1       5.138   6.087  16.520  0.00  0.00    +0.000 A 
ATOM     20  C   UNL     1       4.325   7.050  17.128  0.00  0.00    +0.000 A 
ENDBRANCH   6  14
BRANCH  12  21
ATOM     21  O   UNL     1      -0.901  11.494  22.557  0.00  0.00    +0.000 OA
ATOM     22  H   UNL     1      -0.202  12.107  22.863  0.00  0.00    +0.000 HD
ENDBRANCH  12  21
TORSDOF 2
ENDMDL
MODEL 3
REMARK VINA RESULT:      -7.8      5.126      7.238
REMARK  Name = 
REMARK  2 active torsions:
REMARK  status: ('A' for Active; 'I' for Inactive)
REMARK    1  A    between atoms: C_6  and  C_7
REMARK    2  A    between atoms: N_19  and  O_20
REMARK                            x       y       z     vdW  Elec       q    Type
REMARK                         _______ _______ _______ _____ _____    ______ ____
ROOT
ATOM      1  O   UNL     1       4.576   2.852  19.622  0.00  0.00    +0.000 OA
ATOM      2  C   UNL     1       4.296   3.954  19.149  0.00  0.00    +0.000 A 
ATOM      3  N   UNL     1       3.499   4.811  19.871  0.00  0.00    +0.000 N 
ATOM      4  C   UNL     1       3.087   6.061  19.403  0.00  0.00    +0.000 A 
ATOM      5  C   UNL     1       2.258   6.861  20.194  0.00  0.00    +0.000 A 
ATOM      6  C   UNL     1       1.805   8.116  19.734  0.00  0.00    +0.000 A 
ATOM      7  C   UNL     1       2.212   8.526  18.448  0.00  0.00    +0.000 A 
ATOM      8  C   UNL     1       3.043   7.729  17.656  0.00  0.00    +0.000 A 
ATOM      9  C   UNL     1       3.483   6.500  18.142  0.00  0.00    +0.000 A 
ATOM     10  C   UNL     1       4.362   5.635  17.334  0.00  0.00    +0.000 A 
ATOM     11  O   UNL     1       4.737   5.969  16.214  0.00  0.00    +0.000 OA
ATOM     12  N   UNL     1       4.711   4.433  17.921  0.00  0.00    +0.000 N 
ATOM     13  H   UNL     1       3.198   4.464  20.775  0.00  0.00    +0.000 HD
ENDROOT
BRANCH   6  14
ATOM     14  C   UNL     1       0.917   8.959  20.567  0.00  0.00    +0.000 A 
ATOM     15  C   UNL     1       0.167  10.010  20.006  0.00  0.00    +0.000 A 
ATOM     16  C   UNL     1      -0.635  10.838  20.801  0.00  0.00    +0.000 A 
ATOM     17  C   UNL     1      -0.714  10.618  22.171  0.00  0.00    +0.000 A 
ATOM     18 CL   UNL     1      -1.676  11.650  23.152  0.00  0.00    +0.000 Cl
ATOM     19  C   UNL     1      -0.008   9.570  22.750  0.00  0.00    +0.000 A 
ATOM     20  C   UNL     1       0.803   8.753  21.955  0.00  0.00    +0.000 A 
ENDBRANCH   6  14
BRANCH  12  21
ATOM     21  O   UNL     1       5.522   3.585  17.134  0.00  0.00    +0.000 OA
ATOM     22  H   UNL     1       6.046   3.121  17.817  0.00  0.00    +0.000 HD
ENDBRANCH  12  21
TORSDOF 2
ENDMDL
MODEL 4
REMARK VINA RESULT:      -7.8      5.106      7.291
REMARK  Name = 
REMARK  2 active torsions:
REMARK  status: ('A' for Active; 'I' for Inactive)
REMARK    1  A    between atoms: C_6  and  C_7
REMARK    2  A    between atoms: N_19  and  O_20
REMARK                            x       y       z     vdW  Elec       q    Type
REMARK                         _______ _______ _______ _____ _____    ______ ____
ROOT
ATOM      1  O   UNL     1       3.636   2.412  19.998  0.00  0.00    +0.000 OA
ATOM      2  C   UNL     1       3.547   3.541  19.516  0.00  0.00    +0.000 A 
ATOM      3  N   UNL     1       2.841   4.506  20.195  0.00  0.00    +0.000 N 
ATOM      4  C   UNL     1       2.642   5.802  19.711  0.00  0.00    +0.000 A 
ATOM      5  C   UNL     1       1.894   6.715  20.457  0.00  0.00    +0.000 A 
ATOM      6  C   UNL     1       1.655   8.021  19.979  0.00  0.00    +0.000 A 
ATOM      7  C   UNL     1       2.191   8.365  18.721  0.00  0.00    +0.000 A 
ATOM      8  C   UNL     1       2.943   7.454  17.974  0.00  0.00    +0.000 A 
ATOM      9  C   UNL     1       3.171   6.175  18.478  0.00  0.00    +0.000 A 
ATOM     10  C   UNL     1       3.961   5.190  17.718  0.00  0.00    +0.000 A 
ATOM     11  O   UNL     1       4.446   5.463  16.623  0.00  0.00    +0.000 OA
ATOM     12  N   UNL     1       4.097   3.952  18.317  0.00  0.00    +0.000 N 
ATOM     13  H   UNL     1       2.441   4.209  21.078  0.00  0.00    +0.000 HD
ENDROOT
BRANCH   6  14
ATOM     14  C   UNL     1       0.852   8.987  20.764  0.00  0.00    +0.000 A 
ATOM     15  C   UNL     1       0.730   8.875  22.162  0.00  0.00    +0.000 A 
ATOM     16  C   UNL     1      -0.068   9.759  22.897  0.00  0.00    +0.000 A 
ATOM     17  C   UNL     1      -0.747  10.783  22.248  0.00  0.00    +0.000 A 
ATOM     18 CL   UNL     1      -1.749  11.853  23.145  0.00  0.00    +0.000 Cl
ATOM     19  C   UNL     1      -0.624  10.938  20.872  0.00  0.00    +0.000 A 
ATOM     20  C   UNL     1       0.164  10.045  20.138  0.00  0.00    +0.000 A 
ENDBRANCH   6  14
BRANCH  12  21
ATOM     21  O   UNL     1       4.822   2.993  17.574  0.00  0.00    +0.000 OA
ATOM     22  H   UNL     1       5.102   3.515  16.795  0.00  0.00    +0.000 HD
ENDBRANCH  12  21
TORSDOF 2
ENDMDL
MODEL 5
REMARK VINA RESULT:      -7.7      5.454      7.598
REMARK  Name = 
REMARK  2 active torsions:
REMARK  status: ('A' for Active; 'I' for Inactive)
REMARK    1  A    between atoms: C_6  and  C_7
REMARK    2  A    between atoms: N_19  and  O_20
REMARK                            x       y       z     vdW  Elec       q    Type
REMARK                         _______ _______ _______ _____ _____    ______ ____
ROOT
ATOM      1  O   UNL     1       7.427   6.170  15.809  0.00  0.00    +0.000 OA
ATOM      2  C   UNL     1       6.562   5.942  16.655  0.00  0.00    +0.000 A 
ATOM      3  N   UNL     1       5.526   6.833  16.811  0.00  0.00    +0.000 N 
ATOM      4  C   UNL     1       4.523   6.689  17.773  0.00  0.00    +0.000 A 
ATOM      5  C   UNL     1       3.517   7.653  17.877  0.00  0.00    +0.000 A 
ATOM      6  C   UNL     1       2.507   7.547  18.857  0.00  0.00    +0.000 A 
ATOM      7  C   UNL     1       2.558   6.441  19.729  0.00  0.00    +0.000 A 
ATOM      8  C   UNL     1       3.561   5.473  19.626  0.00  0.00    +0.000 A 
ATOM      9  C   UNL     1       4.538   5.600  18.640  0.00  0.00    +0.000 A 
ATOM     10  C   UNL     1       5.610   4.597  18.501  0.00  0.00    +0.000 A 
ATOM     11  O   UNL     1       5.675   3.620  19.242  0.00  0.00    +0.000 OA
ATOM     12  N   UNL     1       6.527   4.848  17.498  0.00  0.00    +0.000 N 
ATOM     13  H   UNL     1       5.546   7.633  16.189  0.00  0.00    +0.000 HD
ENDROOT
BRANCH   6  14
ATOM     14  C   UNL     1       1.447   8.574  18.976  0.00  0.00    +0.000 A 
ATOM     15  C   UNL     1       0.924   8.946  20.229  0.00  0.00    +0.000 A 
ATOM     16  C   UNL     1      -0.112   9.881  20.338  0.00  0.00    +0.000 A 
ATOM     17  C   UNL     1      -0.632  10.475  19.194  0.00  0.00    +0.000 A 
ATOM     18 CL   UNL     1      -1.922  11.604  19.323  0.00  0.00    +0.000 Cl
ATOM     19  C   UNL     1      -0.116  10.151  17.944  0.00  0.00    +0.000 A 
ATOM     20  C   UNL     1       0.910   9.206  17.838  0.00  0.00    +0.000 A 
ENDBRANCH   6  14
BRANCH  12  21
ATOM     21  O   UNL     1       7.577   3.910  17.387  0.00  0.00    +0.000 OA
ATOM     22  H   UNL     1       7.957   4.137  16.515  0.00  0.00    +0.000 HD
ENDBRANCH  12  21
TORSDOF 2
ENDMDL
MODEL 6
REMARK VINA RESULT:      -7.7      5.431      7.544
REMARK  Name = 
REMARK  2 active torsions:
REMARK  status: ('A' for Active; 'I' for Inactive)
REMARK    1  A    between atoms: C_6  and  C_7
REMARK    2  A    between atoms: N_19  and  O_20
REMARK                            x       y       z     vdW  Elec       q    Type
REMARK                         _______ _______ _______ _____ _____    ______ ____
ROOT
ATOM      1  O   UNL     1       7.478   6.182  15.964  0.00  0.00    +0.000 OA
ATOM      2  C   UNL     1       6.593   5.955  16.789  0.00  0.00    +0.000 A 
ATOM      3  N   UNL     1       5.549   6.842  16.913  0.00  0.00    +0.000 N 
ATOM      4  C   UNL     1       4.523   6.700  17.851  0.00  0.00    +0.000 A 
ATOM      5  C   UNL     1       3.510   7.660  17.923  0.00  0.00    +0.000 A 
ATOM      6  C   UNL     1       2.477   7.555  18.878  0.00  0.00    +0.000 A 
ATOM      7  C   UNL     1       2.509   6.453  19.758  0.00  0.00    +0.000 A 
ATOM      8  C   UNL     1       3.519   5.490  19.685  0.00  0.00    +0.000 A 
ATOM      9  C   UNL     1       4.520   5.615  18.724  0.00  0.00    +0.000 A 
ATOM     10  C   UNL     1       5.600   4.616  18.618  0.00  0.00    +0.000 A 
ATOM     11  O   UNL     1       5.650   3.644  19.366  0.00  0.00    +0.000 OA
ATOM     12  N   UNL     1       6.541   4.866  17.638  0.00  0.00    +0.000 N 
ATOM     13  H   UNL     1       5.582   7.639  16.288  0.00  0.00    +0.000 HD
ENDROOT
BRANCH   6  14
ATOM     14  C   UNL     1       1.409   8.578  18.964  0.00  0.00    +0.000 A 
ATOM     15  C   UNL     1       0.850   9.152  17.808  0.00  0.00    +0.000 A 
ATOM     16  C   UNL     1      -0.125  10.154  17.890  0.00  0.00    +0.000 A 
ATOM     17  C   UNL     1      -0.570  10.587  19.133  0.00  0.00    +0.000 A 
ATOM     18 CL   UNL     1      -1.746  11.836  19.237  0.00  0.00    +0.000 Cl
ATOM     19  C   UNL     1      -0.058  10.018  20.294  0.00  0.00    +0.000 A 
ATOM     20  C   UNL     1       0.925   9.027  20.208  0.00  0.00    +0.000 A 
ENDBRANCH   6  14
BRANCH  12  21
ATOM     21  O   UNL     1       7.598   3.932  17.559  0.00  0.00    +0.000 OA
ATOM     22  H   UNL     1       8.110   4.141  18.366  0.00  0.00    +0.000 HD
ENDBRANCH  12  21
TORSDOF 2
ENDMDL
MODEL 7
REMARK VINA RESULT:      -7.7      1.280      2.398
REMARK  Name = 
REMARK  2 active torsions:
REMARK  status: ('A' for Active; 'I' for Inactive)
REMARK    1  A    between atoms: C_6  and  C_7
REMARK    2  A    between atoms: N_19  and  O_20
REMARK                            x       y       z     vdW  Elec       q    Type
REMARK                         _______ _______ _______ _____ _____    ______ ____
ROOT
ATOM      1  O   UNL     1      -0.474  12.423  18.335  0.00  0.00    +0.000 OA
ATOM      2  C   UNL     1      -0.038  11.433  18.922  0.00  0.00    +0.000 A 
ATOM      3  N   UNL     1       0.794  10.568  18.250  0.00  0.00    +0.000 N 
ATOM      4  C   UNL     1       1.302   9.394  18.812  0.00  0.00    +0.000 A 
ATOM      5  C   UNL     1       2.126   8.560  18.051  0.00  0.00    +0.000 A 
ATOM      6  C   UNL     1       2.631   7.355  18.584  0.00  0.00    +0.000 A 
ATOM      7  C   UNL     1       2.267   7.022  19.905  0.00  0.00    +0.000 A 
ATOM      8  C   UNL     1       1.446   7.856  20.669  0.00  0.00    +0.000 A 
ATOM      9  C   UNL     1       0.972   9.045  20.119  0.00  0.00    +0.000 A 
ATOM     10  C   UNL     1       0.106   9.949  20.897  0.00  0.00    +0.000 A 
ATOM     11  O   UNL     1      -0.222   9.688  22.051  0.00  0.00    +0.000 OA
ATOM     12  N   UNL     1      -0.313  11.085  20.230  0.00  0.00    +0.000 N 
ATOM     13  H   UNL     1       1.002  10.824  17.292  0.00  0.00    +0.000 HD
ENDROOT
BRANCH   6  14
ATOM     14  C   UNL     1       3.494   6.464  17.775  0.00  0.00    +0.000 A 
ATOM     15  C   UNL     1       4.496   6.981  16.933  0.00  0.00    +0.000 A 
ATOM     16  C   UNL     1       5.280   6.142  16.132  0.00  0.00    +0.000 A 
ATOM     17  C   UNL     1       5.085   4.767  16.172  0.00  0.00    +0.000 A 
ATOM     18 CL   UNL     1       6.027   3.736  15.169  0.00  0.00    +0.000 Cl
ATOM     19  C   UNL     1       4.123   4.223  17.015  0.00  0.00    +0.000 A 
ATOM     20  C   UNL     1       3.333   5.065  17.805  0.00  0.00    +0.000 A 
ENDBRANCH   6  14
BRANCH  12  21
ATOM     21  O   UNL     1      -1.174  11.934  20.960  0.00  0.00    +0.000 OA
ATOM     22  H   UNL     1      -1.671  12.379  20.243  0.00  0.00    +0.000 HD
ENDBRANCH  12  21
TORSDOF 2
ENDMDL
MODEL 8
REMARK VINA RESULT:      -7.7      5.406      7.633
REMARK  Name = 
REMARK  2 active torsions:
REMARK  status: ('A' for Active; 'I' for Inactive)
REMARK    1  A    between atoms: C_6  and  C_7
REMARK    2  A    between atoms: N_19  and  O_20
REMARK                            x       y       z     vdW  Elec       q    Type
REMARK                         _______ _______ _______ _____ _____    ______ ____
ROOT
ATOM      1  O   UNL     1       5.974   5.977  15.144  0.00  0.00    +0.000 OA
ATOM      2  C   UNL     1       5.244   5.667  16.085  0.00  0.00    +0.000 A 
ATOM      3  N   UNL     1       4.512   6.646  16.716  0.00  0.00    +0.000 N 
ATOM      4  C   UNL     1       3.692   6.404  17.822  0.00  0.00    +0.000 A 
ATOM      5  C   UNL     1       2.998   7.461  18.416  0.00  0.00    +0.000 A 
ATOM      6  C   UNL     1       2.184   7.251  19.550  0.00  0.00    +0.000 A 
ATOM      7  C   UNL     1       2.106   5.940  20.063  0.00  0.00    +0.000 A 
ATOM      8  C   UNL     1       2.797   4.880  19.469  0.00  0.00    +0.000 A 
ATOM      9  C   UNL     1       3.583   5.118  18.343  0.00  0.00    +0.000 A 
ATOM     10  C   UNL     1       4.324   4.023  17.690  0.00  0.00    +0.000 A 
ATOM     11  O   UNL     1       4.269   2.871  18.110  0.00  0.00    +0.000 OA
ATOM     12  N   UNL     1       5.083   4.394  16.596  0.00  0.00    +0.000 N 
ATOM     13  H   UNL     1       4.623   7.580  16.340  0.00  0.00    +0.000 HD
ENDROOT
BRANCH   6  14
ATOM     14  C   UNL     1       1.458   8.372  20.188  0.00  0.00    +0.000 A 
ATOM     15  C   UNL     1       1.107   9.526  19.462  0.00  0.00    +0.000 A 
ATOM     16  C   UNL     1       0.463  10.606  20.077  0.00  0.00    +0.000 A 
ATOM     17  C   UNL     1       0.142  10.544  21.427  0.00  0.00    +0.000 A 
ATOM     18 CL   UNL     1      -0.624  11.880  22.191  0.00  0.00    +0.000 Cl
ATOM     19  C   UNL     1       0.449   9.406  22.165  0.00  0.00    +0.000 A 
ATOM     20  C   UNL     1       1.104   8.334  21.550  0.00  0.00    +0.000 A 
ENDBRANCH   6  14
BRANCH  12  21
ATOM     21  O   UNL     1       5.824   3.354  15.991  0.00  0.00    +0.000 OA
ATOM     22  H   UNL     1       6.503   3.855  15.496  0.00  0.00    +0.000 HD
ENDBRANCH  12  21
TORSDOF 2
ENDMDL
MODEL 9
REMARK VINA RESULT:      -7.6      5.400      7.680
REMARK  Name = 
REMARK  2 active torsions:
REMARK  status: ('A' for Active; 'I' for Inactive)
REMARK    1  A    between atoms: C_6  and  C_7
REMARK    2  A    between atoms: N_19  and  O_20
REMARK                            x       y       z     vdW  Elec       q    Type
REMARK                         _______ _______ _______ _____ _____    ______ ____
ROOT
ATOM      1  O   UNL     1       5.931   5.927  15.174  0.00  0.00    +0.000 OA
ATOM      2  C   UNL     1       5.202   5.626  16.119  0.00  0.00    +0.000 A 
ATOM      3  N   UNL     1       4.484   6.613  16.752  0.00  0.00    +0.000 N 
ATOM      4  C   UNL     1       3.668   6.382  17.863  0.00  0.00    +0.000 A 
ATOM      5  C   UNL     1       2.988   7.448  18.459  0.00  0.00    +0.000 A 
ATOM      6  C   UNL     1       2.179   7.248  19.597  0.00  0.00    +0.000 A 
ATOM      7  C   UNL     1       2.089   5.939  20.113  0.00  0.00    +0.000 A 
ATOM      8  C   UNL     1       2.765   4.870  19.517  0.00  0.00    +0.000 A 
ATOM      9  C   UNL     1       3.548   5.098  18.387  0.00  0.00    +0.000 A 
ATOM     10  C   UNL     1       4.274   3.994  17.732  0.00  0.00    +0.000 A 
ATOM     11  O   UNL     1       4.209   2.843  18.154  0.00  0.00    +0.000 OA
ATOM     12  N   UNL     1       5.030   4.355  16.633  0.00  0.00    +0.000 N 
ATOM     13  H   UNL     1       4.604   7.546  16.375  0.00  0.00    +0.000 HD
ENDROOT
BRANCH   6  14
ATOM     14  C   UNL     1       1.467   8.378  20.237  0.00  0.00    +0.000 A 
ATOM     15  C   UNL     1       1.146   8.360  21.608  0.00  0.00    +0.000 A 
ATOM     16  C   UNL     1       0.431   9.406  22.202  0.00  0.00    +0.000 A 
ATOM     17  C   UNL     1       0.039  10.499  21.439  0.00  0.00    +0.000 A 
ATOM     18 CL   UNL     1      -0.862  11.772  22.160  0.00  0.00    +0.000 Cl
ATOM     19  C   UNL     1       0.367  10.560  20.089  0.00  0.00    +0.000 A 
ATOM     20  C   UNL     1       1.070   9.506  19.495  0.00  0.00    +0.000 A 
ENDBRANCH   6  14
BRANCH  12  21
ATOM     21  O   UNL     1       5.757   3.306  16.025  0.00  0.00    +0.000 OA
ATOM     22  H   UNL     1       5.476   3.384  15.091  0.00  0.00    +0.000 HD
ENDBRANCH  12  21
TORSDOF 2
ENDMDL
