MODEL 1
REMARK VINA RESULT:      -8.0      0.000      0.000
REMARK  Name = 
REMARK  5 active torsions:
REMARK  status: ('A' for Active; 'I' for Inactive)
REMARK    1  A    between atoms: C_2  and  C_3
REMARK    2  A    between atoms: N_11  and  S_12
REMARK    3  A    between atoms: S_12  and  C_15
REMARK    4  A    between atoms: C_18  and  O_19
REMARK    5  A    between atoms: O_19  and  C_20
REMARK                            x       y       z     vdW  Elec       q    Type
REMARK                         _______ _______ _______ _____ _____    ______ ____
ROOT
ATOM      1  S   UNL     1      -0.205  11.277  19.672  0.00  0.00    +0.000 S 
ATOM      2  O   UNL     1      -1.128  11.224  20.780  0.00  0.00    +0.000 OA
ATOM      3  O   UNL     1      -0.686  11.462  18.322  0.00  0.00    +0.000 OA
ENDROOT
BRANCH   1   9
ATOM      4  O   UNL     1      -0.521  17.119  20.757  0.00  0.00    +0.000 OA
ATOM      5  C   UNL     1      -0.235  16.543  19.706  0.00  0.00    +0.000 C 
ATOM      6  N   UNL     1      -0.095  15.153  19.673  0.00  0.00    +0.000 N 
ATOM      7  C   UNL     1       0.369  14.380  18.512  0.00  0.00    +0.000 C 
ATOM      8  C   UNL     1       1.418  13.331  18.902  0.00  0.00    +0.000 C 
ATOM      9  N   UNL     1       0.960  12.472  20.031  0.00  0.00    +0.000 NA
ATOM     10  C   UNL     1       0.638  13.344  21.210  0.00  0.00    +0.000 C 
ATOM     11  C   UNL     1      -0.456  14.363  20.863  0.00  0.00    +0.000 C 
BRANCH   5  12
ATOM     12  C   UNL     1       0.043  17.300  18.497  0.00  0.00    +0.000 A 
ATOM     13  C   UNL     1      -0.825  17.875  17.588  0.00  0.00    +0.000 A 
ATOM     14  C   UNL     1      -0.032  18.527  16.615  0.00  0.00    +0.000 A 
ATOM     15  C   UNL     1       1.274  18.279  16.960  0.00  0.00    +0.000 A 
ATOM     16  O   UNL     1       1.331  17.512  18.077  0.00  0.00    +0.000 OA
ENDBRANCH   5  12
ENDBRANCH   1   9
BRANCH   1  17
ATOM     17  C   UNL     1       0.757   9.781  19.701  0.00  0.00    +0.000 A 
ATOM     18  C   UNL     1       1.435   9.370  18.550  0.00  0.00    +0.000 A 
ATOM     19  C   UNL     1       2.165   8.180  18.572  0.00  0.00    +0.000 A 
ATOM     20  C   UNL     1       2.221   7.407  19.737  0.00  0.00    +0.000 A 
ATOM     21  C   UNL     1       1.529   7.820  20.880  0.00  0.00    +0.000 A 
ATOM     22  C   UNL     1       0.838   9.032  20.878  0.00  0.00    +0.000 A 
BRANCH  20  23
ATOM     23  O   UNL     1       2.922   6.227  19.637  0.00  0.00    +0.000 OA
BRANCH  23  24
ATOM     24  C   UNL     1       2.252   5.034  19.485  0.00  0.00    +0.000 A 
ATOM     25  C   UNL     1       1.844   4.404  20.663  0.00  0.00    +0.000 A 
ATOM     26  C   UNL     1       1.146   3.196  20.607  0.00  0.00    +0.000 A 
ATOM     27  C   UNL     1       0.856   2.616  19.374  0.00  0.00    +0.000 A 
ATOM     28  C   UNL     1       1.235   3.255  18.195  0.00  0.00    +0.000 A 
ATOM     29  C   UNL     1       1.908   4.478  18.249  0.00  0.00    +0.000 A 
ENDBRANCH  23  24
ENDBRANCH  20  23
ENDBRANCH   1  17
TORSDOF 5
ENDMDL
MODEL 2
REMARK VINA RESULT:      -8.0      0.502      1.456
REMARK  Name = 
REMARK  5 active torsions:
REMARK  status: ('A' for Active; 'I' for Inactive)
REMARK    1  A    between atoms: C_2  and  C_3
REMARK    2  A    between atoms: N_11  and  S_12
REMARK    3  A    between atoms: S_12  and  C_15
REMARK    4  A    between atoms: C_18  and  O_19
REMARK    5  A    between atoms: O_19  and  C_20
REMARK                            x       y       z     vdW  Elec       q    Type
REMARK                         _______ _______ _______ _____ _____    ______ ____
ROOT
ATOM      1  S   UNL     1      -0.193  11.341  19.693  0.00  0.00    +0.000 S 
ATOM      2  O   UNL     1      -1.048  11.317  20.855  0.00  0.00    +0.000 OA
ATOM      3  O   UNL     1      -0.748  11.554  18.376  0.00  0.00    +0.000 OA
ENDROOT
BRANCH   1   9
ATOM      4  O   UNL     1      -0.216  17.178  20.850  0.00  0.00    +0.000 OA
ATOM      5  C   UNL     1      -0.022  16.605  19.777  0.00  0.00    +0.000 C 
ATOM      6  N   UNL     1       0.063  15.210  19.722  0.00  0.00    +0.000 N 
ATOM      7  C   UNL     1       0.420  14.434  18.526  0.00  0.00    +0.000 C 
ATOM      8  C   UNL     1       1.453  13.343  18.836  0.00  0.00    +0.000 C 
ATOM      9  N   UNL     1       1.038  12.489  19.985  0.00  0.00    +0.000 NA
ATOM     10  C   UNL     1       0.826  13.358  21.191  0.00  0.00    +0.000 C 
ATOM     11  C   UNL     1      -0.249  14.421  20.926  0.00  0.00    +0.000 C 
BRANCH   5  12
ATOM     12  C   UNL     1       0.205  17.365  18.559  0.00  0.00    +0.000 A 
ATOM     13  C   UNL     1       1.389  17.754  17.962  0.00  0.00    +0.000 A 
ATOM     14  C   UNL     1       1.044  18.442  16.774  0.00  0.00    +0.000 A 
ATOM     15  C   UNL     1      -0.328  18.471  16.735  0.00  0.00    +0.000 A 
ATOM     16  O   UNL     1      -0.846  17.851  17.825  0.00  0.00    +0.000 OA
ENDBRANCH   5  12
ENDBRANCH   1   9
BRANCH   1  17
ATOM     17  C   UNL     1       0.710   9.810  19.656  0.00  0.00    +0.000 A 
ATOM     18  C   UNL     1       0.792   9.024  20.809  0.00  0.00    +0.000 A 
ATOM     19  C   UNL     1       1.526   7.837  20.780  0.00  0.00    +0.000 A 
ATOM     20  C   UNL     1       2.172   7.434  19.606  0.00  0.00    +0.000 A 
ATOM     21  C   UNL     1       2.094   8.233  18.461  0.00  0.00    +0.000 A 
ATOM     22  C   UNL     1       1.323   9.395  18.470  0.00  0.00    +0.000 A 
BRANCH  20  23
ATOM     23  O   UNL     1       2.913   6.278  19.699  0.00  0.00    +0.000 OA
BRANCH  23  24
ATOM     24  C   UNL     1       2.285   5.053  19.713  0.00  0.00    +0.000 A 
ATOM     25  C   UNL     1       1.972   4.508  18.465  0.00  0.00    +0.000 A 
ATOM     26  C   UNL     1       1.345   3.264  18.380  0.00  0.00    +0.000 A 
ATOM     27  C   UNL     1       1.030   2.562  19.542  0.00  0.00    +0.000 A 
ATOM     28  C   UNL     1       1.367   3.087  20.788  0.00  0.00    +0.000 A 
ATOM     29  C   UNL     1       2.019   4.319  20.873  0.00  0.00    +0.000 A 
ENDBRANCH  23  24
ENDBRANCH  20  23
ENDBRANCH   1  17
TORSDOF 5
ENDMDL
MODEL 3
REMARK VINA RESULT:      -7.8      0.718      1.389
REMARK  Name = 
REMARK  5 active torsions:
REMARK  status: ('A' for Active; 'I' for Inactive)
REMARK    1  A    between atoms: C_2  and  C_3
REMARK    2  A    between atoms: N_11  and  S_12
REMARK    3  A    between atoms: S_12  and  C_15
REMARK    4  A    between atoms: C_18  and  O_19
REMARK    5  A    between atoms: O_19  and  C_20
REMARK                            x       y       z     vdW  Elec       q    Type
REMARK                         _______ _______ _______ _____ _____    ______ ____
ROOT
ATOM      1  S   UNL     1       0.016  10.915  19.606  0.00  0.00    +0.000 S 
ATOM      2  O   UNL     1      -0.737  10.686  20.815  0.00  0.00    +0.000 OA
ATOM      3  O   UNL     1      -0.657  11.249  18.372  0.00  0.00    +0.000 OA
ENDROOT
BRANCH   1   9
ATOM      4  O   UNL     1      -0.265  16.707  20.942  0.00  0.00    +0.000 OA
ATOM      5  C   UNL     1      -0.032  16.176  19.855  0.00  0.00    +0.000 C 
ATOM      6  N   UNL     1       0.111  14.789  19.759  0.00  0.00    +0.000 N 
ATOM      7  C   UNL     1       0.516  14.066  18.544  0.00  0.00    +0.000 C 
ATOM      8  C   UNL     1       1.589  13.008  18.836  0.00  0.00    +0.000 C 
ATOM      9  N   UNL     1       1.194  12.103  19.951  0.00  0.00    +0.000 NA
ATOM     10  C   UNL     1       0.931  12.924  21.180  0.00  0.00    +0.000 C 
ATOM     11  C   UNL     1      -0.184  13.950  20.932  0.00  0.00    +0.000 C 
BRANCH   5  12
ATOM     12  C   UNL     1       0.179  16.983  18.665  0.00  0.00    +0.000 A 
ATOM     13  C   UNL     1      -0.740  17.555  17.804  0.00  0.00    +0.000 A 
ATOM     14  C   UNL     1      -0.002  18.268  16.830  0.00  0.00    +0.000 A 
ATOM     15  C   UNL     1       1.323  18.058  17.125  0.00  0.00    +0.000 A 
ATOM     16  O   UNL     1       1.444  17.256  18.213  0.00  0.00    +0.000 OA
ENDBRANCH   5  12
ENDBRANCH   1   9
BRANCH   1  17
ATOM     17  C   UNL     1       1.005   9.468  19.305  0.00  0.00    +0.000 A 
ATOM     18  C   UNL     1       1.224   8.551  20.337  0.00  0.00    +0.000 A 
ATOM     19  C   UNL     1       2.025   7.431  20.101  0.00  0.00    +0.000 A 
ATOM     20  C   UNL     1       2.601   7.227  18.842  0.00  0.00    +0.000 A 
ATOM     21  C   UNL     1       2.386   8.157  17.821  0.00  0.00    +0.000 A 
ATOM     22  C   UNL     1       1.548   9.251  18.036  0.00  0.00    +0.000 A 
BRANCH  20  23
ATOM     23  O   UNL     1       3.416   6.123  18.731  0.00  0.00    +0.000 OA
BRANCH  23  24
ATOM     24  C   UNL     1       2.909   4.863  18.955  0.00  0.00    +0.000 A 
ATOM     25  C   UNL     1       1.847   4.474  18.135  0.00  0.00    +0.000 A 
ATOM     26  C   UNL     1       1.275   3.209  18.281  0.00  0.00    +0.000 A 
ATOM     27  C   UNL     1       1.765   2.330  19.246  0.00  0.00    +0.000 A 
ATOM     28  C   UNL     1       2.843   2.703  20.046  0.00  0.00    +0.000 A 
ATOM     29  C   UNL     1       3.433   3.958  19.883  0.00  0.00    +0.000 A 
ENDBRANCH  23  24
ENDBRANCH  20  23
ENDBRANCH   1  17
TORSDOF 5
ENDMDL
MODEL 4
REMARK VINA RESULT:      -7.7      3.628      4.884
REMARK  Name = 
REMARK  5 active torsions:
REMARK  status: ('A' for Active; 'I' for Inactive)
REMARK    1  A    between atoms: C_2  and  C_3
REMARK    2  A    between atoms: N_11  and  S_12
REMARK    3  A    between atoms: S_12  and  C_15
REMARK    4  A    between atoms: C_18  and  O_19
REMARK    5  A    between atoms: O_19  and  C_20
REMARK                            x       y       z     vdW  Elec       q    Type
REMARK                         _______ _______ _______ _____ _____    ______ ____
ROOT
ATOM      1  S   UNL     1       0.995   8.842  21.262  0.00  0.00    +0.000 S 
ATOM      2  O   UNL     1       1.935   9.206  22.294  0.00  0.00    +0.000 OA
ATOM      3  O   UNL     1      -0.360   8.470  21.599  0.00  0.00    +0.000 OA
ENDROOT
BRANCH   1   9
ATOM      4  O   UNL     1      -2.669  13.432  20.311  0.00  0.00    +0.000 OA
ATOM      5  C   UNL     1      -2.633  12.342  19.739  0.00  0.00    +0.000 C 
ATOM      6  N   UNL     1      -1.616  11.426  20.021  0.00  0.00    +0.000 N 
ATOM      7  C   UNL     1      -1.403  10.158  19.307  0.00  0.00    +0.000 C 
ATOM      8  C   UNL     1       0.072   9.944  18.943  0.00  0.00    +0.000 C 
ATOM      9  N   UNL     1       0.970  10.112  20.120  0.00  0.00    +0.000 NA
ATOM     10  C   UNL     1       0.773  11.484  20.696  0.00  0.00    +0.000 C 
ATOM     11  C   UNL     1      -0.684  11.700  21.127  0.00  0.00    +0.000 C 
BRANCH   5  12
ATOM     12  C   UNL     1      -3.597  12.016  18.701  0.00  0.00    +0.000 A 
ATOM     13  C   UNL     1      -4.977  11.947  18.759  0.00  0.00    +0.000 A 
ATOM     14  C   UNL     1      -5.428  11.624  17.457  0.00  0.00    +0.000 A 
ATOM     15  C   UNL     1      -4.300  11.474  16.689  0.00  0.00    +0.000 A 
ATOM     16  O   UNL     1      -3.187  11.677  17.437  0.00  0.00    +0.000 OA
ENDBRANCH   5  12
ENDBRANCH   1   9
BRANCH   1  17
ATOM     17  C   UNL     1       1.707   7.503  20.333  0.00  0.00    +0.000 A 
ATOM     18  C   UNL     1       1.664   6.203  20.845  0.00  0.00    +0.000 A 
ATOM     19  C   UNL     1       2.251   5.161  20.123  0.00  0.00    +0.000 A 
ATOM     20  C   UNL     1       2.872   5.415  18.896  0.00  0.00    +0.000 A 
ATOM     21  C   UNL     1       2.920   6.721  18.398  0.00  0.00    +0.000 A 
ATOM     22  C   UNL     1       2.295   7.757  19.091  0.00  0.00    +0.000 A 
BRANCH  20  23
ATOM     23  O   UNL     1       3.465   4.330  18.292  0.00  0.00    +0.000 OA
BRANCH  23  24
ATOM     24  C   UNL     1       4.705   4.455  17.707  0.00  0.00    +0.000 A 
ATOM     25  C   UNL     1       5.777   4.666  18.577  0.00  0.00    +0.000 A 
ATOM     26  C   UNL     1       7.073   4.793  18.076  0.00  0.00    +0.000 A 
ATOM     27  C   UNL     1       7.301   4.708  16.704  0.00  0.00    +0.000 A 
ATOM     28  C   UNL     1       6.239   4.468  15.834  0.00  0.00    +0.000 A 
ATOM     29  C   UNL     1       4.946   4.313  16.337  0.00  0.00    +0.000 A 
ENDBRANCH  23  24
ENDBRANCH  20  23
ENDBRANCH   1  17
TORSDOF 5
ENDMDL
MODEL 5
REMARK VINA RESULT:      -7.7      2.111      2.955
REMARK  Name = 
REMARK  5 active torsions:
REMARK  status: ('A' for Active; 'I' for Inactive)
REMARK    1  A    between atoms: C_2  and  C_3
REMARK    2  A    between atoms: N_11  and  S_12
REMARK    3  A    between atoms: S_12  and  C_15
REMARK    4  A    between atoms: C_18  and  O_19
REMARK    5  A    between atoms: O_19  and  C_20
REMARK                            x       y       z     vdW  Elec       q    Type
REMARK                         _______ _______ _______ _____ _____    ______ ____
ROOT
ATOM      1  S   UNL     1      -0.576  11.618  19.293  0.00  0.00    +0.000 S 
ATOM      2  O   UNL     1      -1.868  11.280  19.838  0.00  0.00    +0.000 OA
ATOM      3  O   UNL     1      -0.456  12.138  17.950  0.00  0.00    +0.000 OA
ENDROOT
BRANCH   1   9
ATOM      4  O   UNL     1       2.295  16.790  18.651  0.00  0.00    +0.000 OA
ATOM      5  C   UNL     1       2.764  15.657  18.770  0.00  0.00    +0.000 C 
ATOM      6  N   UNL     1       1.928  14.568  19.032  0.00  0.00    +0.000 N 
ATOM      7  C   UNL     1       2.390  13.202  19.321  0.00  0.00    +0.000 C 
ATOM      8  C   UNL     1       1.658  12.590  20.522  0.00  0.00    +0.000 C 
ATOM      9  N   UNL     1       0.178  12.691  20.388  0.00  0.00    +0.000 NA
ATOM     10  C   UNL     1      -0.204  14.134  20.231  0.00  0.00    +0.000 C 
ATOM     11  C   UNL     1       0.468  14.754  18.998  0.00  0.00    +0.000 C 
BRANCH   5  12
ATOM     12  C   UNL     1       4.200  15.439  18.722  0.00  0.00    +0.000 A 
ATOM     13  C   UNL     1       5.160  15.626  19.699  0.00  0.00    +0.000 A 
ATOM     14  C   UNL     1       6.398  15.226  19.141  0.00  0.00    +0.000 A 
ATOM     15  C   UNL     1       6.131  14.858  17.846  0.00  0.00    +0.000 A 
ATOM     16  O   UNL     1       4.811  15.012  17.572  0.00  0.00    +0.000 OA
ENDBRANCH   5  12
ENDBRANCH   1   9
BRANCH   1  17
ATOM     17  C   UNL     1       0.451  10.171  19.404  0.00  0.00    +0.000 A 
ATOM     18  C   UNL     1       1.169   9.742  18.284  0.00  0.00    +0.000 A 
ATOM     19  C   UNL     1       1.951   8.588  18.371  0.00  0.00    +0.000 A 
ATOM     20  C   UNL     1       2.020   7.870  19.570  0.00  0.00    +0.000 A 
ATOM     21  C   UNL     1       1.289   8.300  20.681  0.00  0.00    +0.000 A 
ATOM     22  C   UNL     1       0.544   9.478  20.615  0.00  0.00    +0.000 A 
BRANCH  20  23
ATOM     23  O   UNL     1       2.775   6.719  19.534  0.00  0.00    +0.000 OA
BRANCH  23  24
ATOM     24  C   UNL     1       2.160   5.488  19.525  0.00  0.00    +0.000 A 
ATOM     25  C   UNL     1       2.056   4.862  18.281  0.00  0.00    +0.000 A 
ATOM     26  C   UNL     1       1.459   3.604  18.176  0.00  0.00    +0.000 A 
ATOM     27  C   UNL     1       0.964   2.971  19.314  0.00  0.00    +0.000 A 
ATOM     28  C   UNL     1       1.092   3.578  20.562  0.00  0.00    +0.000 A 
ATOM     29  C   UNL     1       1.714   4.823  20.672  0.00  0.00    +0.000 A 
ENDBRANCH  23  24
ENDBRANCH  20  23
ENDBRANCH   1  17
TORSDOF 5
ENDMDL
MODEL 6
REMARK VINA RESULT:      -7.6      2.196      3.160
REMARK  Name = 
REMARK  5 active torsions:
REMARK  status: ('A' for Active; 'I' for Inactive)
REMARK    1  A    between atoms: C_2  and  C_3
REMARK    2  A    between atoms: N_11  and  S_12
REMARK    3  A    between atoms: S_12  and  C_15
REMARK    4  A    between atoms: C_18  and  O_19
REMARK    5  A    between atoms: O_19  and  C_20
REMARK                            x       y       z     vdW  Elec       q    Type
REMARK                         _______ _______ _______ _____ _____    ______ ____
ROOT
ATOM      1  S   UNL     1      -0.596  11.842  19.440  0.00  0.00    +0.000 S 
ATOM      2  O   UNL     1      -1.887  11.562  20.020  0.00  0.00    +0.000 OA
ATOM      3  O   UNL     1      -0.490  12.379  18.103  0.00  0.00    +0.000 OA
ENDROOT
BRANCH   1   9
ATOM      4  O   UNL     1       2.529  16.864  18.794  0.00  0.00    +0.000 OA
ATOM      5  C   UNL     1       2.939  15.706  18.879  0.00  0.00    +0.000 C 
ATOM      6  N   UNL     1       2.054  14.657  19.149  0.00  0.00    +0.000 N 
ATOM      7  C   UNL     1       2.451  13.264  19.400  0.00  0.00    +0.000 C 
ATOM      8  C   UNL     1       1.725  12.669  20.614  0.00  0.00    +0.000 C 
ATOM      9  N   UNL     1       0.248  12.852  20.529  0.00  0.00    +0.000 NA
ATOM     10  C   UNL     1      -0.059  14.316  20.409  0.00  0.00    +0.000 C 
ATOM     11  C   UNL     1       0.606  14.922  19.165  0.00  0.00    +0.000 C 
BRANCH   5  12
ATOM     12  C   UNL     1       4.359  15.412  18.782  0.00  0.00    +0.000 A 
ATOM     13  C   UNL     1       5.110  15.005  17.695  0.00  0.00    +0.000 A 
ATOM     14  C   UNL     1       6.450  14.897  18.137  0.00  0.00    +0.000 A 
ATOM     15  C   UNL     1       6.435  15.203  19.476  0.00  0.00    +0.000 A 
ATOM     16  O   UNL     1       5.172  15.484  19.883  0.00  0.00    +0.000 OA
ENDBRANCH   5  12
ENDBRANCH   1   9
BRANCH   1  17
ATOM     17  C   UNL     1       0.355  10.340  19.494  0.00  0.00    +0.000 A 
ATOM     18  C   UNL     1       0.409   9.594  20.674  0.00  0.00    +0.000 A 
ATOM     19  C   UNL     1       1.180   8.431  20.717  0.00  0.00    +0.000 A 
ATOM     20  C   UNL     1       1.890   8.012  19.587  0.00  0.00    +0.000 A 
ATOM     21  C   UNL     1       1.840   8.771  18.413  0.00  0.00    +0.000 A 
ATOM     22  C   UNL     1       1.033   9.907  18.350  0.00  0.00    +0.000 A 
BRANCH  20  23
ATOM     23  O   UNL     1       2.661   6.884  19.750  0.00  0.00    +0.000 OA
BRANCH  23  24
ATOM     24  C   UNL     1       2.113   5.636  19.552  0.00  0.00    +0.000 A 
ATOM     25  C   UNL     1       2.193   5.130  18.253  0.00  0.00    +0.000 A 
ATOM     26  C   UNL     1       1.675   3.867  17.959  0.00  0.00    +0.000 A 
ATOM     27  C   UNL     1       1.077   3.108  18.964  0.00  0.00    +0.000 A 
ATOM     28  C   UNL     1       1.022   3.597  20.268  0.00  0.00    +0.000 A 
ATOM     29  C   UNL     1       1.564   4.848  20.568  0.00  0.00    +0.000 A 
ENDBRANCH  23  24
ENDBRANCH  20  23
ENDBRANCH   1  17
TORSDOF 5
ENDMDL
MODEL 7
REMARK VINA RESULT:      -7.6      0.689      1.476
REMARK  Name = 
REMARK  5 active torsions:
REMARK  status: ('A' for Active; 'I' for Inactive)
REMARK    1  A    between atoms: C_2  and  C_3
REMARK    2  A    between atoms: N_11  and  S_12
REMARK    3  A    between atoms: S_12  and  C_15
REMARK    4  A    between atoms: C_18  and  O_19
REMARK    5  A    between atoms: O_19  and  C_20
REMARK                            x       y       z     vdW  Elec       q    Type
REMARK                         _______ _______ _______ _____ _____    ______ ____
ROOT
ATOM      1  S   UNL     1      -0.289  11.335  19.665  0.00  0.00    +0.000 S 
ATOM      2  O   UNL     1      -1.208  11.310  20.778  0.00  0.00    +0.000 OA
ATOM      3  O   UNL     1      -0.772  11.522  18.316  0.00  0.00    +0.000 OA
ENDROOT
BRANCH   1   9
ATOM      4  O   UNL     1      -0.485  17.166  20.831  0.00  0.00    +0.000 OA
ATOM      5  C   UNL     1      -0.233  16.600  19.766  0.00  0.00    +0.000 C 
ATOM      6  N   UNL     1      -0.117  15.208  19.713  0.00  0.00    +0.000 N 
ATOM      7  C   UNL     1       0.307  14.443  18.531  0.00  0.00    +0.000 C 
ATOM      8  C   UNL     1       1.348  13.373  18.882  0.00  0.00    +0.000 C 
ATOM      9  N   UNL     1       0.904  12.507  20.011  0.00  0.00    +0.000 NA
ATOM     10  C   UNL     1       0.623  13.368  21.208  0.00  0.00    +0.000 C 
ATOM     11  C   UNL     1      -0.462  14.409  20.900  0.00  0.00    +0.000 C 
BRANCH   5  12
ATOM     12  C   UNL     1       0.028  17.369  18.560  0.00  0.00    +0.000 A 
ATOM     13  C   UNL     1      -0.853  17.982  17.689  0.00  0.00    +0.000 A 
ATOM     14  C   UNL     1      -0.072  18.627  16.700  0.00  0.00    +0.000 A 
ATOM     15  C   UNL     1       1.237  18.337  16.999  0.00  0.00    +0.000 A 
ATOM     16  O   UNL     1       1.307  17.551  18.102  0.00  0.00    +0.000 OA
ENDBRANCH   5  12
ENDBRANCH   1   9
BRANCH   1  17
ATOM     17  C   UNL     1       0.640   9.819  19.700  0.00  0.00    +0.000 A 
ATOM     18  C   UNL     1       0.741   9.094  20.890  0.00  0.00    +0.000 A 
ATOM     19  C   UNL     1       1.496   7.919  20.917  0.00  0.00    +0.000 A 
ATOM     20  C   UNL     1       2.143   7.469  19.761  0.00  0.00    +0.000 A 
ATOM     21  C   UNL     1       2.046   8.208  18.577  0.00  0.00    +0.000 A 
ATOM     22  C   UNL     1       1.255   9.356  18.533  0.00  0.00    +0.000 A 
BRANCH  20  23
ATOM     23  O   UNL     1       2.904   6.332  19.907  0.00  0.00    +0.000 OA
BRANCH  23  24
ATOM     24  C   UNL     1       2.767   5.288  19.021  0.00  0.00    +0.000 A 
ATOM     25  C   UNL     1       3.861   5.041  18.188  0.00  0.00    +0.000 A 
ATOM     26  C   UNL     1       3.818   3.995  17.265  0.00  0.00    +0.000 A 
ATOM     27  C   UNL     1       2.682   3.193  17.172  0.00  0.00    +0.000 A 
ATOM     28  C   UNL     1       1.599   3.417  18.021  0.00  0.00    +0.000 A 
ATOM     29  C   UNL     1       1.652   4.446  18.964  0.00  0.00    +0.000 A 
ENDBRANCH  23  24
ENDBRANCH  20  23
ENDBRANCH   1  17
TORSDOF 5
ENDMDL
MODEL 8
REMARK VINA RESULT:      -7.6      1.180      1.981
REMARK  Name = 
REMARK  5 active torsions:
REMARK  status: ('A' for Active; 'I' for Inactive)
REMARK    1  A    between atoms: C_2  and  C_3
REMARK    2  A    between atoms: N_11  and  S_12
REMARK    3  A    between atoms: S_12  and  C_15
REMARK    4  A    between atoms: C_18  and  O_19
REMARK    5  A    between atoms: O_19  and  C_20
REMARK                            x       y       z     vdW  Elec       q    Type
REMARK                         _______ _______ _______ _____ _____    ______ ____
ROOT
ATOM      1  S   UNL     1       0.485  10.997  19.961  0.00  0.00    +0.000 S 
ATOM      2  O   UNL     1       1.244  11.564  21.049  0.00  0.00    +0.000 OA
ATOM      3  O   UNL     1      -0.930  10.746  20.103  0.00  0.00    +0.000 OA
ENDROOT
BRANCH   1   9
ATOM      4  O   UNL     1       2.234  16.634  19.206  0.00  0.00    +0.000 OA
ATOM      5  C   UNL     1       1.093  16.171  19.185  0.00  0.00    +0.000 C 
ATOM      6  N   UNL     1       0.886  14.791  19.265  0.00  0.00    +0.000 N 
ATOM      7  C   UNL     1      -0.417  14.125  19.119  0.00  0.00    +0.000 C 
ATOM      8  C   UNL     1      -0.338  12.905  18.192  0.00  0.00    +0.000 C 
ATOM      9  N   UNL     1       0.756  11.972  18.585  0.00  0.00    +0.000 NA
ATOM     10  C   UNL     1       2.061  12.714  18.576  0.00  0.00    +0.000 C 
ATOM     11  C   UNL     1       2.028  13.904  19.544  0.00  0.00    +0.000 C 
BRANCH   5  12
ATOM     12  C   UNL     1      -0.057  17.039  18.996  0.00  0.00    +0.000 A 
ATOM     13  C   UNL     1      -0.542  17.634  17.846  0.00  0.00    +0.000 A 
ATOM     14  C   UNL     1      -1.709  18.347  18.211  0.00  0.00    +0.000 A 
ATOM     15  C   UNL     1      -1.847  18.182  19.568  0.00  0.00    +0.000 A 
ATOM     16  O   UNL     1      -0.837  17.420  20.057  0.00  0.00    +0.000 OA
ENDBRANCH   5  12
ENDBRANCH   1   9
BRANCH   1  17
ATOM     17  C   UNL     1       1.262   9.464  19.504  0.00  0.00    +0.000 A 
ATOM     18  C   UNL     1       1.457   8.471  20.468  0.00  0.00    +0.000 A 
ATOM     19  C   UNL     1       2.093   7.281  20.108  0.00  0.00    +0.000 A 
ATOM     20  C   UNL     1       2.528   7.081  18.793  0.00  0.00    +0.000 A 
ATOM     21  C   UNL     1       2.338   8.085  17.839  0.00  0.00    +0.000 A 
ATOM     22  C   UNL     1       1.661   9.256  18.181  0.00  0.00    +0.000 A 
BRANCH  20  23
ATOM     23  O   UNL     1       3.190   5.898  18.557  0.00  0.00    +0.000 OA
BRANCH  23  24
ATOM     24  C   UNL     1       2.603   4.698  18.890  0.00  0.00    +0.000 A 
ATOM     25  C   UNL     1       3.047   4.105  20.074  0.00  0.00    +0.000 A 
ATOM     26  C   UNL     1       2.501   2.893  20.500  0.00  0.00    +0.000 A 
ATOM     27  C   UNL     1       1.510   2.271  19.742  0.00  0.00    +0.000 A 
ATOM     28  C   UNL     1       1.043   2.874  18.576  0.00  0.00    +0.000 A 
ATOM     29  C   UNL     1       1.568   4.100  18.164  0.00  0.00    +0.000 A 
ENDBRANCH  23  24
ENDBRANCH  20  23
ENDBRANCH   1  17
TORSDOF 5
ENDMDL
MODEL 9
REMARK VINA RESULT:      -7.5      2.949      4.076
REMARK  Name = 
REMARK  5 active torsions:
REMARK  status: ('A' for Active; 'I' for Inactive)
REMARK    1  A    between atoms: C_2  and  C_3
REMARK    2  A    between atoms: N_11  and  S_12
REMARK    3  A    between atoms: S_12  and  C_15
REMARK    4  A    between atoms: C_18  and  O_19
REMARK    5  A    between atoms: O_19  and  C_20
REMARK                            x       y       z     vdW  Elec       q    Type
REMARK                         _______ _______ _______ _____ _____    ______ ____
ROOT
ATOM      1  S   UNL     1      -0.056  11.735  19.502  0.00  0.00    +0.000 S 
ATOM      2  O   UNL     1      -0.795  11.836  18.267  0.00  0.00    +0.000 OA
ATOM      3  O   UNL     1       0.912  12.745  19.865  0.00  0.00    +0.000 OA
ENDROOT
BRANCH   1   9
ATOM      4  O   UNL     1      -3.589  15.531  22.420  0.00  0.00    +0.000 OA
ATOM      5  C   UNL     1      -2.494  15.080  22.759  0.00  0.00    +0.000 C 
ATOM      6  N   UNL     1      -1.862  14.099  21.990  0.00  0.00    +0.000 N 
ATOM      7  C   UNL     1      -0.625  13.400  22.368  0.00  0.00    +0.000 C 
ATOM      8  C   UNL     1      -0.728  11.886  22.143  0.00  0.00    +0.000 C 
ATOM      9  N   UNL     1      -1.191  11.554  20.766  0.00  0.00    +0.000 NA
ATOM     10  C   UNL     1      -2.522  12.204  20.526  0.00  0.00    +0.000 C 
ATOM     11  C   UNL     1      -2.431  13.728  20.683  0.00  0.00    +0.000 C 
BRANCH   5  12
ATOM     12  C   UNL     1      -1.874  15.496  24.006  0.00  0.00    +0.000 A 
ATOM     13  C   UNL     1      -2.137  15.102  25.304  0.00  0.00    +0.000 A 
ATOM     14  C   UNL     1      -1.219  15.786  26.136  0.00  0.00    +0.000 A 
ATOM     15  C   UNL     1      -0.477  16.589  25.305  0.00  0.00    +0.000 A 
ATOM     16  O   UNL     1      -0.885  16.446  24.020  0.00  0.00    +0.000 OA
ENDBRANCH   5  12
ENDBRANCH   1   9
BRANCH   1  17
ATOM     17  C   UNL     1       0.777  10.164  19.505  0.00  0.00    +0.000 A 
ATOM     18  C   UNL     1       0.832   9.410  20.680  0.00  0.00    +0.000 A 
ATOM     19  C   UNL     1       1.512   8.190  20.682  0.00  0.00    +0.000 A 
ATOM     20  C   UNL     1       2.130   7.724  19.516  0.00  0.00    +0.000 A 
ATOM     21  C   UNL     1       2.079   8.491  18.348  0.00  0.00    +0.000 A 
ATOM     22  C   UNL     1       1.361   9.687  18.328  0.00  0.00    +0.000 A 
BRANCH  20  23
ATOM     23  O   UNL     1       2.819   6.539  19.639  0.00  0.00    +0.000 OA
BRANCH  23  24
ATOM     24  C   UNL     1       2.152   5.338  19.542  0.00  0.00    +0.000 A 
ATOM     25  C   UNL     1       2.049   4.794  18.259  0.00  0.00    +0.000 A 
ATOM     26  C   UNL     1       1.402   3.573  18.065  0.00  0.00    +0.000 A 
ATOM     27  C   UNL     1       0.855   2.894  19.152  0.00  0.00    +0.000 A 
ATOM     28  C   UNL     1       0.981   3.418  20.438  0.00  0.00    +0.000 A 
ATOM     29  C   UNL     1       1.654   4.625  20.637  0.00  0.00    +0.000 A 
ENDBRANCH  23  24
ENDBRANCH  20  23
ENDBRANCH   1  17
TORSDOF 5
ENDMDL
