MODEL 1
REMARK VINA RESULT:      -7.5      0.000      0.000
REMARK  Name = 
REMARK  12 active torsions:
REMARK  status: ('A' for Active; 'I' for Inactive)
REMARK    1  A    between atoms: C_1  and  C_2
REMARK    2  A    between atoms: C_3  and  C_4
REMARK    3  A    between atoms: C_5  and  C_6
REMARK    4  A    between atoms: C_6  and  C_7
REMARK    5  A    between atoms: C_8  and  C_9
REMARK    6  A    between atoms: C_10  and  C_11
REMARK    7  A    between atoms: C_11  and  C_12
REMARK    8  A    between atoms: C_13  and  C_14
REMARK    9  A    between atoms: N_16  and  C_17
REMARK   10  A    between atoms: C_23  and  O_24
REMARK   11  A    between atoms: C_25  and  C_26
REMARK   12  A    between atoms: C_25  and  C_27
REMARK                            x       y       z     vdW  Elec       q    Type
REMARK                         _______ _______ _______ _____ _____    ______ ____
ROOT
ATOM      1  C   UNL     1       0.964   9.835  20.622  0.00  0.00    +0.000 C 
ATOM      2  C   UNL     1      -0.289  10.111  21.047  0.00  0.00    +0.000 C 
ENDROOT
BRANCH   1   5
ATOM      3  C   UNL     1       2.030   8.225  19.056  0.00  0.00    +0.000 C 
ATOM      4  C   UNL     1       1.926   9.194  17.893  0.00  0.00    +0.000 C 
ATOM      5  C   UNL     1       1.547   8.541  20.290  0.00  0.00    +0.000 C 
BRANCH   3   7
ATOM      6  C   UNL     1       2.039   5.739  18.565  0.00  0.00    +0.000 C 
ATOM      7  C   UNL     1       2.650   6.909  18.844  0.00  0.00    +0.000 C 
BRANCH   6  10
ATOM      8  C   UNL     1       4.452   5.100  16.708  0.00  0.00    +0.000 C 
ATOM      9  C   UNL     1       3.676   4.128  17.575  0.00  0.00    +0.000 C 
ATOM     10  C   UNL     1       2.653   4.401  18.434  0.00  0.00    +0.000 C 
ATOM     11  C   UNL     1       2.139   3.306  19.434  0.00  0.00    +0.000 C 
ATOM     12  C   UNL     1       2.114   3.785  20.910  0.00  0.00    +0.000 C 
ATOM     13  C   UNL     1       0.711   2.854  19.057  0.00  0.00    +0.000 C 
ATOM     14  C   UNL     1       3.064   2.052  19.446  0.00  0.00    +0.000 C 
ATOM     15  C   UNL     1       3.457   1.620  18.049  0.00  0.00    +0.000 C 
ATOM     16  C   UNL     1       4.249   2.734  17.392  0.00  0.00    +0.000 C 
ENDBRANCH   6  10
ENDBRANCH   3   7
ENDBRANCH   1   5
BRANCH   2  17
ATOM     17  C   UNL     1      -0.745  11.467  21.432  0.00  0.00    +0.000 C 
ATOM     18  C   UNL     1      -0.723  12.554  20.370  0.00  0.00    +0.000 C 
ATOM     19  C   UNL     1      -1.191  11.741  22.683  0.00  0.00    +0.000 C 
BRANCH  19  20
ATOM     20  C   UNL     1      -1.605  13.136  23.099  0.00  0.00    +0.000 C 
ATOM     21  O   UNL     1      -0.910  13.831  23.804  0.00  0.00    +0.000 OA
ATOM     22  N   UNL     1      -2.871  13.536  22.667  0.00  0.00    +0.000 N 
ATOM     23  H   UNL     1      -3.535  12.824  22.405  0.00  0.00    +0.000 HD
BRANCH  22  24
ATOM     24  C   UNL     1      -3.378  14.799  23.085  0.00  0.00    +0.000 A 
ATOM     25  C   UNL     1      -2.927  15.967  22.462  0.00  0.00    +0.000 A 
ATOM     26  C   UNL     1      -3.499  17.200  22.795  0.00  0.00    +0.000 A 
ATOM     27 CL   UNL     1      -2.969  18.630  21.998  0.00  0.00    +0.000 Cl
ATOM     28  C   UNL     1      -4.517  17.285  23.746  0.00  0.00    +0.000 A 
ATOM     29  C   UNL     1      -4.947  16.131  24.402  0.00  0.00    +0.000 A 
ATOM     30  C   UNL     1      -4.367  14.899  24.078  0.00  0.00    +0.000 A 
BRANCH  30  31
ATOM     31  O   UNL     1      -4.711  13.788  24.801  0.00  0.00    +0.000 OA
ATOM     32  H   UNL     1      -4.890  14.068  25.712  0.00  0.00    +0.000 HD
ENDBRANCH  30  31
ENDBRANCH  22  24
ENDBRANCH  19  20
ENDBRANCH   2  17
TORSDOF 7
ENDMDL
MODEL 2
REMARK VINA RESULT:      -7.5      5.425     12.358
REMARK  Name = 
REMARK  12 active torsions:
REMARK  status: ('A' for Active; 'I' for Inactive)
REMARK    1  A    between atoms: C_1  and  C_2
REMARK    2  A    between atoms: C_3  and  C_4
REMARK    3  A    between atoms: C_5  and  C_6
REMARK    4  A    between atoms: C_6  and  C_7
REMARK    5  A    between atoms: C_8  and  C_9
REMARK    6  A    between atoms: C_10  and  C_11
REMARK    7  A    between atoms: C_11  and  C_12
REMARK    8  A    between atoms: C_13  and  C_14
REMARK    9  A    between atoms: N_16  and  C_17
REMARK   10  A    between atoms: C_23  and  O_24
REMARK   11  A    between atoms: C_25  and  C_26
REMARK   12  A    between atoms: C_25  and  C_27
REMARK                            x       y       z     vdW  Elec       q    Type
REMARK                         _______ _______ _______ _____ _____    ______ ____
ROOT
ATOM      1  C   UNL     1      -0.084  10.030  19.297  0.00  0.00    +0.000 C 
ATOM      2  C   UNL     1       0.929   9.323  19.848  0.00  0.00    +0.000 C 
ENDROOT
BRANCH   1   5
ATOM      3  C   UNL     1      -1.359  12.155  19.493  0.00  0.00    +0.000 C 
ATOM      4  C   UNL     1      -0.673  12.749  18.277  0.00  0.00    +0.000 C 
ATOM      5  C   UNL     1      -1.038  10.914  19.954  0.00  0.00    +0.000 C 
BRANCH   3   7
ATOM      6  C   UNL     1      -3.385  12.491  20.979  0.00  0.00    +0.000 C 
ATOM      7  C   UNL     1      -2.377  12.942  20.203  0.00  0.00    +0.000 C 
BRANCH   6  10
ATOM      8  C   UNL     1      -6.159  13.048  19.686  0.00  0.00    +0.000 C 
ATOM      9  C   UNL     1      -5.647  13.555  21.020  0.00  0.00    +0.000 C 
ATOM     10  C   UNL     1      -4.457  13.277  21.624  0.00  0.00    +0.000 C 
ATOM     11  C   UNL     1      -4.205  13.691  23.117  0.00  0.00    +0.000 C 
ATOM     12  C   UNL     1      -3.739  12.512  24.011  0.00  0.00    +0.000 C 
ATOM     13  C   UNL     1      -3.135  14.802  23.199  0.00  0.00    +0.000 C 
ATOM     14  C   UNL     1      -5.505  14.211  23.801  0.00  0.00    +0.000 C 
ATOM     15  C   UNL     1      -6.276  15.164  22.912  0.00  0.00    +0.000 C 
ATOM     16  C   UNL     1      -6.712  14.427  21.661  0.00  0.00    +0.000 C 
ENDBRANCH   6  10
ENDBRANCH   3   7
ENDBRANCH   1   5
BRANCH   2  17
ATOM     17  C   UNL     1       1.788   8.390  19.084  0.00  0.00    +0.000 C 
ATOM     18  C   UNL     1       2.171   8.774  17.664  0.00  0.00    +0.000 C 
ATOM     19  C   UNL     1       2.246   7.234  19.628  0.00  0.00    +0.000 C 
BRANCH  19  20
ATOM     20  C   UNL     1       3.078   6.250  18.835  0.00  0.00    +0.000 C 
ATOM     21  O   UNL     1       2.721   5.110  18.646  0.00  0.00    +0.000 OA
ATOM     22  N   UNL     1       4.313   6.731  18.395  0.00  0.00    +0.000 N 
ATOM     23  H   UNL     1       4.711   7.529  18.865  0.00  0.00    +0.000 HD
BRANCH  22  24
ATOM     24  C   UNL     1       5.199   5.847  17.717  0.00  0.00    +0.000 A 
ATOM     25  C   UNL     1       4.935   5.482  16.392  0.00  0.00    +0.000 A 
ATOM     26  C   UNL     1       5.857   4.700  15.688  0.00  0.00    +0.000 A 
ATOM     27 CL   UNL     1       5.547   4.287  14.046  0.00  0.00    +0.000 Cl
ATOM     28  C   UNL     1       7.042   4.272  16.289  0.00  0.00    +0.000 A 
ATOM     29  C   UNL     1       7.296   4.597  17.621  0.00  0.00    +0.000 A 
ATOM     30  C   UNL     1       6.369   5.369  18.330  0.00  0.00    +0.000 A 
BRANCH  30  31
ATOM     31  O   UNL     1       6.568   5.591  19.668  0.00  0.00    +0.000 OA
ATOM     32  H   UNL     1       7.500   5.826  19.797  0.00  0.00    +0.000 HD
ENDBRANCH  30  31
ENDBRANCH  22  24
ENDBRANCH  19  20
ENDBRANCH   2  17
TORSDOF 7
ENDMDL
MODEL 3
REMARK VINA RESULT:      -7.5      2.088      2.551
REMARK  Name = 
REMARK  12 active torsions:
REMARK  status: ('A' for Active; 'I' for Inactive)
REMARK    1  A    between atoms: C_1  and  C_2
REMARK    2  A    between atoms: C_3  and  C_4
REMARK    3  A    between atoms: C_5  and  C_6
REMARK    4  A    between atoms: C_6  and  C_7
REMARK    5  A    between atoms: C_8  and  C_9
REMARK    6  A    between atoms: C_10  and  C_11
REMARK    7  A    between atoms: C_11  and  C_12
REMARK    8  A    between atoms: C_13  and  C_14
REMARK    9  A    between atoms: N_16  and  C_17
REMARK   10  A    between atoms: C_23  and  O_24
REMARK   11  A    between atoms: C_25  and  C_26
REMARK   12  A    between atoms: C_25  and  C_27
REMARK                            x       y       z     vdW  Elec       q    Type
REMARK                         _______ _______ _______ _____ _____    ______ ____
ROOT
ATOM      1  C   UNL     1      -0.410  10.092  20.004  0.00  0.00    +0.000 C 
ATOM      2  C   UNL     1      -0.302  11.365  20.447  0.00  0.00    +0.000 C 
ENDROOT
BRANCH   1   5
ATOM      3  C   UNL     1       1.337   8.349  20.304  0.00  0.00    +0.000 C 
ATOM      4  C   UNL     1       1.120   8.303  21.806  0.00  0.00    +0.000 C 
ATOM      5  C   UNL     1       0.639   9.208  19.511  0.00  0.00    +0.000 C 
BRANCH   3   7
ATOM      6  C   UNL     1       2.200   6.684  18.600  0.00  0.00    +0.000 C 
ATOM      7  C   UNL     1       2.337   7.462  19.693  0.00  0.00    +0.000 C 
BRANCH   6  10
ATOM      8  C   UNL     1       4.773   7.521  17.064  0.00  0.00    +0.000 C 
ATOM      9  C   UNL     1       4.270   6.114  17.319  0.00  0.00    +0.000 C 
ATOM     10  C   UNL     1       3.176   5.729  18.035  0.00  0.00    +0.000 C 
ATOM     11  C   UNL     1       2.954   4.218  18.401  0.00  0.00    +0.000 C 
ATOM     12  C   UNL     1       2.729   3.981  19.918  0.00  0.00    +0.000 C 
ATOM     13  C   UNL     1       1.733   3.651  17.644  0.00  0.00    +0.000 C 
ATOM     14  C   UNL     1       4.197   3.348  18.048  0.00  0.00    +0.000 C 
ATOM     15  C   UNL     1       4.758   3.680  16.681  0.00  0.00    +0.000 C 
ATOM     16  C   UNL     1       5.225   5.123  16.677  0.00  0.00    +0.000 C 
ENDBRANCH   6  10
ENDBRANCH   3   7
ENDBRANCH   1   5
BRANCH   2  17
ATOM     17  C   UNL     1      -1.462  12.194  20.851  0.00  0.00    +0.000 C 
ATOM     18  C   UNL     1      -2.077  13.114  19.810  0.00  0.00    +0.000 C 
ATOM     19  C   UNL     1      -1.984  12.128  22.102  0.00  0.00    +0.000 C 
BRANCH  19  20
ATOM     20  C   UNL     1      -3.132  13.011  22.538  0.00  0.00    +0.000 C 
ATOM     21  O   UNL     1      -2.957  14.047  23.138  0.00  0.00    +0.000 OA
ATOM     22  N   UNL     1      -4.406  12.514  22.258  0.00  0.00    +0.000 N 
ATOM     23  H   UNL     1      -4.510  11.525  22.093  0.00  0.00    +0.000 HD
BRANCH  22  24
ATOM     24  C   UNL     1      -5.547  13.236  22.710  0.00  0.00    +0.000 A 
ATOM     25  C   UNL     1      -6.006  14.336  21.977  0.00  0.00    +0.000 A 
ATOM     26  C   UNL     1      -7.186  14.983  22.358  0.00  0.00    +0.000 A 
ATOM     27 CL   UNL     1      -7.769  16.311  21.430  0.00  0.00    +0.000 Cl
ATOM     28  C   UNL     1      -7.917  14.551  23.466  0.00  0.00    +0.000 A 
ATOM     29  C   UNL     1      -7.446  13.481  24.227  0.00  0.00    +0.000 A 
ATOM     30  C   UNL     1      -6.260  12.840  23.853  0.00  0.00    +0.000 A 
BRANCH  30  31
ATOM     31  O   UNL     1      -5.743  11.864  24.665  0.00  0.00    +0.000 OA
ATOM     32  H   UNL     1      -6.214  11.038  24.477  0.00  0.00    +0.000 HD
ENDBRANCH  30  31
ENDBRANCH  22  24
ENDBRANCH  19  20
ENDBRANCH   2  17
TORSDOF 7
ENDMDL
MODEL 4
REMARK VINA RESULT:      -7.5      5.393     12.353
REMARK  Name = 
REMARK  12 active torsions:
REMARK  status: ('A' for Active; 'I' for Inactive)
REMARK    1  A    between atoms: C_1  and  C_2
REMARK    2  A    between atoms: C_3  and  C_4
REMARK    3  A    between atoms: C_5  and  C_6
REMARK    4  A    between atoms: C_6  and  C_7
REMARK    5  A    between atoms: C_8  and  C_9
REMARK    6  A    between atoms: C_10  and  C_11
REMARK    7  A    between atoms: C_11  and  C_12
REMARK    8  A    between atoms: C_13  and  C_14
REMARK    9  A    between atoms: N_16  and  C_17
REMARK   10  A    between atoms: C_23  and  O_24
REMARK   11  A    between atoms: C_25  and  C_26
REMARK   12  A    between atoms: C_25  and  C_27
REMARK                            x       y       z     vdW  Elec       q    Type
REMARK                         _______ _______ _______ _____ _____    ______ ____
ROOT
ATOM      1  C   UNL     1       1.114   9.853  20.671  0.00  0.00    +0.000 C 
ATOM      2  C   UNL     1       0.825   8.949  19.708  0.00  0.00    +0.000 C 
ENDROOT
BRANCH   1   5
ATOM      3  C   UNL     1      -0.330  10.665  22.524  0.00  0.00    +0.000 C 
ATOM      4  C   UNL     1      -0.132   9.388  23.320  0.00  0.00    +0.000 C 
ATOM      5  C   UNL     1       0.232  10.831  21.295  0.00  0.00    +0.000 C 
BRANCH   3   7
ATOM      6  C   UNL     1      -1.865  12.679  22.417  0.00  0.00    +0.000 C 
ATOM      7  C   UNL     1      -1.161  11.741  23.084  0.00  0.00    +0.000 C 
BRANCH   6  10
ATOM      8  C   UNL     1      -0.722  15.548  22.795  0.00  0.00    +0.000 C 
ATOM      9  C   UNL     1      -2.099  15.047  23.186  0.00  0.00    +0.000 C 
ATOM     10  C   UNL     1      -2.632  13.810  22.979  0.00  0.00    +0.000 C 
ATOM     11  C   UNL     1      -4.160  13.550  23.228  0.00  0.00    +0.000 C 
ATOM     12  C   UNL     1      -4.881  12.914  22.010  0.00  0.00    +0.000 C 
ATOM     13  C   UNL     1      -4.361  12.615  24.440  0.00  0.00    +0.000 C 
ATOM     14  C   UNL     1      -4.938  14.874  23.496  0.00  0.00    +0.000 C 
ATOM     15  C   UNL     1      -4.199  15.785  24.454  0.00  0.00    +0.000 C 
ATOM     16  C   UNL     1      -2.873  16.181  23.835  0.00  0.00    +0.000 C 
ENDBRANCH   6  10
ENDBRANCH   3   7
ENDBRANCH   1   5
BRANCH   2  17
ATOM     17  C   UNL     1       1.834   8.055  19.093  0.00  0.00    +0.000 C 
ATOM     18  C   UNL     1       2.418   8.458  17.749  0.00  0.00    +0.000 C 
ATOM     19  C   UNL     1       2.249   6.919  19.708  0.00  0.00    +0.000 C 
BRANCH  19  20
ATOM     20  C   UNL     1       3.237   5.973  19.061  0.00  0.00    +0.000 C 
ATOM     21  O   UNL     1       3.265   4.792  19.323  0.00  0.00    +0.000 OA
ATOM     22  N   UNL     1       4.153   6.570  18.193  0.00  0.00    +0.000 N 
ATOM     23  H   UNL     1       4.322   7.560  18.280  0.00  0.00    +0.000 HD
BRANCH  22  24
ATOM     24  C   UNL     1       5.175   5.770  17.607  0.00  0.00    +0.000 A 
ATOM     25  C   UNL     1       5.079   5.401  16.261  0.00  0.00    +0.000 A 
ATOM     26  C   UNL     1       6.130   4.706  15.653  0.00  0.00    +0.000 A 
ATOM     27 CL   UNL     1       6.026   4.288  13.987  0.00  0.00    +0.000 Cl
ATOM     28  C   UNL     1       7.278   4.368  16.371  0.00  0.00    +0.000 A 
ATOM     29  C   UNL     1       7.367   4.697  17.724  0.00  0.00    +0.000 A 
ATOM     30  C   UNL     1       6.311   5.382  18.336  0.00  0.00    +0.000 A 
BRANCH  30  31
ATOM     31  O   UNL     1       6.352   5.603  19.688  0.00  0.00    +0.000 OA
ATOM     32  H   UNL     1       7.113   6.174  19.875  0.00  0.00    +0.000 HD
ENDBRANCH  30  31
ENDBRANCH  22  24
ENDBRANCH  19  20
ENDBRANCH   2  17
TORSDOF 7
ENDMDL
MODEL 5
REMARK VINA RESULT:      -7.4      2.241      2.774
REMARK  Name = 
REMARK  12 active torsions:
REMARK  status: ('A' for Active; 'I' for Inactive)
REMARK    1  A    between atoms: C_1  and  C_2
REMARK    2  A    between atoms: C_3  and  C_4
REMARK    3  A    between atoms: C_5  and  C_6
REMARK    4  A    between atoms: C_6  and  C_7
REMARK    5  A    between atoms: C_8  and  C_9
REMARK    6  A    between atoms: C_10  and  C_11
REMARK    7  A    between atoms: C_11  and  C_12
REMARK    8  A    between atoms: C_13  and  C_14
REMARK    9  A    between atoms: N_16  and  C_17
REMARK   10  A    between atoms: C_23  and  O_24
REMARK   11  A    between atoms: C_25  and  C_26
REMARK   12  A    between atoms: C_25  and  C_27
REMARK                            x       y       z     vdW  Elec       q    Type
REMARK                         _______ _______ _______ _____ _____    ______ ____
ROOT
ATOM      1  C   UNL     1      -0.165  10.528  20.097  0.00  0.00    +0.000 C 
ATOM      2  C   UNL     1      -1.079  11.244  19.404  0.00  0.00    +0.000 C 
ENDROOT
BRANCH   1   5
ATOM      3  C   UNL     1       1.355   8.579  20.355  0.00  0.00    +0.000 C 
ATOM      4  C   UNL     1       1.036   8.448  21.833  0.00  0.00    +0.000 C 
ATOM      5  C   UNL     1       0.810   9.569  19.596  0.00  0.00    +0.000 C 
BRANCH   3   7
ATOM      6  C   UNL     1       2.031   6.720  18.771  0.00  0.00    +0.000 C 
ATOM      7  C   UNL     1       2.289   7.629  19.733  0.00  0.00    +0.000 C 
BRANCH   6  10
ATOM      8  C   UNL     1       4.497   7.398  17.000  0.00  0.00    +0.000 C 
ATOM      9  C   UNL     1       3.993   6.022  17.387  0.00  0.00    +0.000 C 
ATOM     10  C   UNL     1       2.948   5.709  18.204  0.00  0.00    +0.000 C 
ATOM     11  C   UNL     1       2.729   4.232  18.689  0.00  0.00    +0.000 C 
ATOM     12  C   UNL     1       2.612   4.102  20.230  0.00  0.00    +0.000 C 
ATOM     13  C   UNL     1       1.448   3.639  18.063  0.00  0.00    +0.000 C 
ATOM     14  C   UNL     1       3.930   3.314  18.309  0.00  0.00    +0.000 C 
ATOM     15  C   UNL     1       4.395   3.542  16.886  0.00  0.00    +0.000 C 
ATOM     16  C   UNL     1       4.883   4.970  16.748  0.00  0.00    +0.000 C 
ENDBRANCH   6  10
ENDBRANCH   3   7
ENDBRANCH   1   5
BRANCH   2  17
ATOM     17  C   UNL     1      -2.077  12.136  20.039  0.00  0.00    +0.000 C 
ATOM     18  C   UNL     1      -1.565  13.301  20.869  0.00  0.00    +0.000 C 
ATOM     19  C   UNL     1      -3.410  11.945  19.876  0.00  0.00    +0.000 C 
BRANCH  19  20
ATOM     20  C   UNL     1      -4.435  12.817  20.567  0.00  0.00    +0.000 C 
ATOM     21  O   UNL     1      -4.910  13.796  20.038  0.00  0.00    +0.000 OA
ATOM     22  N   UNL     1      -4.744  12.451  21.878  0.00  0.00    +0.000 N 
ATOM     23  H   UNL     1      -4.087  11.876  22.383  0.00  0.00    +0.000 HD
BRANCH  22  24
ATOM     24  C   UNL     1      -5.632  13.267  22.634  0.00  0.00    +0.000 A 
ATOM     25  C   UNL     1      -5.174  14.472  23.177  0.00  0.00    +0.000 A 
ATOM     26  C   UNL     1      -6.068  15.327  23.830  0.00  0.00    +0.000 A 
ATOM     27 CL   UNL     1      -5.509  16.827  24.462  0.00  0.00    +0.000 Cl
ATOM     28  C   UNL     1      -7.418  14.995  23.954  0.00  0.00    +0.000 A 
ATOM     29  C   UNL     1      -7.878  13.777  23.451  0.00  0.00    +0.000 A 
ATOM     30  C   UNL     1      -6.982  12.917  22.808  0.00  0.00    +0.000 A 
BRANCH  30  31
ATOM     31  O   UNL     1      -7.411  11.676  22.416  0.00  0.00    +0.000 OA
ATOM     32  H   UNL     1      -7.582  11.153  23.214  0.00  0.00    +0.000 HD
ENDBRANCH  30  31
ENDBRANCH  22  24
ENDBRANCH  19  20
ENDBRANCH   2  17
TORSDOF 7
ENDMDL
MODEL 6
REMARK VINA RESULT:      -7.4      1.367      1.580
REMARK  Name = 
REMARK  12 active torsions:
REMARK  status: ('A' for Active; 'I' for Inactive)
REMARK    1  A    between atoms: C_1  and  C_2
REMARK    2  A    between atoms: C_3  and  C_4
REMARK    3  A    between atoms: C_5  and  C_6
REMARK    4  A    between atoms: C_6  and  C_7
REMARK    5  A    between atoms: C_8  and  C_9
REMARK    6  A    between atoms: C_10  and  C_11
REMARK    7  A    between atoms: C_11  and  C_12
REMARK    8  A    between atoms: C_13  and  C_14
REMARK    9  A    between atoms: N_16  and  C_17
REMARK   10  A    between atoms: C_23  and  O_24
REMARK   11  A    between atoms: C_25  and  C_26
REMARK   12  A    between atoms: C_25  and  C_27
REMARK                            x       y       z     vdW  Elec       q    Type
REMARK                         _______ _______ _______ _____ _____    ______ ____
ROOT
ATOM      1  C   UNL     1       0.546   9.931  20.333  0.00  0.00    +0.000 C 
ATOM      2  C   UNL     1      -0.692  10.376  20.020  0.00  0.00    +0.000 C 
ENDROOT
BRANCH   1   5
ATOM      3  C   UNL     1       1.917   8.500  18.833  0.00  0.00    +0.000 C 
ATOM      4  C   UNL     1       2.074   9.613  17.813  0.00  0.00    +0.000 C 
ATOM      5  C   UNL     1       1.180   8.671  19.964  0.00  0.00    +0.000 C 
BRANCH   3   7
ATOM      6  C   UNL     1       2.023   5.970  18.714  0.00  0.00    +0.000 C 
ATOM      7  C   UNL     1       2.560   7.201  18.586  0.00  0.00    +0.000 C 
BRANCH   6  10
ATOM      8  C   UNL     1       4.446   5.480  16.825  0.00  0.00    +0.000 C 
ATOM      9  C   UNL     1       3.719   4.456  17.674  0.00  0.00    +0.000 C 
ATOM     10  C   UNL     1       2.693   4.664  18.546  0.00  0.00    +0.000 C 
ATOM     11  C   UNL     1       2.234   3.524  19.524  0.00  0.00    +0.000 C 
ATOM     12  C   UNL     1       2.201   3.966  21.011  0.00  0.00    +0.000 C 
ATOM     13  C   UNL     1       0.824   3.020  19.146  0.00  0.00    +0.000 C 
ATOM     14  C   UNL     1       3.212   2.310  19.498  0.00  0.00    +0.000 C 
ATOM     15  C   UNL     1       3.612   1.929  18.088  0.00  0.00    +0.000 C 
ATOM     16  C   UNL     1       4.350   3.092  17.453  0.00  0.00    +0.000 C 
ENDBRANCH   6  10
ENDBRANCH   3   7
ENDBRANCH   1   5
BRANCH   2  17
ATOM     17  C   UNL     1      -1.257  11.650  20.523  0.00  0.00    +0.000 C 
ATOM     18  C   UNL     1      -2.359  12.310  19.711  0.00  0.00    +0.000 C 
ATOM     19  C   UNL     1      -0.831  12.210  21.682  0.00  0.00    +0.000 C 
BRANCH  19  20
ATOM     20  C   UNL     1      -1.364  13.538  22.174  0.00  0.00    +0.000 C 
ATOM     21  O   UNL     1      -0.988  14.593  21.716  0.00  0.00    +0.000 OA
ATOM     22  N   UNL     1      -2.268  13.462  23.234  0.00  0.00    +0.000 N 
ATOM     23  H   UNL     1      -2.275  12.627  23.800  0.00  0.00    +0.000 HD
BRANCH  22  24
ATOM     24  C   UNL     1      -2.755  14.666  23.819  0.00  0.00    +0.000 A 
ATOM     25  C   UNL     1      -4.050  15.106  23.523  0.00  0.00    +0.000 A 
ATOM     26  C   UNL     1      -4.570  16.228  24.175  0.00  0.00    +0.000 A 
ATOM     27 CL   UNL     1      -6.177  16.744  23.838  0.00  0.00    +0.000 Cl
ATOM     28  C   UNL     1      -3.813  16.924  25.119  0.00  0.00    +0.000 A 
ATOM     29  C   UNL     1      -2.507  16.517  25.393  0.00  0.00    +0.000 A 
ATOM     30  C   UNL     1      -1.982  15.401  24.733  0.00  0.00    +0.000 A 
BRANCH  30  31
ATOM     31  O   UNL     1      -0.665  15.073  24.919  0.00  0.00    +0.000 OA
ATOM     32  H   UNL     1      -0.626  14.340  25.552  0.00  0.00    +0.000 HD
ENDBRANCH  30  31
ENDBRANCH  22  24
ENDBRANCH  19  20
ENDBRANCH   2  17
TORSDOF 7
ENDMDL
MODEL 7
REMARK VINA RESULT:      -7.3      5.495     12.600
REMARK  Name = 
REMARK  12 active torsions:
REMARK  status: ('A' for Active; 'I' for Inactive)
REMARK    1  A    between atoms: C_1  and  C_2
REMARK    2  A    between atoms: C_3  and  C_4
REMARK    3  A    between atoms: C_5  and  C_6
REMARK    4  A    between atoms: C_6  and  C_7
REMARK    5  A    between atoms: C_8  and  C_9
REMARK    6  A    between atoms: C_10  and  C_11
REMARK    7  A    between atoms: C_11  and  C_12
REMARK    8  A    between atoms: C_13  and  C_14
REMARK    9  A    between atoms: N_16  and  C_17
REMARK   10  A    between atoms: C_23  and  O_24
REMARK   11  A    between atoms: C_25  and  C_26
REMARK   12  A    between atoms: C_25  and  C_27
REMARK                            x       y       z     vdW  Elec       q    Type
REMARK                         _______ _______ _______ _____ _____    ______ ____
ROOT
ATOM      1  C   UNL     1       0.775  10.202  20.790  0.00  0.00    +0.000 C 
ATOM      2  C   UNL     1       0.707   9.518  19.625  0.00  0.00    +0.000 C 
ENDROOT
BRANCH   1   5
ATOM      3  C   UNL     1      -0.720  11.459  22.327  0.00  0.00    +0.000 C 
ATOM      4  C   UNL     1      -0.899  10.256  23.235  0.00  0.00    +0.000 C 
ATOM      5  C   UNL     1       0.030  11.387  21.193  0.00  0.00    +0.000 C 
BRANCH   3   7
ATOM      6  C   UNL     1      -2.393  12.924  23.543  0.00  0.00    +0.000 C 
ATOM      7  C   UNL     1      -1.387  12.724  22.667  0.00  0.00    +0.000 C 
BRANCH   6  10
ATOM      8  C   UNL     1      -1.188  15.320  25.120  0.00  0.00    +0.000 C 
ATOM      9  C   UNL     1      -2.592  15.198  24.563  0.00  0.00    +0.000 C 
ATOM     10  C   UNL     1      -3.118  14.180  23.825  0.00  0.00    +0.000 C 
ATOM     11  C   UNL     1      -4.513  14.342  23.123  0.00  0.00    +0.000 C 
ATOM     12  C   UNL     1      -4.477  14.027  21.604  0.00  0.00    +0.000 C 
ATOM     13  C   UNL     1      -5.561  13.415  23.777  0.00  0.00    +0.000 C 
ATOM     14  C   UNL     1      -5.036  15.808  23.206  0.00  0.00    +0.000 C 
ATOM     15  C   UNL     1      -4.854  16.402  24.587  0.00  0.00    +0.000 C 
ATOM     16  C   UNL     1      -3.374  16.453  24.911  0.00  0.00    +0.000 C 
ENDBRANCH   6  10
ENDBRANCH   3   7
ENDBRANCH   1   5
BRANCH   2  17
ATOM     17  C   UNL     1       1.579   8.365  19.299  0.00  0.00    +0.000 C 
ATOM     18  C   UNL     1       1.959   7.418  20.426  0.00  0.00    +0.000 C 
ATOM     19  C   UNL     1       2.014   8.135  18.035  0.00  0.00    +0.000 C 
BRANCH  19  20
ATOM     20  C   UNL     1       2.949   6.992  17.704  0.00  0.00    +0.000 C 
ATOM     21  O   UNL     1       2.570   5.844  17.652  0.00  0.00    +0.000 OA
ATOM     22  N   UNL     1       4.287   7.348  17.529  0.00  0.00    +0.000 N 
ATOM     23  H   UNL     1       4.607   8.219  17.924  0.00  0.00    +0.000 HD
BRANCH  22  24
ATOM     24  C   UNL     1       5.252   6.326  17.302  0.00  0.00    +0.000 A 
ATOM     25  C   UNL     1       5.657   6.034  15.995  0.00  0.00    +0.000 A 
ATOM     26  C   UNL     1       6.681   5.106  15.774  0.00  0.00    +0.000 A 
ATOM     27 CL   UNL     1       7.203   4.779  14.167  0.00  0.00    +0.000 Cl
ATOM     28  C   UNL     1       7.306   4.460  16.841  0.00  0.00    +0.000 A 
ATOM     29  C   UNL     1       6.882   4.714  18.146  0.00  0.00    +0.000 A 
ATOM     30  C   UNL     1       5.851   5.634  18.367  0.00  0.00    +0.000 A 
BRANCH  30  31
ATOM     31  O   UNL     1       5.363   5.797  19.637  0.00  0.00    +0.000 OA
ATOM     32  H   UNL     1       5.462   4.954  20.107  0.00  0.00    +0.000 HD
ENDBRANCH  30  31
ENDBRANCH  22  24
ENDBRANCH  19  20
ENDBRANCH   2  17
TORSDOF 7
ENDMDL
MODEL 8
REMARK VINA RESULT:      -7.3      1.793      2.065
REMARK  Name = 
REMARK  12 active torsions:
REMARK  status: ('A' for Active; 'I' for Inactive)
REMARK    1  A    between atoms: C_1  and  C_2
REMARK    2  A    between atoms: C_3  and  C_4
REMARK    3  A    between atoms: C_5  and  C_6
REMARK    4  A    between atoms: C_6  and  C_7
REMARK    5  A    between atoms: C_8  and  C_9
REMARK    6  A    between atoms: C_10  and  C_11
REMARK    7  A    between atoms: C_11  and  C_12
REMARK    8  A    between atoms: C_13  and  C_14
REMARK    9  A    between atoms: N_16  and  C_17
REMARK   10  A    between atoms: C_23  and  O_24
REMARK   11  A    between atoms: C_25  and  C_26
REMARK   12  A    between atoms: C_25  and  C_27
REMARK                            x       y       z     vdW  Elec       q    Type
REMARK                         _______ _______ _______ _____ _____    ______ ____
ROOT
ATOM      1  C   UNL     1       0.005  10.635  19.905  0.00  0.00    +0.000 C 
ATOM      2  C   UNL     1      -1.086  11.333  19.517  0.00  0.00    +0.000 C 
ENDROOT
BRANCH   1   5
ATOM      3  C   UNL     1       1.576   9.392  18.433  0.00  0.00    +0.000 C 
ATOM      4  C   UNL     1       2.183  10.675  17.895  0.00  0.00    +0.000 C 
ATOM      5  C   UNL     1       0.553   9.412  19.332  0.00  0.00    +0.000 C 
BRANCH   3   7
ATOM      6  C   UNL     1       2.945   7.265  18.589  0.00  0.00    +0.000 C 
ATOM      7  C   UNL     1       2.091   8.098  17.961  0.00  0.00    +0.000 C 
BRANCH   6  10
ATOM      8  C   UNL     1       5.648   7.083  17.059  0.00  0.00    +0.000 C 
ATOM      9  C   UNL     1       4.686   5.952  17.365  0.00  0.00    +0.000 C 
ATOM     10  C   UNL     1       3.527   6.005  18.080  0.00  0.00    +0.000 C 
ATOM     11  C   UNL     1       2.791   4.685  18.505  0.00  0.00    +0.000 C 
ATOM     12  C   UNL     1       2.498   4.609  20.027  0.00  0.00    +0.000 C 
ATOM     13  C   UNL     1       1.449   4.545  17.755  0.00  0.00    +0.000 C 
ATOM     14  C   UNL     1       3.652   3.421  18.209  0.00  0.00    +0.000 C 
ATOM     15  C   UNL     1       4.293   3.475  16.838  0.00  0.00    +0.000 C 
ATOM     16  C   UNL     1       5.235   4.662  16.780  0.00  0.00    +0.000 C 
ENDBRANCH   6  10
ENDBRANCH   3   7
ENDBRANCH   1   5
BRANCH   2  17
ATOM     17  C   UNL     1      -1.594  12.527  20.233  0.00  0.00    +0.000 C 
ATOM     18  C   UNL     1      -0.586  13.577  20.669  0.00  0.00    +0.000 C 
ATOM     19  C   UNL     1      -2.916  12.701  20.480  0.00  0.00    +0.000 C 
BRANCH  19  20
ATOM     20  C   UNL     1      -3.436  13.890  21.259  0.00  0.00    +0.000 C 
ATOM     21  O   UNL     1      -3.611  14.971  20.745  0.00  0.00    +0.000 OA
ATOM     22  N   UNL     1      -3.636  13.668  22.622  0.00  0.00    +0.000 N 
ATOM     23  H   UNL     1      -3.153  12.898  23.058  0.00  0.00    +0.000 HD
BRANCH  22  24
ATOM     24  C   UNL     1      -4.039  14.754  23.449  0.00  0.00    +0.000 A 
ATOM     25  C   UNL     1      -3.071  15.519  24.110  0.00  0.00    +0.000 A 
ATOM     26  C   UNL     1      -3.455  16.650  24.838  0.00  0.00    +0.000 A 
ATOM     27 CL   UNL     1      -2.258  17.611  25.616  0.00  0.00    +0.000 Cl
ATOM     28  C   UNL     1      -4.795  17.030  24.920  0.00  0.00    +0.000 A 
ATOM     29  C   UNL     1      -5.772  16.252  24.298  0.00  0.00    +0.000 A 
ATOM     30  C   UNL     1      -5.391  15.114  23.579  0.00  0.00    +0.000 A 
BRANCH  30  31
ATOM     31  O   UNL     1      -6.359  14.292  23.066  0.00  0.00    +0.000 OA
ATOM     32  H   UNL     1      -6.933  14.825  22.495  0.00  0.00    +0.000 HD
ENDBRANCH  30  31
ENDBRANCH  22  24
ENDBRANCH  19  20
ENDBRANCH   2  17
TORSDOF 7
ENDMDL
MODEL 9
REMARK VINA RESULT:      -7.3      5.349     12.370
REMARK  Name = 
REMARK  12 active torsions:
REMARK  status: ('A' for Active; 'I' for Inactive)
REMARK    1  A    between atoms: C_1  and  C_2
REMARK    2  A    between atoms: C_3  and  C_4
REMARK    3  A    between atoms: C_5  and  C_6
REMARK    4  A    between atoms: C_6  and  C_7
REMARK    5  A    between atoms: C_8  and  C_9
REMARK    6  A    between atoms: C_10  and  C_11
REMARK    7  A    between atoms: C_11  and  C_12
REMARK    8  A    between atoms: C_13  and  C_14
REMARK    9  A    between atoms: N_16  and  C_17
REMARK   10  A    between atoms: C_23  and  O_24
REMARK   11  A    between atoms: C_25  and  C_26
REMARK   12  A    between atoms: C_25  and  C_27
REMARK                            x       y       z     vdW  Elec       q    Type
REMARK                         _______ _______ _______ _____ _____    ______ ____
ROOT
ATOM      1  C   UNL     1       0.642  10.559  19.459  0.00  0.00    +0.000 C 
ATOM      2  C   UNL     1       0.948   9.314  19.888  0.00  0.00    +0.000 C 
ENDROOT
BRANCH   1   5
ATOM      3  C   UNL     1      -1.339  12.061  19.477  0.00  0.00    +0.000 C 
ATOM      4  C   UNL     1      -1.708  11.692  18.052  0.00  0.00    +0.000 C 
ATOM      5  C   UNL     1      -0.232  11.546  20.081  0.00  0.00    +0.000 C 
BRANCH   3   7
ATOM      6  C   UNL     1      -2.169  13.279  21.539  0.00  0.00    +0.000 C 
ATOM      7  C   UNL     1      -2.183  13.010  20.217  0.00  0.00    +0.000 C 
BRANCH   6  10
ATOM      8  C   UNL     1      -1.823  16.366  21.724  0.00  0.00    +0.000 C 
ATOM      9  C   UNL     1      -2.874  15.515  22.408  0.00  0.00    +0.000 C 
ATOM     10  C   UNL     1      -3.072  14.171  22.295  0.00  0.00    +0.000 C 
ATOM     11  C   UNL     1      -4.366  13.503  22.883  0.00  0.00    +0.000 C 
ATOM     12  C   UNL     1      -5.139  12.646  21.847  0.00  0.00    +0.000 C 
ATOM     13  C   UNL     1      -4.011  12.597  24.082  0.00  0.00    +0.000 C 
ATOM     14  C   UNL     1      -5.400  14.567  23.362  0.00  0.00    +0.000 C 
ATOM     15  C   UNL     1      -4.748  15.684  24.148  0.00  0.00    +0.000 C 
ATOM     16  C   UNL     1      -3.765  16.411  23.251  0.00  0.00    +0.000 C 
ENDBRANCH   6  10
ENDBRANCH   3   7
ENDBRANCH   1   5
BRANCH   2  17
ATOM     17  C   UNL     1       1.794   8.368  19.124  0.00  0.00    +0.000 C 
ATOM     18  C   UNL     1       2.100   8.699  17.672  0.00  0.00    +0.000 C 
ATOM     19  C   UNL     1       2.304   7.247  19.693  0.00  0.00    +0.000 C 
BRANCH  19  20
ATOM     20  C   UNL     1       3.122   6.248  18.904  0.00  0.00    +0.000 C 
ATOM     21  O   UNL     1       2.787   5.092  18.783  0.00  0.00    +0.000 OA
ATOM     22  N   UNL     1       4.320   6.739  18.381  0.00  0.00    +0.000 N 
ATOM     23  H   UNL     1       4.720   7.567  18.794  0.00  0.00    +0.000 HD
BRANCH  22  24
ATOM     24  C   UNL     1       5.195   5.847  17.699  0.00  0.00    +0.000 A 
ATOM     25  C   UNL     1       4.934   5.503  16.368  0.00  0.00    +0.000 A 
ATOM     26  C   UNL     1       5.847   4.713  15.661  0.00  0.00    +0.000 A 
ATOM     27 CL   UNL     1       5.542   4.325  14.012  0.00  0.00    +0.000 Cl
ATOM     28  C   UNL     1       7.019   4.255  16.265  0.00  0.00    +0.000 A 
ATOM     29  C   UNL     1       7.269   4.559  17.604  0.00  0.00    +0.000 A 
ATOM     30  C   UNL     1       6.351   5.340  18.315  0.00  0.00    +0.000 A 
BRANCH  30  31
ATOM     31  O   UNL     1       6.544   5.541  19.657  0.00  0.00    +0.000 OA
ATOM     32  H   UNL     1       6.073   4.841  20.135  0.00  0.00    +0.000 HD
ENDBRANCH  30  31
ENDBRANCH  22  24
ENDBRANCH  19  20
ENDBRANCH   2  17
TORSDOF 7
ENDMDL
