MODEL 1
REMARK VINA RESULT:      -8.2      0.000      0.000
REMARK  Name = 
REMARK  5 active torsions:
REMARK  status: ('A' for Active; 'I' for Inactive)
REMARK    1  A    between atoms: C_1  and  N_2
REMARK    2  A    between atoms: C_4  and  C_5
REMARK    3  A    between atoms: C_8  and  C_9
REMARK    4  A    between atoms: C_16  and  S_17
REMARK    5  A    between atoms: S_17  and  N_18
REMARK                            x       y       z     vdW  Elec       q    Type
REMARK                         _______ _______ _______ _____ _____    ______ ____
ROOT
ATOM      1  C   UNL     1       2.584   6.531  18.711  0.00  0.00    +0.000 A 
ATOM      2  C   UNL     1       2.051   5.288  19.049  0.00  0.00    +0.000 A 
ATOM      3  N   UNL     1       2.802   4.182  19.221  0.00  0.00    +0.000 NA
ATOM      4  C   UNL     1       4.134   4.397  19.246  0.00  0.00    +0.000 A 
ATOM      5  C   UNL     1       4.753   5.598  18.919  0.00  0.00    +0.000 A 
ATOM      6  C   UNL     1       6.151   5.588  18.822  0.00  0.00    +0.000 A 
ATOM      7  C   UNL     1       6.710   5.623  17.567  0.00  0.00    +0.000 A 
ATOM      8  C   UNL     1       5.822   5.693  16.509  0.00  0.00    +0.000 A 
ATOM      9  C   UNL     1       4.454   6.165  16.759  0.00  0.00    +0.000 A 
ATOM     10  C   UNL     1       3.943   6.386  18.130  0.00  0.00    +0.000 A 
ENDROOT
BRANCH   1  14
ATOM     11  C   UNL     1       0.577   9.879  21.140  0.00  0.00    +0.000 A 
ATOM     12  C   UNL     1       1.013   8.682  21.713  0.00  0.00    +0.000 A 
ATOM     13  C   UNL     1       1.686   7.669  20.933  0.00  0.00    +0.000 A 
ATOM     14  C   UNL     1       1.960   7.744  19.528  0.00  0.00    +0.000 A 
ATOM     15  C   UNL     1       1.559   8.978  18.991  0.00  0.00    +0.000 A 
ATOM     16  C   UNL     1       0.886  10.003  19.773  0.00  0.00    +0.000 A 
BRANCH  11  20
ATOM     17  C   UNL     1      -1.098  14.333  22.849  0.00  0.00    +0.000 C 
ATOM     18  N   UNL     1      -0.891  12.906  22.645  0.00  0.00    +0.000 N 
ATOM     19  C   UNL     1      -0.075  12.297  21.715  0.00  0.00    +0.000 A 
ATOM     20  C   UNL     1      -0.153  10.925  21.919  0.00  0.00    +0.000 A 
ATOM     21  C   UNL     1      -1.081  10.842  23.003  0.00  0.00    +0.000 A 
ATOM     22  N   UNL     1      -1.520  12.037  23.440  0.00  0.00    +0.000 NA
ENDBRANCH  11  20
ENDBRANCH   1  14
BRANCH   8  23
ATOM     23  S   UNL     1       6.434   4.851  15.036  0.00  0.00    +0.000 S 
ATOM     24  O   UNL     1       5.412   4.835  14.012  0.00  0.00    +0.000 OA
ATOM     25  O   UNL     1       7.793   5.259  14.789  0.00  0.00    +0.000 OA
BRANCH  23  26
ATOM     26  N   UNL     1       6.563   3.224  15.543  0.00  0.00    +0.000 NA
ATOM     27  H   UNL     1       6.992   2.650  14.812  0.00  0.00    +0.000 HD
ATOM     28  H   UNL     1       7.078   3.160  16.426  0.00  0.00    +0.000 HD
ENDBRANCH  23  26
ENDBRANCH   8  23
TORSDOF 4
ENDMDL
MODEL 2
REMARK VINA RESULT:      -8.0      0.665      1.153
REMARK  Name = 
REMARK  5 active torsions:
REMARK  status: ('A' for Active; 'I' for Inactive)
REMARK    1  A    between atoms: C_1  and  N_2
REMARK    2  A    between atoms: C_4  and  C_5
REMARK    3  A    between atoms: C_8  and  C_9
REMARK    4  A    between atoms: C_16  and  S_17
REMARK    5  A    between atoms: S_17  and  N_18
REMARK                            x       y       z     vdW  Elec       q    Type
REMARK                         _______ _______ _______ _____ _____    ______ ____
ROOT
ATOM      1  C   UNL     1       2.446   6.420  18.708  0.00  0.00    +0.000 A 
ATOM      2  C   UNL     1       1.796   5.192  18.827  0.00  0.00    +0.000 A 
ATOM      3  N   UNL     1       2.442   4.029  19.044  0.00  0.00    +0.000 NA
ATOM      4  C   UNL     1       3.751   4.155  19.346  0.00  0.00    +0.000 A 
ATOM      5  C   UNL     1       4.481   5.333  19.252  0.00  0.00    +0.000 A 
ATOM      6  C   UNL     1       5.868   5.240  19.428  0.00  0.00    +0.000 A 
ATOM      7  C   UNL     1       6.668   5.333  18.314  0.00  0.00    +0.000 A 
ATOM      8  C   UNL     1       6.012   5.541  17.113  0.00  0.00    +0.000 A 
ATOM      9  C   UNL     1       4.647   6.081  17.133  0.00  0.00    +0.000 A 
ATOM     10  C   UNL     1       3.885   6.230  18.392  0.00  0.00    +0.000 A 
ENDROOT
BRANCH   1  14
ATOM     11  C   UNL     1       0.589  10.004  20.909  0.00  0.00    +0.000 A 
ATOM     12  C   UNL     1       0.856  10.011  19.538  0.00  0.00    +0.000 A 
ATOM     13  C   UNL     1       1.394   8.850  18.864  0.00  0.00    +0.000 A 
ATOM     14  C   UNL     1       1.732   7.606  19.491  0.00  0.00    +0.000 A 
ATOM     15  C   UNL     1       1.403   7.611  20.856  0.00  0.00    +0.000 A 
ATOM     16  C   UNL     1       0.858   8.774  21.538  0.00  0.00    +0.000 A 
BRANCH  11  20
ATOM     17  C   UNL     1      -0.250  14.771  22.371  0.00  0.00    +0.000 C 
ATOM     18  N   UNL     1      -0.299  13.320  22.249  0.00  0.00    +0.000 N 
ATOM     19  C   UNL     1       0.378  12.527  21.347  0.00  0.00    +0.000 A 
ATOM     20  C   UNL     1       0.068  11.203  21.633  0.00  0.00    +0.000 A 
ATOM     21  C   UNL     1      -0.837  11.345  22.731  0.00  0.00    +0.000 A 
ATOM     22  N   UNL     1      -1.051  12.621  23.101  0.00  0.00    +0.000 NA
ENDBRANCH  11  20
ENDBRANCH   1  14
BRANCH   8  23
ATOM     23  S   UNL     1       6.863   4.775  15.720  0.00  0.00    +0.000 S 
ATOM     24  O   UNL     1       6.616   5.530  14.511  0.00  0.00    +0.000 OA
ATOM     25  O   UNL     1       8.178   4.362  16.138  0.00  0.00    +0.000 OA
BRANCH  23  26
ATOM     26  N   UNL     1       6.007   3.311  15.498  0.00  0.00    +0.000 NA
ATOM     27  H   UNL     1       5.185   3.459  14.908  0.00  0.00    +0.000 HD
ATOM     28  H   UNL     1       6.623   2.587  15.116  0.00  0.00    +0.000 HD
ENDBRANCH  23  26
ENDBRANCH   8  23
TORSDOF 4
ENDMDL
MODEL 3
REMARK VINA RESULT:      -8.0      5.579      7.591
REMARK  Name = 
REMARK  5 active torsions:
REMARK  status: ('A' for Active; 'I' for Inactive)
REMARK    1  A    between atoms: C_1  and  N_2
REMARK    2  A    between atoms: C_4  and  C_5
REMARK    3  A    between atoms: C_8  and  C_9
REMARK    4  A    between atoms: C_16  and  S_17
REMARK    5  A    between atoms: S_17  and  N_18
REMARK                            x       y       z     vdW  Elec       q    Type
REMARK                         _______ _______ _______ _____ _____    ______ ____
ROOT
ATOM      1  C   UNL     1       6.361   5.608  18.123  0.00  0.00    +0.000 A 
ATOM      2  C   UNL     1       6.691   4.734  17.088  0.00  0.00    +0.000 A 
ATOM      3  N   UNL     1       5.773   4.047  16.377  0.00  0.00    +0.000 NA
ATOM      4  C   UNL     1       4.494   4.418  16.594  0.00  0.00    +0.000 A 
ATOM      5  C   UNL     1       4.073   5.277  17.602  0.00  0.00    +0.000 A 
ATOM      6  C   UNL     1       2.691   5.404  17.795  0.00  0.00    +0.000 A 
ATOM      7  C   UNL     1       2.131   4.781  18.884  0.00  0.00    +0.000 A 
ATOM      8  C   UNL     1       3.009   4.102  19.711  0.00  0.00    +0.000 A 
ATOM      9  C   UNL     1       4.437   4.438  19.661  0.00  0.00    +0.000 A 
ATOM     10  C   UNL     1       4.991   5.341  18.628  0.00  0.00    +0.000 A 
ENDROOT
BRANCH   1  14
ATOM     11  C   UNL     1       8.673   9.578  18.317  0.00  0.00    +0.000 A 
ATOM     12  C   UNL     1       9.022   8.457  19.075  0.00  0.00    +0.000 A 
ATOM     13  C   UNL     1       8.308   7.207  18.955  0.00  0.00    +0.000 A 
ATOM     14  C   UNL     1       7.181   6.970  18.100  0.00  0.00    +0.000 A 
ATOM     15  C   UNL     1       6.887   8.095  17.313  0.00  0.00    +0.000 A 
ATOM     16  C   UNL     1       7.606   9.354  17.426  0.00  0.00    +0.000 A 
BRANCH  11  20
ATOM     17  C   UNL     1       9.955  14.439  17.786  0.00  0.00    +0.000 C 
ATOM     18  N   UNL     1       9.909  13.047  18.212  0.00  0.00    +0.000 N 
ATOM     19  C   UNL     1       8.999  12.082  17.840  0.00  0.00    +0.000 A 
ATOM     20  C   UNL     1       9.374  10.891  18.451  0.00  0.00    +0.000 A 
ATOM     21  C   UNL     1      10.530  11.292  19.190  0.00  0.00    +0.000 A 
ATOM     22  N   UNL     1      10.851  12.590  19.041  0.00  0.00    +0.000 NA
ENDBRANCH  11  20
ENDBRANCH   1  14
BRANCH   8  23
ATOM     23  S   UNL     1       2.254   2.655  20.479  0.00  0.00    +0.000 S 
ATOM     24  O   UNL     1       2.180   1.568  19.528  0.00  0.00    +0.000 OA
ATOM     25  O   UNL     1       2.776   2.502  21.813  0.00  0.00    +0.000 OA
BRANCH  23  26
ATOM     26  N   UNL     1       0.630   3.139  20.710  0.00  0.00    +0.000 NA
ATOM     27  H   UNL     1       0.276   2.799  21.608  0.00  0.00    +0.000 HD
ATOM     28  H   UNL     1       0.541   4.156  20.628  0.00  0.00    +0.000 HD
ENDBRANCH  23  26
ENDBRANCH   8  23
TORSDOF 4
ENDMDL
MODEL 4
REMARK VINA RESULT:      -7.9      1.003      1.231
REMARK  Name = 
REMARK  5 active torsions:
REMARK  status: ('A' for Active; 'I' for Inactive)
REMARK    1  A    between atoms: C_1  and  N_2
REMARK    2  A    between atoms: C_4  and  C_5
REMARK    3  A    between atoms: C_8  and  C_9
REMARK    4  A    between atoms: C_16  and  S_17
REMARK    5  A    between atoms: S_17  and  N_18
REMARK                            x       y       z     vdW  Elec       q    Type
REMARK                         _______ _______ _______ _____ _____    ______ ____
ROOT
ATOM      1  C   UNL     1       2.564   6.812  18.200  0.00  0.00    +0.000 A 
ATOM      2  C   UNL     1       1.822   5.634  18.277  0.00  0.00    +0.000 A 
ATOM      3  N   UNL     1       2.357   4.442  18.610  0.00  0.00    +0.000 NA
ATOM      4  C   UNL     1       3.625   4.497  19.068  0.00  0.00    +0.000 A 
ATOM      5  C   UNL     1       4.439   5.622  19.027  0.00  0.00    +0.000 A 
ATOM      6  C   UNL     1       5.785   5.448  19.376  0.00  0.00    +0.000 A 
ATOM      7  C   UNL     1       6.718   5.445  18.368  0.00  0.00    +0.000 A 
ATOM      8  C   UNL     1       6.229   5.646  17.089  0.00  0.00    +0.000 A 
ATOM      9  C   UNL     1       4.912   6.272  16.922  0.00  0.00    +0.000 A 
ATOM     10  C   UNL     1       4.014   6.520  18.071  0.00  0.00    +0.000 A 
ENDROOT
BRANCH   1  14
ATOM     11  C   UNL     1       0.275  10.293  20.147  0.00  0.00    +0.000 A 
ATOM     12  C   UNL     1       0.703   9.171  20.861  0.00  0.00    +0.000 A 
ATOM     13  C   UNL     1       1.464   8.116  20.233  0.00  0.00    +0.000 A 
ATOM     14  C   UNL     1       1.842   8.072  18.850  0.00  0.00    +0.000 A 
ATOM     15  C   UNL     1       1.446   9.235  18.171  0.00  0.00    +0.000 A 
ATOM     16  C   UNL     1       0.683  10.302  18.799  0.00  0.00    +0.000 A 
BRANCH  11  20
ATOM     17  C   UNL     1      -1.478  13.777  23.364  0.00  0.00    +0.000 C 
ATOM     18  N   UNL     1      -1.289  12.924  22.198  0.00  0.00    +0.000 N 
ATOM     19  C   UNL     1      -0.300  11.986  21.992  0.00  0.00    +0.000 A 
ATOM     20  C   UNL     1      -0.544  11.378  20.766  0.00  0.00    +0.000 A 
ATOM     21  C   UNL     1      -1.714  12.071  20.324  0.00  0.00    +0.000 A 
ATOM     22  N   UNL     1      -2.162  12.997  21.191  0.00  0.00    +0.000 NA
ENDBRANCH  11  20
ENDBRANCH   1  14
BRANCH   8  23
ATOM     23  S   UNL     1       7.189   4.773  15.837  0.00  0.00    +0.000 S 
ATOM     24  O   UNL     1       7.423   5.634  14.699  0.00  0.00    +0.000 OA
ATOM     25  O   UNL     1       8.232   4.017  16.483  0.00  0.00    +0.000 OA
BRANCH  23  26
ATOM     26  N   UNL     1       6.097   3.588  15.265  0.00  0.00    +0.000 NA
ATOM     27  H   UNL     1       6.460   2.647  15.439  0.00  0.00    +0.000 HD
ATOM     28  H   UNL     1       5.171   3.718  15.683  0.00  0.00    +0.000 HD
ENDBRANCH  23  26
ENDBRANCH   8  23
TORSDOF 4
ENDMDL
MODEL 5
REMARK VINA RESULT:      -7.9      1.133      1.428
REMARK  Name = 
REMARK  5 active torsions:
REMARK  status: ('A' for Active; 'I' for Inactive)
REMARK    1  A    between atoms: C_1  and  N_2
REMARK    2  A    between atoms: C_4  and  C_5
REMARK    3  A    between atoms: C_8  and  C_9
REMARK    4  A    between atoms: C_16  and  S_17
REMARK    5  A    between atoms: S_17  and  N_18
REMARK                            x       y       z     vdW  Elec       q    Type
REMARK                         _______ _______ _______ _____ _____    ______ ____
ROOT
ATOM      1  C   UNL     1       2.440   6.933  18.314  0.00  0.00    +0.000 A 
ATOM      2  C   UNL     1       1.483   6.048  17.819  0.00  0.00    +0.000 A 
ATOM      3  N   UNL     1       1.649   4.710  17.802  0.00  0.00    +0.000 NA
ATOM      4  C   UNL     1       2.722   4.262  18.487  0.00  0.00    +0.000 A 
ATOM      5  C   UNL     1       3.727   5.068  19.009  0.00  0.00    +0.000 A 
ATOM      6  C   UNL     1       4.857   4.421  19.528  0.00  0.00    +0.000 A 
ATOM      7  C   UNL     1       6.014   4.450  18.788  0.00  0.00    +0.000 A 
ATOM      8  C   UNL     1       5.953   5.150  17.596  0.00  0.00    +0.000 A 
ATOM      9  C   UNL     1       4.891   6.146  17.410  0.00  0.00    +0.000 A 
ATOM     10  C   UNL     1       3.777   6.289  18.374  0.00  0.00    +0.000 A 
ENDROOT
BRANCH   1  14
ATOM     11  C   UNL     1       0.498  10.130  20.987  0.00  0.00    +0.000 A 
ATOM     12  C   UNL     1       0.951   8.903  21.478  0.00  0.00    +0.000 A 
ATOM     13  C   UNL     1       1.603   7.938  20.622  0.00  0.00    +0.000 A 
ATOM     14  C   UNL     1       1.838   8.095  19.216  0.00  0.00    +0.000 A 
ATOM     15  C   UNL     1       1.421   9.357  18.763  0.00  0.00    +0.000 A 
ATOM     16  C   UNL     1       0.768  10.333  19.620  0.00  0.00    +0.000 A 
BRANCH  11  20
ATOM     17  C   UNL     1      -1.125  14.474  23.002  0.00  0.00    +0.000 C 
ATOM     18  N   UNL     1      -0.927  13.061  22.706  0.00  0.00    +0.000 N 
ATOM     19  C   UNL     1      -0.135  12.510  21.722  0.00  0.00    +0.000 A 
ATOM     20  C   UNL     1      -0.211  11.127  21.844  0.00  0.00    +0.000 A 
ATOM     21  C   UNL     1      -1.115  10.980  22.942  0.00  0.00    +0.000 A 
ATOM     22  N   UNL     1      -1.540  12.147  23.461  0.00  0.00    +0.000 NA
ENDBRANCH  11  20
ENDBRANCH   1  14
BRANCH   8  23
ATOM     23  S   UNL     1       7.026   4.449  16.327  0.00  0.00    +0.000 S 
ATOM     24  O   UNL     1       8.297   4.071  16.903  0.00  0.00    +0.000 OA
ATOM     25  O   UNL     1       6.251   3.575  15.483  0.00  0.00    +0.000 OA
BRANCH  23  26
ATOM     26  N   UNL     1       7.384   5.794  15.333  0.00  0.00    +0.000 NA
ATOM     27  H   UNL     1       7.393   6.657  15.882  0.00  0.00    +0.000 HD
ATOM     28  H   UNL     1       8.268   5.651  14.837  0.00  0.00    +0.000 HD
ENDBRANCH  23  26
ENDBRANCH   8  23
TORSDOF 4
ENDMDL
MODEL 6
REMARK VINA RESULT:      -7.8      0.899      1.592
REMARK  Name = 
REMARK  5 active torsions:
REMARK  status: ('A' for Active; 'I' for Inactive)
REMARK    1  A    between atoms: C_1  and  N_2
REMARK    2  A    between atoms: C_4  and  C_5
REMARK    3  A    between atoms: C_8  and  C_9
REMARK    4  A    between atoms: C_16  and  S_17
REMARK    5  A    between atoms: S_17  and  N_18
REMARK                            x       y       z     vdW  Elec       q    Type
REMARK                         _______ _______ _______ _____ _____    ______ ____
ROOT
ATOM      1  C   UNL     1       2.557   6.710  18.277  0.00  0.00    +0.000 A 
ATOM      2  C   UNL     1       1.822   5.527  18.341  0.00  0.00    +0.000 A 
ATOM      3  N   UNL     1       2.369   4.329  18.629  0.00  0.00    +0.000 NA
ATOM      4  C   UNL     1       3.648   4.377  19.058  0.00  0.00    +0.000 A 
ATOM      5  C   UNL     1       4.457   5.506  19.026  0.00  0.00    +0.000 A 
ATOM      6  C   UNL     1       5.812   5.329  19.338  0.00  0.00    +0.000 A 
ATOM      7  C   UNL     1       6.720   5.356  18.307  0.00  0.00    +0.000 A 
ATOM      8  C   UNL     1       6.199   5.588  17.046  0.00  0.00    +0.000 A 
ATOM      9  C   UNL     1       4.876   6.212  16.928  0.00  0.00    +0.000 A 
ATOM     10  C   UNL     1       4.005   6.427  18.105  0.00  0.00    +0.000 A 
ENDROOT
BRANCH   1  14
ATOM     11  C   UNL     1       0.717  10.440  20.236  0.00  0.00    +0.000 A 
ATOM     12  C   UNL     1       1.025  10.371  18.875  0.00  0.00    +0.000 A 
ATOM     13  C   UNL     1       1.556   9.167  18.278  0.00  0.00    +0.000 A 
ATOM     14  C   UNL     1       1.848   7.949  18.976  0.00  0.00    +0.000 A 
ATOM     15  C   UNL     1       1.479   8.031  20.329  0.00  0.00    +0.000 A 
ATOM     16  C   UNL     1       0.940   9.238  20.934  0.00  0.00    +0.000 A 
BRANCH  11  20
ATOM     17  C   UNL     1      -1.577  13.633  23.415  0.00  0.00    +0.000 C 
ATOM     18  N   UNL     1      -0.805  13.077  22.312  0.00  0.00    +0.000 N 
ATOM     19  C   UNL     1      -0.512  11.752  22.073  0.00  0.00    +0.000 A 
ATOM     20  C   UNL     1       0.202  11.685  20.882  0.00  0.00    +0.000 A 
ATOM     21  C   UNL     1       0.291  13.065  20.517  0.00  0.00    +0.000 A 
ATOM     22  N   UNL     1      -0.321  13.899  21.378  0.00  0.00    +0.000 NA
ENDBRANCH  11  20
ENDBRANCH   1  14
BRANCH   8  23
ATOM     23  S   UNL     1       7.131   4.751  15.749  0.00  0.00    +0.000 S 
ATOM     24  O   UNL     1       7.313   5.635  14.618  0.00  0.00    +0.000 OA
ATOM     25  O   UNL     1       8.207   4.003  16.347  0.00  0.00    +0.000 OA
BRANCH  23  26
ATOM     26  N   UNL     1       6.039   3.558  15.193  0.00  0.00    +0.000 NA
ATOM     27  H   UNL     1       5.145   3.980  14.931  0.00  0.00    +0.000 HD
ATOM     28  H   UNL     1       6.448   3.026  14.420  0.00  0.00    +0.000 HD
ENDBRANCH  23  26
ENDBRANCH   8  23
TORSDOF 4
ENDMDL
MODEL 7
REMARK VINA RESULT:      -7.6      0.832      1.065
REMARK  Name = 
REMARK  5 active torsions:
REMARK  status: ('A' for Active; 'I' for Inactive)
REMARK    1  A    between atoms: C_1  and  N_2
REMARK    2  A    between atoms: C_4  and  C_5
REMARK    3  A    between atoms: C_8  and  C_9
REMARK    4  A    between atoms: C_16  and  S_17
REMARK    5  A    between atoms: S_17  and  N_18
REMARK                            x       y       z     vdW  Elec       q    Type
REMARK                         _______ _______ _______ _____ _____    ______ ____
ROOT
ATOM      1  C   UNL     1       2.765   6.742  18.412  0.00  0.00    +0.000 A 
ATOM      2  C   UNL     1       2.423   5.552  19.053  0.00  0.00    +0.000 A 
ATOM      3  N   UNL     1       3.322   4.599  19.374  0.00  0.00    +0.000 NA
ATOM      4  C   UNL     1       4.612   4.961  19.220  0.00  0.00    +0.000 A 
ATOM      5  C   UNL     1       5.045   6.122  18.592  0.00  0.00    +0.000 A 
ATOM      6  C   UNL     1       6.422   6.246  18.359  0.00  0.00    +0.000 A 
ATOM      7  C   UNL     1       6.878   6.068  17.075  0.00  0.00    +0.000 A 
ATOM      8  C   UNL     1       5.912   5.807  16.119  0.00  0.00    +0.000 A 
ATOM      9  C   UNL     1       4.517   6.168  16.402  0.00  0.00    +0.000 A 
ATOM     10  C   UNL     1       4.084   6.625  17.741  0.00  0.00    +0.000 A 
ENDROOT
BRANCH   1  14
ATOM     11  C   UNL     1       0.495  10.304  20.229  0.00  0.00    +0.000 A 
ATOM     12  C   UNL     1       0.884   9.190  20.977  0.00  0.00    +0.000 A 
ATOM     13  C   UNL     1       1.641   8.108  20.389  0.00  0.00    +0.000 A 
ATOM     14  C   UNL     1       2.051   8.028  19.018  0.00  0.00    +0.000 A 
ATOM     15  C   UNL     1       1.693   9.183  18.305  0.00  0.00    +0.000 A 
ATOM     16  C   UNL     1       0.936  10.277  18.893  0.00  0.00    +0.000 A 
BRANCH  11  20
ATOM     17  C   UNL     1      -1.730  13.470  23.483  0.00  0.00    +0.000 C 
ATOM     18  N   UNL     1      -1.277  12.813  22.264  0.00  0.00    +0.000 N 
ATOM     19  C   UNL     1      -0.427  11.733  22.155  0.00  0.00    +0.000 A 
ATOM     20  C   UNL     1      -0.319  11.417  20.806  0.00  0.00    +0.000 A 
ATOM     21  C   UNL     1      -1.147  12.414  20.204  0.00  0.00    +0.000 A 
ATOM     22  N   UNL     1      -1.726  13.250  21.085  0.00  0.00    +0.000 NA
ENDBRANCH  11  20
ENDBRANCH   1  14
BRANCH   8  23
ATOM     23  S   UNL     1       6.516   4.737  14.799  0.00  0.00    +0.000 S 
ATOM     24  O   UNL     1       5.449   4.444  13.869  0.00  0.00    +0.000 OA
ATOM     25  O   UNL     1       7.822   5.187  14.387  0.00  0.00    +0.000 OA
BRANCH  23  26
ATOM     26  N   UNL     1       6.810   3.256  15.602  0.00  0.00    +0.000 NA
ATOM     27  H   UNL     1       6.296   2.494  15.154  0.00  0.00    +0.000 HD
ATOM     28  H   UNL     1       7.814   3.062  15.646  0.00  0.00    +0.000 HD
ENDBRANCH  23  26
ENDBRANCH   8  23
TORSDOF 4
ENDMDL
MODEL 8
REMARK VINA RESULT:      -7.6      1.271      1.807
REMARK  Name = 
REMARK  5 active torsions:
REMARK  status: ('A' for Active; 'I' for Inactive)
REMARK    1  A    between atoms: C_1  and  N_2
REMARK    2  A    between atoms: C_4  and  C_5
REMARK    3  A    between atoms: C_8  and  C_9
REMARK    4  A    between atoms: C_16  and  S_17
REMARK    5  A    between atoms: S_17  and  N_18
REMARK                            x       y       z     vdW  Elec       q    Type
REMARK                         _______ _______ _______ _____ _____    ______ ____
ROOT
ATOM      1  C   UNL     1       2.360   6.874  18.338  0.00  0.00    +0.000 A 
ATOM      2  C   UNL     1       1.459   5.949  17.812  0.00  0.00    +0.000 A 
ATOM      3  N   UNL     1       1.679   4.619  17.811  0.00  0.00    +0.000 NA
ATOM      4  C   UNL     1       2.740   4.218  18.541  0.00  0.00    +0.000 A 
ATOM      5  C   UNL     1       3.690   5.066  19.098  0.00  0.00    +0.000 A 
ATOM      6  C   UNL     1       4.823   4.467  19.666  0.00  0.00    +0.000 A 
ATOM      7  C   UNL     1       6.007   4.538  18.972  0.00  0.00    +0.000 A 
ATOM      8  C   UNL     1       5.967   5.229  17.774  0.00  0.00    +0.000 A 
ATOM      9  C   UNL     1       4.874   6.181  17.539  0.00  0.00    +0.000 A 
ATOM     10  C   UNL     1       3.718   6.285  18.456  0.00  0.00    +0.000 A 
ENDROOT
BRANCH   1  14
ATOM     11  C   UNL     1       0.574  10.344  20.769  0.00  0.00    +0.000 A 
ATOM     12  C   UNL     1       0.688  10.372  19.377  0.00  0.00    +0.000 A 
ATOM     13  C   UNL     1       1.207   9.245  18.636  0.00  0.00    +0.000 A 
ATOM     14  C   UNL     1       1.676   8.017  19.207  0.00  0.00    +0.000 A 
ATOM     15  C   UNL     1       1.500   7.997  20.600  0.00  0.00    +0.000 A 
ATOM     16  C   UNL     1       0.974   9.127  21.351  0.00  0.00    +0.000 A 
BRANCH  11  20
ATOM     17  C   UNL     1      -0.193  15.039  22.482  0.00  0.00    +0.000 C 
ATOM     18  N   UNL     1      -0.260  13.597  22.287  0.00  0.00    +0.000 N 
ATOM     19  C   UNL     1       0.398  12.844  21.338  0.00  0.00    +0.000 A 
ATOM     20  C   UNL     1       0.075  11.510  21.559  0.00  0.00    +0.000 A 
ATOM     21  C   UNL     1      -0.817  11.606  22.672  0.00  0.00    +0.000 A 
ATOM     22  N   UNL     1      -1.013  12.863  23.110  0.00  0.00    +0.000 NA
ENDBRANCH  11  20
ENDBRANCH   1  14
BRANCH   8  23
ATOM     23  S   UNL     1       7.116   4.564  16.554  0.00  0.00    +0.000 S 
ATOM     24  O   UNL     1       8.332   4.124  17.204  0.00  0.00    +0.000 OA
ATOM     25  O   UNL     1       6.388   3.755  15.610  0.00  0.00    +0.000 OA
BRANCH  23  26
ATOM     26  N   UNL     1       7.580   5.947  15.661  0.00  0.00    +0.000 NA
ATOM     27  H   UNL     1       7.849   5.688  14.708  0.00  0.00    +0.000 HD
ATOM     28  H   UNL     1       6.833   6.647  15.667  0.00  0.00    +0.000 HD
ENDBRANCH  23  26
ENDBRANCH   8  23
TORSDOF 4
ENDMDL
MODEL 9
REMARK VINA RESULT:      -7.4      5.593      9.886
REMARK  Name = 
REMARK  5 active torsions:
REMARK  status: ('A' for Active; 'I' for Inactive)
REMARK    1  A    between atoms: C_1  and  N_2
REMARK    2  A    between atoms: C_4  and  C_5
REMARK    3  A    between atoms: C_8  and  C_9
REMARK    4  A    between atoms: C_16  and  S_17
REMARK    5  A    between atoms: S_17  and  N_18
REMARK                            x       y       z     vdW  Elec       q    Type
REMARK                         _______ _______ _______ _____ _____    ______ ____
ROOT
ATOM      1  C   UNL     1       0.470  10.988  19.468  0.00  0.00    +0.000 A 
ATOM      2  C   UNL     1       1.352  12.042  19.236  0.00  0.00    +0.000 A 
ATOM      3  N   UNL     1       1.428  13.132  20.025  0.00  0.00    +0.000 NA
ATOM      4  C   UNL     1       0.735  13.047  21.180  0.00  0.00    +0.000 A 
ATOM      5  C   UNL     1      -0.168  12.039  21.494  0.00  0.00    +0.000 A 
ATOM      6  C   UNL     1      -0.933  12.208  22.656  0.00  0.00    +0.000 A 
ATOM      7  C   UNL     1      -2.255  12.556  22.514  0.00  0.00    +0.000 A 
ATOM      8  C   UNL     1      -2.712  12.679  21.213  0.00  0.00    +0.000 A 
ATOM      9  C   UNL     1      -1.963  12.029  20.132  0.00  0.00    +0.000 A 
ATOM     10  C   UNL     1      -0.639  11.410  20.362  0.00  0.00    +0.000 A 
ENDROOT
BRANCH   1  14
ATOM     11  C   UNL     1       2.528   6.892  19.101  0.00  0.00    +0.000 A 
ATOM     12  C   UNL     1       1.927   7.337  20.281  0.00  0.00    +0.000 A 
ATOM     13  C   UNL     1       1.243   8.609  20.352  0.00  0.00    +0.000 A 
ATOM     14  C   UNL     1       1.120   9.549  19.276  0.00  0.00    +0.000 A 
ATOM     15  C   UNL     1       1.685   9.053  18.091  0.00  0.00    +0.000 A 
ATOM     16  C   UNL     1       2.370   7.772  18.013  0.00  0.00    +0.000 A 
BRANCH  11  20
ATOM     17  C   UNL     1       3.636   1.992  18.535  0.00  0.00    +0.000 C 
ATOM     18  N   UNL     1       3.737   3.430  18.742  0.00  0.00    +0.000 N 
ATOM     19  C   UNL     1       2.720   4.360  18.710  0.00  0.00    +0.000 A 
ATOM     20  C   UNL     1       3.271   5.599  19.014  0.00  0.00    +0.000 A 
ATOM     21  C   UNL     1       4.652   5.271  19.187  0.00  0.00    +0.000 A 
ATOM     22  N   UNL     1       4.928   3.964  19.026  0.00  0.00    +0.000 NA
ENDBRANCH  11  20
ENDBRANCH   1  14
BRANCH   8  23
ATOM     23  S   UNL     1      -4.000  13.931  21.049  0.00  0.00    +0.000 S 
ATOM     24  O   UNL     1      -5.005  13.748  22.073  0.00  0.00    +0.000 OA
ATOM     25  O   UNL     1      -3.389  15.203  20.762  0.00  0.00    +0.000 OA
BRANCH  23  26
ATOM     26  N   UNL     1      -4.783  13.496  19.592  0.00  0.00    +0.000 NA
ATOM     27  H   UNL     1      -4.098  13.227  18.881  0.00  0.00    +0.000 HD
ATOM     28  H   UNL     1      -5.469  12.754  19.758  0.00  0.00    +0.000 HD
ENDBRANCH  23  26
ENDBRANCH   8  23
TORSDOF 4
ENDMDL
