MODEL 1
REMARK VINA RESULT:      -9.9      0.000      0.000
REMARK  Name = 
REMARK  3 active torsions:
REMARK  status: ('A' for Active; 'I' for Inactive)
REMARK    1  A    between atoms: C_6  and  C_7
REMARK    2  A    between atoms: C_6  and  C_24
REMARK    3  A    between atoms: C_10  and  C_11
REMARK                            x       y       z     vdW  Elec       q    Type
REMARK                         _______ _______ _______ _____ _____    ______ ____
ROOT
ATOM      1  C   UNL     1       6.881   6.517  17.706  0.00  0.00    +0.000 A 
ATOM      2  C   UNL     1       6.666   7.714  17.123  0.00  0.00    +0.000 A 
ATOM      3  C   UNL     1       7.417   8.889  17.496  0.00  0.00    +0.000 A 
ATOM      4  C   UNL     1       8.368   8.804  18.436  0.00  0.00    +0.000 A 
ATOM      5  N   UNL     1       8.620   7.601  19.041  0.00  0.00    +0.000 N 
ATOM      6  C   UNL     1       7.947   6.440  18.757  0.00  0.00    +0.000 A 
ATOM      7  O   UNL     1       8.198   5.386  19.330  0.00  0.00    +0.000 OA
ATOM      8  H   UNL     1       9.339   7.542  19.753  0.00  0.00    +0.000 HD
ENDROOT
BRANCH   4   9
ATOM      9  C   UNL     1       9.124   9.986  18.850  0.00  0.00    +0.000 A 
ATOM     10  C   UNL     1       9.247  10.316  20.202  0.00  0.00    +0.000 A 
ATOM     11  C   UNL     1      10.039  11.399  20.590  0.00  0.00    +0.000 A 
ATOM     12  C   UNL     1      10.729  12.164  19.635  0.00  0.00    +0.000 A 
ATOM     13  C   UNL     1      11.560  13.232  20.011  0.00  0.00    +0.000 A 
ATOM     14  C   UNL     1      12.250  13.972  19.048  0.00  0.00    +0.000 A 
ATOM     15  C   UNL     1      12.108  13.661  17.699  0.00  0.00    +0.000 A 
ATOM     16  C   UNL     1      11.282  12.607  17.308  0.00  0.00    +0.000 A 
ATOM     17  C   UNL     1      10.593  11.845  18.265  0.00  0.00    +0.000 A 
ATOM     18  C   UNL     1       9.786  10.760  17.888  0.00  0.00    +0.000 A 
ENDBRANCH   4   9
BRANCH   1  24
ATOM     19  O   UNL     1       5.121   3.248  20.099  0.00  0.00    +0.000 OA
ATOM     20  C   UNL     1       5.224   3.967  19.121  0.00  0.00    +0.000 C 
ATOM     21  N   UNL     1       4.209   4.560  18.486  0.00  0.00    +0.000 N 
ATOM     22  C   UNL     1       4.661   5.350  17.492  0.00  0.00    +0.000 C 
ATOM     23  O   UNL     1       3.946   6.086  16.827  0.00  0.00    +0.000 OA
ATOM     24  C   UNL     1       6.164   5.214  17.418  0.00  0.00    +0.000 C 
ATOM     25  O   UNL     1       6.398   4.312  18.540  0.00  0.00    +0.000 OA
ATOM     26  H   UNL     1       3.249   4.495  18.785  0.00  0.00    +0.000 HD
BRANCH  24  27
ATOM     27  C   UNL     1       6.486   4.552  16.066  0.00  0.00    +0.000 C 
ATOM     28  F   UNL     1       5.878   3.347  15.921  0.00  0.00    +0.000 F 
ATOM     29  F   UNL     1       6.093   5.302  15.009  0.00  0.00    +0.000 F 
ATOM     30  F   UNL     1       7.811   4.308  15.921  0.00  0.00    +0.000 F 
ENDBRANCH  24  27
ENDBRANCH   1  24
TORSDOF 3
ENDMDL
MODEL 2
REMARK VINA RESULT:      -9.9      6.034      7.485
REMARK  Name = 
REMARK  3 active torsions:
REMARK  status: ('A' for Active; 'I' for Inactive)
REMARK    1  A    between atoms: C_6  and  C_7
REMARK    2  A    between atoms: C_6  and  C_24
REMARK    3  A    between atoms: C_10  and  C_11
REMARK                            x       y       z     vdW  Elec       q    Type
REMARK                         _______ _______ _______ _____ _____    ______ ____
ROOT
ATOM      1  C   UNL     1       3.649   5.320  18.404  0.00  0.00    +0.000 A 
ATOM      2  C   UNL     1       3.641   6.478  17.713  0.00  0.00    +0.000 A 
ATOM      3  C   UNL     1       2.900   7.630  18.165  0.00  0.00    +0.000 A 
ATOM      4  C   UNL     1       2.205   7.572  19.309  0.00  0.00    +0.000 A 
ATOM      5  N   UNL     1       2.200   6.415  20.042  0.00  0.00    +0.000 N 
ATOM      6  C   UNL     1       2.865   5.271  19.681  0.00  0.00    +0.000 A 
ATOM      7  O   UNL     1       2.825   4.252  20.363  0.00  0.00    +0.000 OA
ATOM      8  H   UNL     1       1.671   6.374  20.906  0.00  0.00    +0.000 HD
ENDROOT
BRANCH   4   9
ATOM      9  C   UNL     1       1.424   8.718  19.775  0.00  0.00    +0.000 A 
ATOM     10  C   UNL     1       1.100   9.761  18.903  0.00  0.00    +0.000 A 
ATOM     11  C   UNL     1       0.285  10.810  19.338  0.00  0.00    +0.000 A 
ATOM     12  C   UNL     1      -0.226  10.828  20.645  0.00  0.00    +0.000 A 
ATOM     13  C   UNL     1      -1.078  11.854  21.086  0.00  0.00    +0.000 A 
ATOM     14  C   UNL     1      -1.589  11.848  22.385  0.00  0.00    +0.000 A 
ATOM     15  C   UNL     1      -1.247  10.824  23.263  0.00  0.00    +0.000 A 
ATOM     16  C   UNL     1      -0.398   9.800  22.843  0.00  0.00    +0.000 A 
ATOM     17  C   UNL     1       0.113   9.784  21.536  0.00  0.00    +0.000 A 
ATOM     18  C   UNL     1       0.941   8.742  21.089  0.00  0.00    +0.000 A 
ENDBRANCH   4   9
BRANCH   1  24
ATOM     19  O   UNL     1       5.130   1.770  20.575  0.00  0.00    +0.000 OA
ATOM     20  C   UNL     1       4.701   2.371  19.606  0.00  0.00    +0.000 C 
ATOM     21  N   UNL     1       3.727   1.941  18.798  0.00  0.00    +0.000 N 
ATOM     22  C   UNL     1       3.431   2.870  17.868  0.00  0.00    +0.000 C 
ATOM     23  O   UNL     1       2.505   2.771  17.075  0.00  0.00    +0.000 OA
ATOM     24  C   UNL     1       4.372   4.039  18.042  0.00  0.00    +0.000 C 
ATOM     25  O   UNL     1       5.121   3.596  19.213  0.00  0.00    +0.000 OA
ATOM     26  H   UNL     1       3.223   1.080  18.940  0.00  0.00    +0.000 HD
BRANCH  24  27
ATOM     27  C   UNL     1       5.252   4.096  16.779  0.00  0.00    +0.000 C 
ATOM     28  F   UNL     1       5.604   2.862  16.338  0.00  0.00    +0.000 F 
ATOM     29  F   UNL     1       4.635   4.706  15.739  0.00  0.00    +0.000 F 
ATOM     30  F   UNL     1       6.419   4.747  17.001  0.00  0.00    +0.000 F 
ENDBRANCH  24  27
ENDBRANCH   1  24
TORSDOF 3
ENDMDL
MODEL 3
REMARK VINA RESULT:      -9.7      5.962      7.887
REMARK  Name = 
REMARK  3 active torsions:
REMARK  status: ('A' for Active; 'I' for Inactive)
REMARK    1  A    between atoms: C_6  and  C_7
REMARK    2  A    between atoms: C_6  and  C_24
REMARK    3  A    between atoms: C_10  and  C_11
REMARK                            x       y       z     vdW  Elec       q    Type
REMARK                         _______ _______ _______ _____ _____    ______ ____
ROOT
ATOM      1  C   UNL     1       2.834   5.541  19.265  0.00  0.00    +0.000 A 
ATOM      2  C   UNL     1       2.107   5.364  20.387  0.00  0.00    +0.000 A 
ATOM      3  C   UNL     1       1.369   6.443  20.996  0.00  0.00    +0.000 A 
ATOM      4  C   UNL     1       1.383   7.661  20.437  0.00  0.00    +0.000 A 
ATOM      5  N   UNL     1       2.102   7.875  19.291  0.00  0.00    +0.000 N 
ATOM      6  C   UNL     1       2.840   6.910  18.654  0.00  0.00    +0.000 A 
ATOM      7  O   UNL     1       3.478   7.147  17.634  0.00  0.00    +0.000 OA
ATOM      8  H   UNL     1       2.112   8.798  18.873  0.00  0.00    +0.000 HD
ENDROOT
BRANCH   4   9
ATOM      9  C   UNL     1       0.664   8.779  21.050  0.00  0.00    +0.000 A 
ATOM     10  C   UNL     1       0.504   8.849  22.437  0.00  0.00    +0.000 A 
ATOM     11  C   UNL     1      -0.112   9.961  23.016  0.00  0.00    +0.000 A 
ATOM     12  C   UNL     1      -0.569  11.024  22.221  0.00  0.00    +0.000 A 
ATOM     13  C   UNL     1      -1.155  12.166  22.790  0.00  0.00    +0.000 A 
ATOM     14  C   UNL     1      -1.590  13.221  21.985  0.00  0.00    +0.000 A 
ATOM     15  C   UNL     1      -1.456  13.143  20.601  0.00  0.00    +0.000 A 
ATOM     16  C   UNL     1      -0.881  12.013  20.020  0.00  0.00    +0.000 A 
ATOM     17  C   UNL     1      -0.425  10.950  20.817  0.00  0.00    +0.000 A 
ATOM     18  C   UNL     1       0.186   9.822  20.247  0.00  0.00    +0.000 A 
ENDBRANCH   4   9
BRANCH   1  24
ATOM     19  O   UNL     1       7.132   4.745  18.630  0.00  0.00    +0.000 OA
ATOM     20  C   UNL     1       5.957   4.440  18.739  0.00  0.00    +0.000 C 
ATOM     21  N   UNL     1       5.487   3.420  19.463  0.00  0.00    +0.000 N 
ATOM     22  C   UNL     1       4.140   3.396  19.438  0.00  0.00    +0.000 C 
ATOM     23  O   UNL     1       3.459   2.630  20.106  0.00  0.00    +0.000 OA
ATOM     24  C   UNL     1       3.658   4.503  18.530  0.00  0.00    +0.000 C 
ATOM     25  O   UNL     1       4.932   5.113  18.167  0.00  0.00    +0.000 OA
ATOM     26  H   UNL     1       6.068   2.821  20.027  0.00  0.00    +0.000 HD
BRANCH  24  27
ATOM     27  C   UNL     1       2.973   3.829  17.327  0.00  0.00    +0.000 C 
ATOM     28  F   UNL     1       2.930   2.477  17.447  0.00  0.00    +0.000 F 
ATOM     29  F   UNL     1       1.691   4.232  17.160  0.00  0.00    +0.000 F 
ATOM     30  F   UNL     1       3.630   4.068  16.168  0.00  0.00    +0.000 F 
ENDBRANCH  24  27
ENDBRANCH   1  24
TORSDOF 3
ENDMDL
MODEL 4
REMARK VINA RESULT:      -9.6      5.545      7.732
REMARK  Name = 
REMARK  3 active torsions:
REMARK  status: ('A' for Active; 'I' for Inactive)
REMARK    1  A    between atoms: C_6  and  C_7
REMARK    2  A    between atoms: C_6  and  C_24
REMARK    3  A    between atoms: C_10  and  C_11
REMARK                            x       y       z     vdW  Elec       q    Type
REMARK                         _______ _______ _______ _____ _____    ______ ____
ROOT
ATOM      1  C   UNL     1       3.777   6.237  18.355  0.00  0.00    +0.000 A 
ATOM      2  C   UNL     1       3.562   7.319  17.579  0.00  0.00    +0.000 A 
ATOM      3  C   UNL     1       2.647   8.365  17.965  0.00  0.00    +0.000 A 
ATOM      4  C   UNL     1       1.994   8.284  19.132  0.00  0.00    +0.000 A 
ATOM      5  N   UNL     1       2.197   7.205  19.951  0.00  0.00    +0.000 N 
ATOM      6  C   UNL     1       3.037   6.162  19.657  0.00  0.00    +0.000 A 
ATOM      7  O   UNL     1       3.182   5.209  20.415  0.00  0.00    +0.000 OA
ATOM      8  H   UNL     1       1.699   7.147  20.832  0.00  0.00    +0.000 HD
ENDROOT
BRANCH   4   9
ATOM      9  C   UNL     1       1.041   9.320  19.534  0.00  0.00    +0.000 A 
ATOM     10  C   UNL     1       0.376  10.088  18.575  0.00  0.00    +0.000 A 
ATOM     11  C   UNL     1      -0.591  11.016  18.968  0.00  0.00    +0.000 A 
ATOM     12  C   UNL     1      -0.917  11.184  20.324  0.00  0.00    +0.000 A 
ATOM     13  C   UNL     1      -1.914  12.085  20.732  0.00  0.00    +0.000 A 
ATOM     14  C   UNL     1      -2.235  12.228  22.084  0.00  0.00    +0.000 A 
ATOM     15  C   UNL     1      -1.556  11.482  23.044  0.00  0.00    +0.000 A 
ATOM     16  C   UNL     1      -0.559  10.588  22.655  0.00  0.00    +0.000 A 
ATOM     17  C   UNL     1      -0.235  10.422  21.299  0.00  0.00    +0.000 A 
ATOM     18  C   UNL     1       0.743   9.500  20.891  0.00  0.00    +0.000 A 
ENDBRANCH   4   9
BRANCH   1  24
ATOM     19  O   UNL     1       3.324   1.877  17.816  0.00  0.00    +0.000 OA
ATOM     20  C   UNL     1       3.854   2.961  17.644  0.00  0.00    +0.000 C 
ATOM     21  N   UNL     1       4.256   3.448  16.466  0.00  0.00    +0.000 N 
ATOM     22  C   UNL     1       4.730   4.702  16.603  0.00  0.00    +0.000 C 
ATOM     23  O   UNL     1       5.061   5.412  15.664  0.00  0.00    +0.000 OA
ATOM     24  C   UNL     1       4.698   5.069  18.068  0.00  0.00    +0.000 C 
ATOM     25  O   UNL     1       4.088   3.866  18.623  0.00  0.00    +0.000 OA
ATOM     26  H   UNL     1       4.121   2.970  15.589  0.00  0.00    +0.000 HD
BRANCH  24  27
ATOM     27  C   UNL     1       6.161   5.238  18.519  0.00  0.00    +0.000 C 
ATOM     28  F   UNL     1       6.977   4.288  17.995  0.00  0.00    +0.000 F 
ATOM     29  F   UNL     1       6.688   6.430  18.151  0.00  0.00    +0.000 F 
ATOM     30  F   UNL     1       6.296   5.129  19.862  0.00  0.00    +0.000 F 
ENDBRANCH  24  27
ENDBRANCH   1  24
TORSDOF 3
ENDMDL
MODEL 5
REMARK VINA RESULT:      -9.5      6.100      7.952
REMARK  Name = 
REMARK  3 active torsions:
REMARK  status: ('A' for Active; 'I' for Inactive)
REMARK    1  A    between atoms: C_6  and  C_7
REMARK    2  A    between atoms: C_6  and  C_24
REMARK    3  A    between atoms: C_10  and  C_11
REMARK                            x       y       z     vdW  Elec       q    Type
REMARK                         _______ _______ _______ _____ _____    ______ ____
ROOT
ATOM      1  C   UNL     1       2.890   5.651  19.034  0.00  0.00    +0.000 A 
ATOM      2  C   UNL     1       2.152   5.707  20.161  0.00  0.00    +0.000 A 
ATOM      3  C   UNL     1       1.515   6.926  20.595  0.00  0.00    +0.000 A 
ATOM      4  C   UNL     1       1.637   8.041  19.862  0.00  0.00    +0.000 A 
ATOM      5  N   UNL     1       2.370   8.018  18.706  0.00  0.00    +0.000 N 
ATOM      6  C   UNL     1       3.018   6.907  18.227  0.00  0.00    +0.000 A 
ATOM      7  O   UNL     1       3.673   6.933  17.191  0.00  0.00    +0.000 OA
ATOM      8  H   UNL     1       2.462   8.864  18.155  0.00  0.00    +0.000 HD
ENDROOT
BRANCH   4   9
ATOM      9  C   UNL     1       1.022   9.297  20.294  0.00  0.00    +0.000 A 
ATOM     10  C   UNL     1       1.097  10.440  19.494  0.00  0.00    +0.000 A 
ATOM     11  C   UNL     1       0.437  11.610  19.879  0.00  0.00    +0.000 A 
ATOM     12  C   UNL     1      -0.317  11.653  21.063  0.00  0.00    +0.000 A 
ATOM     13  C   UNL     1      -1.018  12.809  21.444  0.00  0.00    +0.000 A 
ATOM     14  C   UNL     1      -1.775  12.829  22.618  0.00  0.00    +0.000 A 
ATOM     15  C   UNL     1      -1.830  11.700  23.430  0.00  0.00    +0.000 A 
ATOM     16  C   UNL     1      -1.135  10.546  23.068  0.00  0.00    +0.000 A 
ATOM     17  C   UNL     1      -0.381  10.505  21.884  0.00  0.00    +0.000 A 
ATOM     18  C   UNL     1       0.295   9.339  21.491  0.00  0.00    +0.000 A 
ENDBRANCH   4   9
BRANCH   1  24
ATOM     19  O   UNL     1       7.100   4.432  18.489  0.00  0.00    +0.000 OA
ATOM     20  C   UNL     1       5.909   4.240  18.660  0.00  0.00    +0.000 C 
ATOM     21  N   UNL     1       5.383   3.392  19.548  0.00  0.00    +0.000 N 
ATOM     22  C   UNL     1       4.037   3.468  19.544  0.00  0.00    +0.000 C 
ATOM     23  O   UNL     1       3.317   2.877  20.336  0.00  0.00    +0.000 OA
ATOM     24  C   UNL     1       3.616   4.446  18.471  0.00  0.00    +0.000 C 
ATOM     25  O   UNL     1       4.923   4.888  17.997  0.00  0.00    +0.000 OA
ATOM     26  H   UNL     1       5.931   2.850  20.196  0.00  0.00    +0.000 HD
BRANCH  24  27
ATOM     27  C   UNL     1       2.854   3.638  17.404  0.00  0.00    +0.000 C 
ATOM     28  F   UNL     1       3.383   3.791  16.164  0.00  0.00    +0.000 F 
ATOM     29  F   UNL     1       2.858   2.307  17.654  0.00  0.00    +0.000 F 
ATOM     30  F   UNL     1       1.562   4.029  17.296  0.00  0.00    +0.000 F 
ENDBRANCH  24  27
ENDBRANCH   1  24
TORSDOF 3
ENDMDL
MODEL 6
REMARK VINA RESULT:      -9.5      6.183      7.641
REMARK  Name = 
REMARK  3 active torsions:
REMARK  status: ('A' for Active; 'I' for Inactive)
REMARK    1  A    between atoms: C_6  and  C_7
REMARK    2  A    between atoms: C_6  and  C_24
REMARK    3  A    between atoms: C_10  and  C_11
REMARK                            x       y       z     vdW  Elec       q    Type
REMARK                         _______ _______ _______ _____ _____    ______ ____
ROOT
ATOM      1  C   UNL     1       3.274   5.626  18.870  0.00  0.00    +0.000 A 
ATOM      2  C   UNL     1       3.117   6.848  18.322  0.00  0.00    +0.000 A 
ATOM      3  C   UNL     1       2.333   7.876  18.962  0.00  0.00    +0.000 A 
ATOM      4  C   UNL     1       1.746   7.632  20.141  0.00  0.00    +0.000 A 
ATOM      5  N   UNL     1       1.893   6.405  20.732  0.00  0.00    +0.000 N 
ATOM      6  C   UNL     1       2.610   5.369  20.189  0.00  0.00    +0.000 A 
ATOM      7  O   UNL     1       2.708   4.282  20.748  0.00  0.00    +0.000 OA
ATOM      8  H   UNL     1       1.446   6.223  21.624  0.00  0.00    +0.000 HD
ENDROOT
BRANCH   4   9
ATOM      9  C   UNL     1       0.923   8.649  20.798  0.00  0.00    +0.000 A 
ATOM     10  C   UNL     1       0.848   8.713  22.192  0.00  0.00    +0.000 A 
ATOM     11  C   UNL     1       0.124   9.738  22.807  0.00  0.00    +0.000 A 
ATOM     12  C   UNL     1      -0.526  10.719  22.041  0.00  0.00    +0.000 A 
ATOM     13  C   UNL     1      -1.224  11.778  22.645  0.00  0.00    +0.000 A 
ATOM     14  C   UNL     1      -1.851  12.754  21.867  0.00  0.00    +0.000 A 
ATOM     15  C   UNL     1      -1.799  12.677  20.478  0.00  0.00    +0.000 A 
ATOM     16  C   UNL     1      -1.114  11.629  19.863  0.00  0.00    +0.000 A 
ATOM     17  C   UNL     1      -0.466  10.648  20.631  0.00  0.00    +0.000 A 
ATOM     18  C   UNL     1       0.255   9.607  20.025  0.00  0.00    +0.000 A 
ENDBRANCH   4   9
BRANCH   1  24
ATOM     19  O   UNL     1       4.898   1.823  20.422  0.00  0.00    +0.000 OA
ATOM     20  C   UNL     1       4.450   2.563  19.564  0.00  0.00    +0.000 C 
ATOM     21  N   UNL     1       3.504   2.237  18.678  0.00  0.00    +0.000 N 
ATOM     22  C   UNL     1       3.174   3.299  17.916  0.00  0.00    +0.000 C 
ATOM     23  O   UNL     1       2.261   3.297  17.103  0.00  0.00    +0.000 OA
ATOM     24  C   UNL     1       4.059   4.460  18.305  0.00  0.00    +0.000 C 
ATOM     25  O   UNL     1       4.816   3.856  19.395  0.00  0.00    +0.000 OA
ATOM     26  H   UNL     1       3.039   1.343  18.661  0.00  0.00    +0.000 HD
BRANCH  24  27
ATOM     27  C   UNL     1       4.946   4.773  17.086  0.00  0.00    +0.000 C 
ATOM     28  F   UNL     1       5.401   3.650  16.475  0.00  0.00    +0.000 F 
ATOM     29  F   UNL     1       4.296   5.482  16.133  0.00  0.00    +0.000 F 
ATOM     30  F   UNL     1       6.054   5.472  17.429  0.00  0.00    +0.000 F 
ENDBRANCH  24  27
ENDBRANCH   1  24
TORSDOF 3
ENDMDL
MODEL 7
REMARK VINA RESULT:      -9.5      5.764      7.701
REMARK  Name = 
REMARK  3 active torsions:
REMARK  status: ('A' for Active; 'I' for Inactive)
REMARK    1  A    between atoms: C_6  and  C_7
REMARK    2  A    between atoms: C_6  and  C_24
REMARK    3  A    between atoms: C_10  and  C_11
REMARK                            x       y       z     vdW  Elec       q    Type
REMARK                         _______ _______ _______ _____ _____    ______ ____
ROOT
ATOM      1  C   UNL     1       3.790   5.735  18.233  0.00  0.00    +0.000 A 
ATOM      2  C   UNL     1       3.643   6.854  17.495  0.00  0.00    +0.000 A 
ATOM      3  C   UNL     1       2.827   7.959  17.939  0.00  0.00    +0.000 A 
ATOM      4  C   UNL     1       2.203   7.895  19.123  0.00  0.00    +0.000 A 
ATOM      5  N   UNL     1       2.339   6.778  19.904  0.00  0.00    +0.000 N 
ATOM      6  C   UNL     1       3.083   5.680  19.554  0.00  0.00    +0.000 A 
ATOM      7  O   UNL     1       3.170   4.695  20.280  0.00  0.00    +0.000 OA
ATOM      8  H   UNL     1       1.863   6.733  20.797  0.00  0.00    +0.000 HD
ENDROOT
BRANCH   4   9
ATOM      9  C   UNL     1       1.349   8.991  19.583  0.00  0.00    +0.000 A 
ATOM     10  C   UNL     1       0.881   9.955  18.687  0.00  0.00    +0.000 A 
ATOM     11  C   UNL     1       0.002  10.949  19.123  0.00  0.00    +0.000 A 
ATOM     12  C   UNL     1      -0.433  10.989  20.457  0.00  0.00    +0.000 A 
ATOM     13  C   UNL     1      -1.348  11.957  20.902  0.00  0.00    +0.000 A 
ATOM     14  C   UNL     1      -1.781  11.972  22.230  0.00  0.00    +0.000 A 
ATOM     15  C   UNL     1      -1.297  11.028  23.131  0.00  0.00    +0.000 A 
ATOM     16  C   UNL     1      -0.384  10.063  22.706  0.00  0.00    +0.000 A 
ATOM     17  C   UNL     1       0.050  10.026  21.371  0.00  0.00    +0.000 A 
ATOM     18  C   UNL     1       0.942   9.039  20.923  0.00  0.00    +0.000 A 
ENDBRANCH   4   9
BRANCH   1  24
ATOM     19  O   UNL     1       7.378   4.868  15.809  0.00  0.00    +0.000 OA
ATOM     20  C   UNL     1       6.590   4.681  16.720  0.00  0.00    +0.000 C 
ATOM     21  N   UNL     1       6.922   4.428  17.989  0.00  0.00    +0.000 N 
ATOM     22  C   UNL     1       5.822   4.348  18.765  0.00  0.00    +0.000 C 
ATOM     23  O   UNL     1       5.853   4.232  19.982  0.00  0.00    +0.000 OA
ATOM     24  C   UNL     1       4.604   4.506  17.885  0.00  0.00    +0.000 C 
ATOM     25  O   UNL     1       5.243   4.739  16.595  0.00  0.00    +0.000 OA
ATOM     26  H   UNL     1       7.871   4.404  18.324  0.00  0.00    +0.000 HD
BRANCH  24  27
ATOM     27  C   UNL     1       3.848   3.165  17.924  0.00  0.00    +0.000 C 
ATOM     28  F   UNL     1       3.980   2.531  19.117  0.00  0.00    +0.000 F 
ATOM     29  F   UNL     1       2.517   3.308  17.719  0.00  0.00    +0.000 F 
ATOM     30  F   UNL     1       4.312   2.292  16.998  0.00  0.00    +0.000 F 
ENDBRANCH  24  27
ENDBRANCH   1  24
TORSDOF 3
ENDMDL
MODEL 8
REMARK VINA RESULT:      -9.2      5.474      7.752
REMARK  Name = 
REMARK  3 active torsions:
REMARK  status: ('A' for Active; 'I' for Inactive)
REMARK    1  A    between atoms: C_6  and  C_7
REMARK    2  A    between atoms: C_6  and  C_24
REMARK    3  A    between atoms: C_10  and  C_11
REMARK                            x       y       z     vdW  Elec       q    Type
REMARK                         _______ _______ _______ _____ _____    ______ ____
ROOT
ATOM      1  C   UNL     1       3.648   6.135  18.281  0.00  0.00    +0.000 A 
ATOM      2  C   UNL     1       3.318   7.370  17.853  0.00  0.00    +0.000 A 
ATOM      3  C   UNL     1       2.463   8.241  18.622  0.00  0.00    +0.000 A 
ATOM      4  C   UNL     1       1.985   7.834  19.805  0.00  0.00    +0.000 A 
ATOM      5  N   UNL     1       2.309   6.590  20.277  0.00  0.00    +0.000 N 
ATOM      6  C   UNL     1       3.103   5.694  19.607  0.00  0.00    +0.000 A 
ATOM      7  O   UNL     1       3.360   4.585  20.062  0.00  0.00    +0.000 OA
ATOM      8  H   UNL     1       1.944   6.284  21.172  0.00  0.00    +0.000 HD
ENDROOT
BRANCH   4   9
ATOM      9  C   UNL     1       1.095   8.689  20.592  0.00  0.00    +0.000 A 
ATOM     10  C   UNL     1       1.051   8.581  21.985  0.00  0.00    +0.000 A 
ATOM     11  C   UNL     1       0.258   9.457  22.730  0.00  0.00    +0.000 A 
ATOM     12  C   UNL     1      -0.494  10.461  22.099  0.00  0.00    +0.000 A 
ATOM     13  C   UNL     1      -1.265  11.374  22.836  0.00  0.00    +0.000 A 
ATOM     14  C   UNL     1      -1.994  12.376  22.191  0.00  0.00    +0.000 A 
ATOM     15  C   UNL     1      -1.971  12.469  20.803  0.00  0.00    +0.000 A 
ATOM     16  C   UNL     1      -1.215  11.566  20.056  0.00  0.00    +0.000 A 
ATOM     17  C   UNL     1      -0.465  10.563  20.689  0.00  0.00    +0.000 A 
ATOM     18  C   UNL     1       0.327   9.669  19.951  0.00  0.00    +0.000 A 
ENDBRANCH   4   9
BRANCH   1  24
ATOM     19  O   UNL     1       7.370   6.240  15.907  0.00  0.00    +0.000 OA
ATOM     20  C   UNL     1       6.551   5.732  16.652  0.00  0.00    +0.000 C 
ATOM     21  N   UNL     1       6.835   5.060  17.772  0.00  0.00    +0.000 N 
ATOM     22  C   UNL     1       5.707   4.693  18.410  0.00  0.00    +0.000 C 
ATOM     23  O   UNL     1       5.688   4.161  19.512  0.00  0.00    +0.000 OA
ATOM     24  C   UNL     1       4.523   5.121  17.575  0.00  0.00    +0.000 C 
ATOM     25  O   UNL     1       5.209   5.800  16.482  0.00  0.00    +0.000 OA
ATOM     26  H   UNL     1       7.770   4.941  18.129  0.00  0.00    +0.000 HD
BRANCH  24  27
ATOM     27  C   UNL     1       3.819   3.834  17.106  0.00  0.00    +0.000 C 
ATOM     28  F   UNL     1       4.153   2.757  17.861  0.00  0.00    +0.000 F 
ATOM     29  F   UNL     1       2.469   3.926  17.159  0.00  0.00    +0.000 F 
ATOM     30  F   UNL     1       4.155   3.503  15.836  0.00  0.00    +0.000 F 
ENDBRANCH  24  27
ENDBRANCH   1  24
TORSDOF 3
ENDMDL
MODEL 9
REMARK VINA RESULT:      -9.2      6.591      7.754
REMARK  Name = 
REMARK  3 active torsions:
REMARK  status: ('A' for Active; 'I' for Inactive)
REMARK    1  A    between atoms: C_6  and  C_7
REMARK    2  A    between atoms: C_6  and  C_24
REMARK    3  A    between atoms: C_10  and  C_11
REMARK                            x       y       z     vdW  Elec       q    Type
REMARK                         _______ _______ _______ _____ _____    ______ ____
ROOT
ATOM      1  C   UNL     1       2.892   4.926  19.019  0.00  0.00    +0.000 A 
ATOM      2  C   UNL     1       2.874   5.968  18.163  0.00  0.00    +0.000 A 
ATOM      3  C   UNL     1       2.341   7.255  18.541  0.00  0.00    +0.000 A 
ATOM      4  C   UNL     1       1.858   7.442  19.776  0.00  0.00    +0.000 A 
ATOM      5  N   UNL     1       1.871   6.408  20.675  0.00  0.00    +0.000 N 
ATOM      6  C   UNL     1       2.347   5.152  20.397  0.00  0.00    +0.000 A 
ATOM      7  O   UNL     1       2.331   4.251  21.228  0.00  0.00    +0.000 OA
ATOM      8  H   UNL     1       1.503   6.553  21.608  0.00  0.00    +0.000 HD
ENDROOT
BRANCH   4   9
ATOM      9  C   UNL     1       1.287   8.729  20.175  0.00  0.00    +0.000 A 
ATOM     10  C   UNL     1       1.367   9.837  19.327  0.00  0.00    +0.000 A 
ATOM     11  C   UNL     1       0.748  11.038  19.683  0.00  0.00    +0.000 A 
ATOM     12  C   UNL     1       0.030  11.148  20.885  0.00  0.00    +0.000 A 
ATOM     13  C   UNL     1      -0.631  12.335  21.239  0.00  0.00    +0.000 A 
ATOM     14  C   UNL     1      -1.352  12.421  22.431  0.00  0.00    +0.000 A 
ATOM     15  C   UNL     1      -1.412  11.327  23.289  0.00  0.00    +0.000 A 
ATOM     16  C   UNL     1      -0.757  10.142  22.955  0.00  0.00    +0.000 A 
ATOM     17  C   UNL     1      -0.039  10.035  21.753  0.00  0.00    +0.000 A 
ATOM     18  C   UNL     1       0.597   8.838  21.388  0.00  0.00    +0.000 A 
ENDBRANCH   4   9
BRANCH   1  24
ATOM     19  O   UNL     1       5.159   1.881  21.277  0.00  0.00    +0.000 OA
ATOM     20  C   UNL     1       4.365   2.268  20.437  0.00  0.00    +0.000 C 
ATOM     21  N   UNL     1       3.149   1.756  20.228  0.00  0.00    +0.000 N 
ATOM     22  C   UNL     1       2.490   2.455  19.283  0.00  0.00    +0.000 C 
ATOM     23  O   UNL     1       1.321   2.261  18.981  0.00  0.00    +0.000 OA
ATOM     24  C   UNL     1       3.412   3.528  18.752  0.00  0.00    +0.000 C 
ATOM     25  O   UNL     1       4.578   3.311  19.600  0.00  0.00    +0.000 OA
ATOM     26  H   UNL     1       2.753   1.013  20.782  0.00  0.00    +0.000 HD
BRANCH  24  27
ATOM     27  C   UNL     1       3.695   3.185  17.278  0.00  0.00    +0.000 C 
ATOM     28  F   UNL     1       2.608   3.369  16.486  0.00  0.00    +0.000 F 
ATOM     29  F   UNL     1       4.682   3.943  16.744  0.00  0.00    +0.000 F 
ATOM     30  F   UNL     1       4.044   1.886  17.115  0.00  0.00    +0.000 F 
ENDBRANCH  24  27
ENDBRANCH   1  24
TORSDOF 3
ENDMDL
