MODEL 1
REMARK VINA RESULT:      -6.8      0.000      0.000
REMARK  Name = 
REMARK  3 active torsions:
REMARK  status: ('A' for Active; 'I' for Inactive)
REMARK    1  A    between atoms: C_1  and  N_2
REMARK    2  A    between atoms: N_2  and  C_3
REMARK    3  A    between atoms: C_4  and  C_6
REMARK                            x       y       z     vdW  Elec       q    Type
REMARK                         _______ _______ _______ _____ _____    ______ ____
ROOT
ATOM      1  C   UNL     1       3.603   5.331  18.409  0.00  0.00    +0.000 A 
ATOM      2  C   UNL     1       3.431   4.429  19.477  0.00  0.00    +0.000 A 
ATOM      3  C   UNL     1       2.490   4.755  20.454  0.00  0.00    +0.000 A 
ATOM      4  N   UNL     1       1.859   5.945  20.502  0.00  0.00    +0.000 NA
ATOM      5  C   UNL     1       2.137   6.868  19.580  0.00  0.00    +0.000 A 
ATOM      6  C   UNL     1       1.548   8.114  19.763  0.00  0.00    +0.000 A 
ATOM      7  C   UNL     1       1.763   9.166  18.879  0.00  0.00    +0.000 A 
ATOM      8  C   UNL     1       2.559   8.963  17.768  0.00  0.00    +0.000 A 
ATOM      9  C   UNL     1       3.148   7.708  17.558  0.00  0.00    +0.000 A 
ATOM     10  C   UNL     1       2.979   6.629  18.474  0.00  0.00    +0.000 A 
ATOM     11  C   UNL     1       2.031   3.757  21.494  0.00  0.00    +0.000 C 
ATOM     12  C   UNL     1       2.782   2.423  21.529  0.00  0.00    +0.000 C 
ATOM     13  C   UNL     1       3.356   2.063  20.168  0.00  0.00    +0.000 C 
ATOM     14  C   UNL     1       4.271   3.205  19.729  0.00  0.00    +0.000 C 
ENDROOT
BRANCH   1  18
ATOM     15  C   UNL     1       6.691   5.110  16.113  0.00  0.00    +0.000 C 
ATOM     16  N   UNL     1       5.897   5.405  17.301  0.00  0.00    +0.000 N 
ATOM     17  C   UNL     1       6.662   5.908  18.443  0.00  0.00    +0.000 C 
ATOM     18  C   UNL     1       4.541   5.022  17.280  0.00  0.00    +0.000 C 
ATOM     19  O   UNL     1       4.076   4.422  16.304  0.00  0.00    +0.000 OA
ENDBRANCH   1  18
TORSDOF 1
ENDMDL
MODEL 2
REMARK VINA RESULT:      -6.6      0.331      4.208
REMARK  Name = 
REMARK  3 active torsions:
REMARK  status: ('A' for Active; 'I' for Inactive)
REMARK    1  A    between atoms: C_1  and  N_2
REMARK    2  A    between atoms: N_2  and  C_3
REMARK    3  A    between atoms: C_4  and  C_6
REMARK                            x       y       z     vdW  Elec       q    Type
REMARK                         _______ _______ _______ _____ _____    ______ ____
ROOT
ATOM      1  C   UNL     1       3.765   5.359  18.582  0.00  0.00    +0.000 A 
ATOM      2  C   UNL     1       3.009   6.546  18.519  0.00  0.00    +0.000 A 
ATOM      3  C   UNL     1       2.141   6.816  19.578  0.00  0.00    +0.000 A 
ATOM      4  N   UNL     1       1.886   5.936  20.566  0.00  0.00    +0.000 NA
ATOM      5  C   UNL     1       2.482   4.742  20.545  0.00  0.00    +0.000 A 
ATOM      6  C   UNL     1       2.077   3.838  21.521  0.00  0.00    +0.000 A 
ATOM      7  C   UNL     1       2.614   2.557  21.604  0.00  0.00    +0.000 A 
ATOM      8  C   UNL     1       3.599   2.177  20.713  0.00  0.00    +0.000 A 
ATOM      9  C   UNL     1       4.032   3.082  19.733  0.00  0.00    +0.000 A 
ATOM     10  C   UNL     1       3.465   4.383  19.600  0.00  0.00    +0.000 A 
ATOM     11  C   UNL     1       1.481   8.166  19.753  0.00  0.00    +0.000 C 
ATOM     12  C   UNL     1       1.675   9.167  18.610  0.00  0.00    +0.000 C 
ATOM     13  C   UNL     1       2.976   8.922  17.860  0.00  0.00    +0.000 C 
ATOM     14  C   UNL     1       2.953   7.484  17.344  0.00  0.00    +0.000 C 
ENDROOT
BRANCH   1  18
ATOM     15  C   UNL     1       7.022   4.996  16.552  0.00  0.00    +0.000 C 
ATOM     16  N   UNL     1       6.149   5.297  17.681  0.00  0.00    +0.000 N 
ATOM     17  C   UNL     1       6.844   5.679  18.911  0.00  0.00    +0.000 C 
ATOM     18  C   UNL     1       4.774   5.029  17.522  0.00  0.00    +0.000 C 
ATOM     19  O   UNL     1       4.355   4.518  16.478  0.00  0.00    +0.000 OA
ENDBRANCH   1  18
TORSDOF 1
ENDMDL
MODEL 3
REMARK VINA RESULT:      -6.5      1.697      4.324
REMARK  Name = 
REMARK  3 active torsions:
REMARK  status: ('A' for Active; 'I' for Inactive)
REMARK    1  A    between atoms: C_1  and  N_2
REMARK    2  A    between atoms: N_2  and  C_3
REMARK    3  A    between atoms: C_4  and  C_6
REMARK                            x       y       z     vdW  Elec       q    Type
REMARK                         _______ _______ _______ _____ _____    ______ ____
ROOT
ATOM      1  C   UNL     1       3.585   5.162  18.533  0.00  0.00    +0.000 A 
ATOM      2  C   UNL     1       4.266   5.032  17.307  0.00  0.00    +0.000 A 
ATOM      3  C   UNL     1       4.477   6.191  16.559  0.00  0.00    +0.000 A 
ATOM      4  N   UNL     1       3.937   7.384  16.877  0.00  0.00    +0.000 NA
ATOM      5  C   UNL     1       3.157   7.479  17.956  0.00  0.00    +0.000 A 
ATOM      6  C   UNL     1       2.530   8.704  18.153  0.00  0.00    +0.000 A 
ATOM      7  C   UNL     1       1.685   8.932  19.234  0.00  0.00    +0.000 A 
ATOM      8  C   UNL     1       1.482   7.924  20.158  0.00  0.00    +0.000 A 
ATOM      9  C   UNL     1       2.119   6.687  19.984  0.00  0.00    +0.000 A 
ATOM     10  C   UNL     1       2.954   6.416  18.861  0.00  0.00    +0.000 A 
ATOM     11  C   UNL     1       5.413   6.223  15.371  0.00  0.00    +0.000 C 
ATOM     12  C   UNL     1       5.983   4.873  14.922  0.00  0.00    +0.000 C 
ATOM     13  C   UNL     1       6.069   3.886  16.076  0.00  0.00    +0.000 C 
ATOM     14  C   UNL     1       4.668   3.731  16.665  0.00  0.00    +0.000 C 
ENDROOT
BRANCH   1  18
ATOM     15  C   UNL     1       2.076   2.148  20.403  0.00  0.00    +0.000 C 
ATOM     16  N   UNL     1       2.184   3.233  19.434  0.00  0.00    +0.000 N 
ATOM     17  C   UNL     1       1.092   3.299  18.461  0.00  0.00    +0.000 C 
ATOM     18  C   UNL     1       3.380   3.978  19.431  0.00  0.00    +0.000 C 
ATOM     19  O   UNL     1       4.304   3.678  20.195  0.00  0.00    +0.000 OA
ENDBRANCH   1  18
TORSDOF 1
ENDMDL
MODEL 4
REMARK VINA RESULT:      -6.5      1.919      4.337
REMARK  Name = 
REMARK  3 active torsions:
REMARK  status: ('A' for Active; 'I' for Inactive)
REMARK    1  A    between atoms: C_1  and  N_2
REMARK    2  A    between atoms: N_2  and  C_3
REMARK    3  A    between atoms: C_4  and  C_6
REMARK                            x       y       z     vdW  Elec       q    Type
REMARK                         _______ _______ _______ _____ _____    ______ ____
ROOT
ATOM      1  C   UNL     1       3.605   6.042  18.009  0.00  0.00    +0.000 A 
ATOM      2  C   UNL     1       2.923   4.811  18.048  0.00  0.00    +0.000 A 
ATOM      3  C   UNL     1       3.688   3.652  18.184  0.00  0.00    +0.000 A 
ATOM      4  N   UNL     1       5.034   3.646  18.127  0.00  0.00    +0.000 NA
ATOM      5  C   UNL     1       5.683   4.795  17.930  0.00  0.00    +0.000 A 
ATOM      6  C   UNL     1       7.059   4.699  17.754  0.00  0.00    +0.000 A 
ATOM      7  C   UNL     1       7.852   5.820  17.532  0.00  0.00    +0.000 A 
ATOM      8  C   UNL     1       7.264   7.071  17.514  0.00  0.00    +0.000 A 
ATOM      9  C   UNL     1       5.880   7.188  17.707  0.00  0.00    +0.000 A 
ATOM     10  C   UNL     1       5.042   6.050  17.892  0.00  0.00    +0.000 A 
ATOM     11  C   UNL     1       3.066   2.309  18.500  0.00  0.00    +0.000 C 
ATOM     12  C   UNL     1       1.535   2.254  18.489  0.00  0.00    +0.000 C 
ATOM     13  C   UNL     1       0.919   3.602  18.828  0.00  0.00    +0.000 C 
ATOM     14  C   UNL     1       1.447   4.623  17.821  0.00  0.00    +0.000 C 
ENDROOT
BRANCH   1  18
ATOM     15  C   UNL     1       1.345   9.063  18.801  0.00  0.00    +0.000 C 
ATOM     16  N   UNL     1       2.087   7.825  19.015  0.00  0.00    +0.000 N 
ATOM     17  C   UNL     1       2.077   7.333  20.394  0.00  0.00    +0.000 C 
ATOM     18  C   UNL     1       2.854   7.339  17.938  0.00  0.00    +0.000 C 
ATOM     19  O   UNL     1       2.919   7.976  16.881  0.00  0.00    +0.000 OA
ENDBRANCH   1  18
TORSDOF 1
ENDMDL
MODEL 5
REMARK VINA RESULT:      -6.2      2.043      5.146
REMARK  Name = 
REMARK  3 active torsions:
REMARK  status: ('A' for Active; 'I' for Inactive)
REMARK    1  A    between atoms: C_1  and  N_2
REMARK    2  A    between atoms: N_2  and  C_3
REMARK    3  A    between atoms: C_4  and  C_6
REMARK                            x       y       z     vdW  Elec       q    Type
REMARK                         _______ _______ _______ _____ _____    ______ ____
ROOT
ATOM      1  C   UNL     1       2.660   5.804  19.393  0.00  0.00    +0.000 A 
ATOM      2  C   UNL     1       2.167   7.105  19.608  0.00  0.00    +0.000 A 
ATOM      3  C   UNL     1       2.425   8.064  18.627  0.00  0.00    +0.000 A 
ATOM      4  N   UNL     1       3.239   7.844  17.576  0.00  0.00    +0.000 NA
ATOM      5  C   UNL     1       3.838   6.657  17.453  0.00  0.00    +0.000 A 
ATOM      6  C   UNL     1       4.761   6.541  16.420  0.00  0.00    +0.000 A 
ATOM      7  C   UNL     1       5.460   5.361  16.187  0.00  0.00    +0.000 A 
ATOM      8  C   UNL     1       5.211   4.260  16.985  0.00  0.00    +0.000 A 
ATOM      9  C   UNL     1       4.271   4.354  18.021  0.00  0.00    +0.000 A 
ATOM     10  C   UNL     1       3.576   5.565  18.306  0.00  0.00    +0.000 A 
ATOM     11  C   UNL     1       1.734   9.410  18.616  0.00  0.00    +0.000 C 
ATOM     12  C   UNL     1       0.866   9.735  19.835  0.00  0.00    +0.000 C 
ATOM     13  C   UNL     1       0.316   8.476  20.488  0.00  0.00    +0.000 C 
ATOM     14  C   UNL     1       1.501   7.590  20.868  0.00  0.00    +0.000 C 
ENDROOT
BRANCH   1  18
ATOM     15  C   UNL     1       1.202   2.679  21.117  0.00  0.00    +0.000 C 
ATOM     16  N   UNL     1       1.459   3.659  20.067  0.00  0.00    +0.000 N 
ATOM     17  C   UNL     1       0.869   3.336  18.767  0.00  0.00    +0.000 C 
ATOM     18  C   UNL     1       2.366   4.697  20.362  0.00  0.00    +0.000 C 
ATOM     19  O   UNL     1       2.942   4.730  21.455  0.00  0.00    +0.000 OA
ENDBRANCH   1  18
TORSDOF 1
ENDMDL
MODEL 6
REMARK VINA RESULT:      -6.1      1.960      4.601
REMARK  Name = 
REMARK  3 active torsions:
REMARK  status: ('A' for Active; 'I' for Inactive)
REMARK    1  A    between atoms: C_1  and  N_2
REMARK    2  A    between atoms: N_2  and  C_3
REMARK    3  A    between atoms: C_4  and  C_6
REMARK                            x       y       z     vdW  Elec       q    Type
REMARK                         _______ _______ _______ _____ _____    ______ ____
ROOT
ATOM      1  C   UNL     1       4.169   4.517  18.283  0.00  0.00    +0.000 A 
ATOM      2  C   UNL     1       3.488   5.561  18.939  0.00  0.00    +0.000 A 
ATOM      3  C   UNL     1       3.339   6.767  18.253  0.00  0.00    +0.000 A 
ATOM      4  N   UNL     1       3.937   7.024  17.073  0.00  0.00    +0.000 NA
ATOM      5  C   UNL     1       4.716   6.092  16.521  0.00  0.00    +0.000 A 
ATOM      6  C   UNL     1       5.402   6.468  15.372  0.00  0.00    +0.000 A 
ATOM      7  C   UNL     1       6.253   5.594  14.704  0.00  0.00    +0.000 A 
ATOM      8  C   UNL     1       6.401   4.303  15.174  0.00  0.00    +0.000 A 
ATOM      9  C   UNL     1       5.703   3.900  16.321  0.00  0.00    +0.000 A 
ATOM     10  C   UNL     1       4.861   4.792  17.048  0.00  0.00    +0.000 A 
ATOM     11  C   UNL     1       2.412   7.860  18.738  0.00  0.00    +0.000 C 
ATOM     12  C   UNL     1       1.777   7.646  20.116  0.00  0.00    +0.000 C 
ATOM     13  C   UNL     1       1.635   6.169  20.448  0.00  0.00    +0.000 C 
ATOM     14  C   UNL     1       3.024   5.537  20.371  0.00  0.00    +0.000 C 
ENDROOT
BRANCH   1  18
ATOM     15  C   UNL     1       3.609   0.870  19.395  0.00  0.00    +0.000 C 
ATOM     16  N   UNL     1       3.409   2.114  18.661  0.00  0.00    +0.000 N 
ATOM     17  C   UNL     1       2.393   2.051  17.609  0.00  0.00    +0.000 C 
ATOM     18  C   UNL     1       4.310   3.166  18.920  0.00  0.00    +0.000 C 
ATOM     19  O   UNL     1       5.250   3.004  19.706  0.00  0.00    +0.000 OA
ENDBRANCH   1  18
TORSDOF 1
ENDMDL
MODEL 7
REMARK VINA RESULT:      -5.9      1.057      1.388
REMARK  Name = 
REMARK  3 active torsions:
REMARK  status: ('A' for Active; 'I' for Inactive)
REMARK    1  A    between atoms: C_1  and  N_2
REMARK    2  A    between atoms: N_2  and  C_3
REMARK    3  A    between atoms: C_4  and  C_6
REMARK                            x       y       z     vdW  Elec       q    Type
REMARK                         _______ _______ _______ _____ _____    ______ ____
ROOT
ATOM      1  C   UNL     1       3.518   5.743  18.540  0.00  0.00    +0.000 A 
ATOM      2  C   UNL     1       3.406   4.775  19.558  0.00  0.00    +0.000 A 
ATOM      3  C   UNL     1       2.428   4.973  20.534  0.00  0.00    +0.000 A 
ATOM      4  N   UNL     1       1.700   6.103  20.630  0.00  0.00    +0.000 NA
ATOM      5  C   UNL     1       1.913   7.092  19.761  0.00  0.00    +0.000 A 
ATOM      6  C   UNL     1       1.221   8.274  19.995  0.00  0.00    +0.000 A 
ATOM      7  C   UNL     1       1.360   9.385  19.169  0.00  0.00    +0.000 A 
ATOM      8  C   UNL     1       2.186   9.306  18.064  0.00  0.00    +0.000 A 
ATOM      9  C   UNL     1       2.879   8.115  17.802  0.00  0.00    +0.000 A 
ATOM     10  C   UNL     1       2.787   6.980  18.659  0.00  0.00    +0.000 A 
ATOM     11  C   UNL     1       2.038   3.888  21.514  0.00  0.00    +0.000 C 
ATOM     12  C   UNL     1       2.897   2.620  21.495  0.00  0.00    +0.000 C 
ATOM     13  C   UNL     1       3.518   2.379  20.128  0.00  0.00    +0.000 C 
ATOM     14  C   UNL     1       4.341   3.614  19.764  0.00  0.00    +0.000 C 
ENDROOT
BRANCH   1  18
ATOM     15  C   UNL     1       5.462   4.395  15.498  0.00  0.00    +0.000 C 
ATOM     16  N   UNL     1       4.414   4.494  16.508  0.00  0.00    +0.000 N 
ATOM     17  C   UNL     1       3.306   3.552  16.339  0.00  0.00    +0.000 C 
ATOM     18  C   UNL     1       4.493   5.570  17.414  0.00  0.00    +0.000 C 
ATOM     19  O   UNL     1       5.395   6.409  17.310  0.00  0.00    +0.000 OA
ENDBRANCH   1  18
TORSDOF 1
ENDMDL
MODEL 8
REMARK VINA RESULT:      -5.8      1.888      4.210
REMARK  Name = 
REMARK  3 active torsions:
REMARK  status: ('A' for Active; 'I' for Inactive)
REMARK    1  A    between atoms: C_1  and  N_2
REMARK    2  A    between atoms: N_2  and  C_3
REMARK    3  A    between atoms: C_4  and  C_6
REMARK                            x       y       z     vdW  Elec       q    Type
REMARK                         _______ _______ _______ _____ _____    ______ ____
ROOT
ATOM      1  C   UNL     1       3.187   4.397  18.115  0.00  0.00    +0.000 A 
ATOM      2  C   UNL     1       2.709   5.344  19.042  0.00  0.00    +0.000 A 
ATOM      3  C   UNL     1       2.941   6.692  18.766  0.00  0.00    +0.000 A 
ATOM      4  N   UNL     1       3.719   7.114  17.750  0.00  0.00    +0.000 NA
ATOM      5  C   UNL     1       4.305   6.213  16.960  0.00  0.00    +0.000 A 
ATOM      6  C   UNL     1       5.193   6.712  16.014  0.00  0.00    +0.000 A 
ATOM      7  C   UNL     1       5.877   5.878  15.135  0.00  0.00    +0.000 A 
ATOM      8  C   UNL     1       5.648   4.516  15.179  0.00  0.00    +0.000 A 
ATOM      9  C   UNL     1       4.743   3.996  16.115  0.00  0.00    +0.000 A 
ATOM     10  C   UNL     1       4.065   4.826  17.055  0.00  0.00    +0.000 A 
ATOM     11  C   UNL     1       2.258   7.800  19.537  0.00  0.00    +0.000 C 
ATOM     12  C   UNL     1       1.433   7.369  20.753  0.00  0.00    +0.000 C 
ATOM     13  C   UNL     1       0.896   5.955  20.598  0.00  0.00    +0.000 C 
ATOM     14  C   UNL     1       2.088   5.024  20.375  0.00  0.00    +0.000 C 
ENDROOT
BRANCH   1  18
ATOM     15  C   UNL     1       3.422   0.685  19.128  0.00  0.00    +0.000 C 
ATOM     16  N   UNL     1       3.747   2.107  19.083  0.00  0.00    +0.000 N 
ATOM     17  C   UNL     1       4.801   2.526  20.009  0.00  0.00    +0.000 C 
ATOM     18  C   UNL     1       2.917   2.933  18.299  0.00  0.00    +0.000 C 
ATOM     19  O   UNL     1       1.934   2.459  17.719  0.00  0.00    +0.000 OA
ENDBRANCH   1  18
TORSDOF 1
ENDMDL
MODEL 9
REMARK VINA RESULT:      -5.8      5.270      8.301
REMARK  Name = 
REMARK  3 active torsions:
REMARK  status: ('A' for Active; 'I' for Inactive)
REMARK    1  A    between atoms: C_1  and  N_2
REMARK    2  A    between atoms: N_2  and  C_3
REMARK    3  A    between atoms: C_4  and  C_6
REMARK                            x       y       z     vdW  Elec       q    Type
REMARK                         _______ _______ _______ _____ _____    ______ ____
ROOT
ATOM      1  C   UNL     1      -1.068  10.818  19.567  0.00  0.00    +0.000 A 
ATOM      2  C   UNL     1      -1.345  11.791  20.547  0.00  0.00    +0.000 A 
ATOM      3  C   UNL     1      -2.568  12.458  20.469  0.00  0.00    +0.000 A 
ATOM      4  N   UNL     1      -3.417  12.324  19.431  0.00  0.00    +0.000 NA
ATOM      5  C   UNL     1      -3.086  11.521  18.418  0.00  0.00    +0.000 A 
ATOM      6  C   UNL     1      -3.944  11.528  17.325  0.00  0.00    +0.000 A 
ATOM      7  C   UNL     1      -3.709  10.742  16.201  0.00  0.00    +0.000 A 
ATOM      8  C   UNL     1      -2.609   9.907  16.178  0.00  0.00    +0.000 A 
ATOM      9  C   UNL     1      -1.742   9.873  17.279  0.00  0.00    +0.000 A 
ATOM     10  C   UNL     1      -1.937  10.702  18.422  0.00  0.00    +0.000 A 
ATOM     11  C   UNL     1      -3.087  13.322  21.598  0.00  0.00    +0.000 C 
ATOM     12  C   UNL     1      -2.119  13.570  22.759  0.00  0.00    +0.000 C 
ATOM     13  C   UNL     1      -1.125  12.430  22.919  0.00  0.00    +0.000 C 
ATOM     14  C   UNL     1      -0.378  12.273  21.596  0.00  0.00    +0.000 C 
ENDROOT
BRANCH   1  18
ATOM     15  C   UNL     1       1.710   8.354  20.601  0.00  0.00    +0.000 C 
ATOM     16  N   UNL     1       0.417   9.030  20.612  0.00  0.00    +0.000 N 
ATOM     17  C   UNL     1      -0.556   8.479  21.557  0.00  0.00    +0.000 C 
ATOM     18  C   UNL     1       0.191  10.005  19.620  0.00  0.00    +0.000 C 
ATOM     19  O   UNL     1       1.048  10.229  18.758  0.00  0.00    +0.000 OA
ENDBRANCH   1  18
TORSDOF 1
ENDMDL
