MODEL 1
REMARK VINA RESULT:      -8.0      0.000      0.000
REMARK  Name = 
REMARK  7 active torsions:
REMARK  status: ('A' for Active; 'I' for Inactive)
REMARK    1  A    between atoms: C_1  and  C_2
REMARK    2  A    between atoms: C_2  and  O_3
REMARK    3  A    between atoms: O_3  and  C_4
REMARK    4  A    between atoms: C_7  and  N_8
REMARK    5  A    between atoms: C_9  and  C_11
REMARK    6  A    between atoms: C_11  and  C_12
REMARK    7  A    between atoms: C_15  and  N_16
REMARK                            x       y       z     vdW  Elec       q    Type
REMARK                         _______ _______ _______ _____ _____    ______ ____
ROOT
ATOM      1  C   UNL     1       1.815   8.436  19.395  0.00  0.00    +0.000 A 
ATOM      2  C   UNL     1       2.019   9.182  18.211  0.00  0.00    +0.000 A 
ATOM      3  C   UNL     1       1.626  10.644  18.023  0.00  0.00    +0.000 A 
ATOM      4  C   UNL     1       0.987  11.449  19.013  0.00  0.00    +0.000 A 
ATOM      5  C   UNL     1       0.738  10.634  20.158  0.00  0.00    +0.000 A 
ATOM      6  C   UNL     1       1.127   9.205  20.346  0.00  0.00    +0.000 A 
ENDROOT
BRANCH   4   7
ATOM      7  N   UNL     1       0.530  13.009  19.026  0.00  0.00    +0.000 N 
ATOM      8  C   UNL     1       1.292  14.214  19.194  0.00  0.00    +0.000 C 
ATOM      9  O   UNL     1       2.526  14.104  19.338  0.00  0.00    +0.000 OA
ATOM     10  N   UNL     1       0.672  15.693  19.060  0.00  0.00    +0.000 N 
ATOM     11  C   UNL     1       1.859  16.692  19.132  0.00  0.00    +0.000 C 
ATOM     12  C   UNL     1       2.261  17.300  17.721  0.00  0.00    +0.000 C 
ATOM     13  C   UNL     1       0.944  17.895  17.391  0.00  0.00    +0.000 C 
ATOM     14  C   UNL     1      -0.313  18.491  17.045  0.00  0.00    +0.000 C 
ATOM     15  C   UNL     1      -1.179  17.788  18.202  0.00  0.00    +0.000 A 
ATOM     16  C   UNL     1      -2.325  18.629  18.414  0.00  0.00    +0.000 A 
ATOM     17  C   UNL     1      -3.077  18.478  19.548  0.00  0.00    +0.000 A 
ATOM     18  C   UNL     1      -2.713  17.451  20.430  0.00  0.00    +0.000 A 
ATOM     19  C   UNL     1      -1.632  16.493  20.202  0.00  0.00    +0.000 A 
ATOM     20  C   UNL     1      -0.785  16.545  19.076  0.00  0.00    +0.000 A 
ATOM     21  H   UNL     1      -0.460  13.127  18.899  0.00  0.00    +0.000 HD
ENDBRANCH   4   7
BRANCH   1  22
ATOM     22  C   UNL     1       2.113   6.901  19.585  0.00  0.00    +0.000 C 
BRANCH  22  24
ATOM     23  N   UNL     1       3.977   6.225  18.000  0.00  0.00    +0.000 N 
ATOM     24  C   UNL     1       2.724   5.943  18.507  0.00  0.00    +0.000 C 
ATOM     25  O   UNL     1       2.113   4.906  18.219  0.00  0.00    +0.000 OA
ATOM     26  H   UNL     1       4.447   7.051  18.354  0.00  0.00    +0.000 HD
BRANCH  23  30
ATOM     27  C   UNL     1       6.030   4.111  14.808  0.00  0.00    +0.000 A 
ATOM     28  C   UNL     1       5.818   3.485  16.035  0.00  0.00    +0.000 A 
ATOM     29  C   UNL     1       5.165   4.151  17.116  0.00  0.00    +0.000 A 
ATOM     30  C   UNL     1       4.697   5.464  17.008  0.00  0.00    +0.000 A 
ATOM     31  C   UNL     1       4.948   6.078  15.780  0.00  0.00    +0.000 A 
ATOM     32  C   UNL     1       5.615   5.430  14.696  0.00  0.00    +0.000 A 
BRANCH  27  33
ATOM     33  O   UNL     1       6.628   3.367  13.827  0.00  0.00    +0.000 OA
BRANCH  33  35
ATOM     34  C   UNL     1       4.980   3.376  12.065  0.00  0.00    +0.000 C 
ATOM     35  C   UNL     1       6.393   3.774  12.471  0.00  0.00    +0.000 C 
ENDBRANCH  33  35
ENDBRANCH  27  33
ENDBRANCH  23  30
ENDBRANCH  22  24
ENDBRANCH   1  22
TORSDOF 6
ENDMDL
MODEL 2
REMARK VINA RESULT:      -7.8      1.116      1.551
REMARK  Name = 
REMARK  7 active torsions:
REMARK  status: ('A' for Active; 'I' for Inactive)
REMARK    1  A    between atoms: C_1  and  C_2
REMARK    2  A    between atoms: C_2  and  O_3
REMARK    3  A    between atoms: O_3  and  C_4
REMARK    4  A    between atoms: C_7  and  N_8
REMARK    5  A    between atoms: C_9  and  C_11
REMARK    6  A    between atoms: C_11  and  C_12
REMARK    7  A    between atoms: C_15  and  N_16
REMARK                            x       y       z     vdW  Elec       q    Type
REMARK                         _______ _______ _______ _____ _____    ______ ____
ROOT
ATOM      1  C   UNL     1       1.335   7.857  20.654  0.00  0.00    +0.000 A 
ATOM      2  C   UNL     1       1.101   8.687  21.776  0.00  0.00    +0.000 A 
ATOM      3  C   UNL     1       0.842  10.189  21.710  0.00  0.00    +0.000 A 
ATOM      4  C   UNL     1       0.816  10.959  20.509  0.00  0.00    +0.000 A 
ATOM      5  C   UNL     1       1.128  10.094  19.417  0.00  0.00    +0.000 A 
ATOM      6  C   UNL     1       1.376   8.623  19.479  0.00  0.00    +0.000 A 
ENDROOT
BRANCH   4   7
ATOM      7  N   UNL     1       0.522  12.533  20.225  0.00  0.00    +0.000 N 
ATOM      8  C   UNL     1       1.277  13.708  20.556  0.00  0.00    +0.000 C 
ATOM      9  O   UNL     1       2.365  13.551  21.144  0.00  0.00    +0.000 OA
ATOM     10  N   UNL     1       0.875  15.194  20.084  0.00  0.00    +0.000 N 
ATOM     11  C   UNL     1       2.042  16.132  20.496  0.00  0.00    +0.000 C 
ATOM     12  C   UNL     1       2.968  16.561  19.278  0.00  0.00    +0.000 C 
ATOM     13  C   UNL     1       1.910  17.183  18.448  0.00  0.00    +0.000 C 
ATOM     14  C   UNL     1       0.914  17.801  17.623  0.00  0.00    +0.000 C 
ATOM     15  C   UNL     1      -0.364  17.274  18.444  0.00  0.00    +0.000 A 
ATOM     16  C   UNL     1      -1.432  18.191  18.157  0.00  0.00    +0.000 A 
ATOM     17  C   UNL     1      -2.547  18.204  18.952  0.00  0.00    +0.000 A 
ATOM     18  C   UNL     1      -2.609  17.261  19.989  0.00  0.00    +0.000 A 
ATOM     19  C   UNL     1      -1.605  16.230  20.247  0.00  0.00    +0.000 A 
ATOM     20  C   UNL     1      -0.413  16.115  19.502  0.00  0.00    +0.000 A 
ATOM     21  H   UNL     1      -0.346  12.686  19.741  0.00  0.00    +0.000 HD
ENDBRANCH   4   7
BRANCH   1  22
ATOM     22  C   UNL     1       1.709   6.328  20.695  0.00  0.00    +0.000 C 
BRANCH  22  24
ATOM     23  N   UNL     1       3.228   6.300  18.662  0.00  0.00    +0.000 N 
ATOM     24  C   UNL     1       2.604   5.572  19.655  0.00  0.00    +0.000 C 
ATOM     25  O   UNL     1       2.809   4.362  19.816  0.00  0.00    +0.000 OA
ATOM     26  H   UNL     1       3.074   7.302  18.652  0.00  0.00    +0.000 HD
BRANCH  23  30
ATOM     27  C   UNL     1       5.818   5.012  15.420  0.00  0.00    +0.000 A 
ATOM     28  C   UNL     1       5.021   4.084  16.086  0.00  0.00    +0.000 A 
ATOM     29  C   UNL     1       4.171   4.462  17.170  0.00  0.00    +0.000 A 
ATOM     30  C   UNL     1       4.084   5.782  17.621  0.00  0.00    +0.000 A 
ATOM     31  C   UNL     1       4.912   6.686  16.957  0.00  0.00    +0.000 A 
ATOM     32  C   UNL     1       5.781   6.320  15.884  0.00  0.00    +0.000 A 
BRANCH  27  33
ATOM     33  O   UNL     1       6.563   4.550  14.369  0.00  0.00    +0.000 OA
BRANCH  33  35
ATOM     34  C   UNL     1       6.684   3.674  12.125  0.00  0.00    +0.000 C 
ATOM     35  C   UNL     1       5.895   3.698  13.426  0.00  0.00    +0.000 C 
ENDBRANCH  33  35
ENDBRANCH  27  33
ENDBRANCH  23  30
ENDBRANCH  22  24
ENDBRANCH   1  22
TORSDOF 6
ENDMDL
MODEL 3
REMARK VINA RESULT:      -7.8      1.209      1.793
REMARK  Name = 
REMARK  7 active torsions:
REMARK  status: ('A' for Active; 'I' for Inactive)
REMARK    1  A    between atoms: C_1  and  C_2
REMARK    2  A    between atoms: C_2  and  O_3
REMARK    3  A    between atoms: O_3  and  C_4
REMARK    4  A    between atoms: C_7  and  N_8
REMARK    5  A    between atoms: C_9  and  C_11
REMARK    6  A    between atoms: C_11  and  C_12
REMARK    7  A    between atoms: C_15  and  N_16
REMARK                            x       y       z     vdW  Elec       q    Type
REMARK                         _______ _______ _______ _____ _____    ______ ____
ROOT
ATOM      1  C   UNL     1       0.980   7.984  20.721  0.00  0.00    +0.000 A 
ATOM      2  C   UNL     1       0.332   8.734  21.729  0.00  0.00    +0.000 A 
ATOM      3  C   UNL     1       0.040  10.229  21.652  0.00  0.00    +0.000 A 
ATOM      4  C   UNL     1       0.394  11.073  20.556  0.00  0.00    +0.000 A 
ATOM      5  C   UNL     1       1.107  10.287  19.601  0.00  0.00    +0.000 A 
ATOM      6  C   UNL     1       1.390   8.823  19.673  0.00  0.00    +0.000 A 
ENDROOT
BRANCH   4   7
ATOM      7  N   UNL     1       0.142  12.652  20.265  0.00  0.00    +0.000 N 
ATOM      8  C   UNL     1       0.914  13.811  20.612  0.00  0.00    +0.000 C 
ATOM      9  O   UNL     1       1.986  13.630  21.224  0.00  0.00    +0.000 OA
ATOM     10  N   UNL     1       0.556  15.304  20.131  0.00  0.00    +0.000 N 
ATOM     11  C   UNL     1       1.734  16.217  20.568  0.00  0.00    +0.000 C 
ATOM     12  C   UNL     1       2.697  16.624  19.372  0.00  0.00    +0.000 C 
ATOM     13  C   UNL     1       1.671  17.268  18.517  0.00  0.00    +0.000 C 
ATOM     14  C   UNL     1       0.707  17.908  17.670  0.00  0.00    +0.000 C 
ATOM     15  C   UNL     1      -0.600  17.410  18.463  0.00  0.00    +0.000 A 
ATOM     16  C   UNL     1      -1.641  18.350  18.151  0.00  0.00    +0.000 A 
ATOM     17  C   UNL     1      -2.773  18.387  18.922  0.00  0.00    +0.000 A 
ATOM     18  C   UNL     1      -2.879  17.448  19.957  0.00  0.00    +0.000 A 
ATOM     19  C   UNL     1      -1.903  16.395  20.238  0.00  0.00    +0.000 A 
ATOM     20  C   UNL     1      -0.698  16.253  19.520  0.00  0.00    +0.000 A 
ATOM     21  H   UNL     1      -0.711  12.824  19.761  0.00  0.00    +0.000 HD
ENDBRANCH   4   7
BRANCH   1  22
ATOM     22  C   UNL     1       1.390   6.465  20.815  0.00  0.00    +0.000 C 
BRANCH  22  24
ATOM     23  N   UNL     1       2.659   6.163  18.637  0.00  0.00    +0.000 N 
ATOM     24  C   UNL     1       2.477   5.751  19.942  0.00  0.00    +0.000 C 
ATOM     25  O   UNL     1       3.212   4.912  20.479  0.00  0.00    +0.000 OA
ATOM     26  H   UNL     1       2.071   6.918  18.301  0.00  0.00    +0.000 HD
BRANCH  23  30
ATOM     27  C   UNL     1       5.459   4.288  15.896  0.00  0.00    +0.000 A 
ATOM     28  C   UNL     1       5.538   5.657  16.144  0.00  0.00    +0.000 A 
ATOM     29  C   UNL     1       4.624   6.316  17.022  0.00  0.00    +0.000 A 
ATOM     30  C   UNL     1       3.605   5.628  17.687  0.00  0.00    +0.000 A 
ATOM     31  C   UNL     1       3.530   4.265  17.400  0.00  0.00    +0.000 A 
ATOM     32  C   UNL     1       4.426   3.596  16.511  0.00  0.00    +0.000 A 
BRANCH  27  33
ATOM     33  O   UNL     1       6.411   3.752  15.071  0.00  0.00    +0.000 OA
BRANCH  33  35
ATOM     34  C   UNL     1       5.672   3.511  12.788  0.00  0.00    +0.000 C 
ATOM     35  C   UNL     1       6.523   4.318  13.757  0.00  0.00    +0.000 C 
ENDBRANCH  33  35
ENDBRANCH  27  33
ENDBRANCH  23  30
ENDBRANCH  22  24
ENDBRANCH   1  22
TORSDOF 6
ENDMDL
MODEL 4
REMARK VINA RESULT:      -7.7      3.650     13.070
REMARK  Name = 
REMARK  7 active torsions:
REMARK  status: ('A' for Active; 'I' for Inactive)
REMARK    1  A    between atoms: C_1  and  C_2
REMARK    2  A    between atoms: C_2  and  O_3
REMARK    3  A    between atoms: O_3  and  C_4
REMARK    4  A    between atoms: C_7  and  N_8
REMARK    5  A    between atoms: C_9  and  C_11
REMARK    6  A    between atoms: C_11  and  C_12
REMARK    7  A    between atoms: C_15  and  N_16
REMARK                            x       y       z     vdW  Elec       q    Type
REMARK                         _______ _______ _______ _____ _____    ______ ____
ROOT
ATOM      1  C   UNL     1      -0.517  10.763  22.367  0.00  0.00    +0.000 A 
ATOM      2  C   UNL     1      -0.558   9.409  22.772  0.00  0.00    +0.000 A 
ATOM      3  C   UNL     1       0.284   8.291  22.165  0.00  0.00    +0.000 A 
ATOM      4  C   UNL     1       1.217   8.462  21.098  0.00  0.00    +0.000 A 
ATOM      5  C   UNL     1       1.168   9.826  20.677  0.00  0.00    +0.000 A 
ATOM      6  C   UNL     1       0.348  10.921  21.273  0.00  0.00    +0.000 A 
ENDROOT
BRANCH   4   7
ATOM      7  N   UNL     1       2.224   7.429  20.350  0.00  0.00    +0.000 N 
ATOM      8  C   UNL     1       2.202   5.997  20.249  0.00  0.00    +0.000 C 
ATOM      9  O   UNL     1       1.257   5.392  20.793  0.00  0.00    +0.000 OA
ATOM     10  N   UNL     1       3.236   5.145  19.356  0.00  0.00    +0.000 N 
ATOM     11  C   UNL     1       2.752   3.670  19.384  0.00  0.00    +0.000 C 
ATOM     12  C   UNL     1       2.032   3.216  18.042  0.00  0.00    +0.000 C 
ATOM     13  C   UNL     1       3.156   3.503  17.120  0.00  0.00    +0.000 C 
ATOM     14  C   UNL     1       4.226   3.760  16.201  0.00  0.00    +0.000 C 
ATOM     15  C   UNL     1       5.152   4.591  17.218  0.00  0.00    +0.000 A 
ATOM     16  C   UNL     1       6.495   4.483  16.718  0.00  0.00    +0.000 A 
ATOM     17  C   UNL     1       7.549   4.803  17.531  0.00  0.00    +0.000 A 
ATOM     18  C   UNL     1       7.250   5.284  18.814  0.00  0.00    +0.000 A 
ATOM     19  C   UNL     1       5.902   5.526  19.326  0.00  0.00    +0.000 A 
ATOM     20  C   UNL     1       4.736   5.234  18.588  0.00  0.00    +0.000 A 
ATOM     21  H   UNL     1       2.989   7.893  19.892  0.00  0.00    +0.000 HD
ENDBRANCH   4   7
BRANCH   1  22
ATOM     22  C   UNL     1      -1.448  11.918  22.899  0.00  0.00    +0.000 C 
BRANCH  22  24
ATOM     23  N   UNL     1      -2.661  14.106  22.469  0.00  0.00    +0.000 N 
ATOM     24  C   UNL     1      -2.370  12.832  22.023  0.00  0.00    +0.000 C 
ATOM     25  O   UNL     1      -2.725  12.424  20.910  0.00  0.00    +0.000 OA
ATOM     26  H   UNL     1      -2.258  14.393  23.354  0.00  0.00    +0.000 HD
BRANCH  23  30
ATOM     27  C   UNL     1      -5.373  16.866  20.494  0.00  0.00    +0.000 A 
ATOM     28  C   UNL     1      -3.997  16.984  20.303  0.00  0.00    +0.000 A 
ATOM     29  C   UNL     1      -3.071  16.110  20.949  0.00  0.00    +0.000 A 
ATOM     30  C   UNL     1      -3.487  15.085  21.804  0.00  0.00    +0.000 A 
ATOM     31  C   UNL     1      -4.866  15.006  22.000  0.00  0.00    +0.000 A 
ATOM     32  C   UNL     1      -5.803  15.884  21.374  0.00  0.00    +0.000 A 
BRANCH  27  33
ATOM     33  O   UNL     1      -6.172  17.728  19.793  0.00  0.00    +0.000 OA
BRANCH  33  35
ATOM     34  C   UNL     1      -6.811  16.585  17.767  0.00  0.00    +0.000 C 
ATOM     35  C   UNL     1      -7.288  17.156  19.095  0.00  0.00    +0.000 C 
ENDBRANCH  33  35
ENDBRANCH  27  33
ENDBRANCH  23  30
ENDBRANCH  22  24
ENDBRANCH   1  22
TORSDOF 6
ENDMDL
MODEL 5
REMARK VINA RESULT:      -7.7      3.554      4.476
REMARK  Name = 
REMARK  7 active torsions:
REMARK  status: ('A' for Active; 'I' for Inactive)
REMARK    1  A    between atoms: C_1  and  C_2
REMARK    2  A    between atoms: C_2  and  O_3
REMARK    3  A    between atoms: O_3  and  C_4
REMARK    4  A    between atoms: C_7  and  N_8
REMARK    5  A    between atoms: C_9  and  C_11
REMARK    6  A    between atoms: C_11  and  C_12
REMARK    7  A    between atoms: C_15  and  N_16
REMARK                            x       y       z     vdW  Elec       q    Type
REMARK                         _______ _______ _______ _____ _____    ______ ____
ROOT
ATOM      1  C   UNL     1       1.011   8.547  20.899  0.00  0.00    +0.000 A 
ATOM      2  C   UNL     1       0.727   9.538  19.930  0.00  0.00    +0.000 A 
ATOM      3  C   UNL     1      -0.086  10.803  20.189  0.00  0.00    +0.000 A 
ATOM      4  C   UNL     1      -0.680  11.147  21.440  0.00  0.00    +0.000 A 
ATOM      5  C   UNL     1      -0.428  10.086  22.361  0.00  0.00    +0.000 A 
ATOM      6  C   UNL     1       0.371   8.850  22.111  0.00  0.00    +0.000 A 
ENDROOT
BRANCH   4   7
ATOM      7  N   UNL     1      -1.534  12.443  21.925  0.00  0.00    +0.000 N 
ATOM      8  C   UNL     1      -2.521  13.232  21.243  0.00  0.00    +0.000 C 
ATOM      9  O   UNL     1      -2.831  12.895  20.084  0.00  0.00    +0.000 OA
ATOM     10  N   UNL     1      -3.351  14.423  21.937  0.00  0.00    +0.000 N 
ATOM     11  C   UNL     1      -4.426  14.882  20.915  0.00  0.00    +0.000 C 
ATOM     12  C   UNL     1      -5.889  14.367  21.262  0.00  0.00    +0.000 C 
ATOM     13  C   UNL     1      -5.987  14.974  22.610  0.00  0.00    +0.000 C 
ATOM     14  C   UNL     1      -6.120  15.556  23.913  0.00  0.00    +0.000 C 
ATOM     15  C   UNL     1      -4.578  15.975  24.091  0.00  0.00    +0.000 A 
ATOM     16  C   UNL     1      -4.561  17.047  25.048  0.00  0.00    +0.000 A 
ATOM     17  C   UNL     1      -3.445  17.832  25.166  0.00  0.00    +0.000 A 
ATOM     18  C   UNL     1      -2.338  17.501  24.371  0.00  0.00    +0.000 A 
ATOM     19  C   UNL     1      -2.264  16.350  23.472  0.00  0.00    +0.000 A 
ATOM     20  C   UNL     1      -3.345  15.470  23.260  0.00  0.00    +0.000 A 
ATOM     21  H   UNL     1      -1.311  12.728  22.863  0.00  0.00    +0.000 HD
ENDBRANCH   4   7
BRANCH   1  22
ATOM     22  C   UNL     1       1.755   7.183  20.639  0.00  0.00    +0.000 C 
BRANCH  22  24
ATOM     23  N   UNL     1       3.454   5.730  19.437  0.00  0.00    +0.000 N 
ATOM     24  C   UNL     1       2.637   6.842  19.390  0.00  0.00    +0.000 C 
ATOM     25  O   UNL     1       2.498   7.517  18.362  0.00  0.00    +0.000 OA
ATOM     26  H   UNL     1       3.445   5.181  20.289  0.00  0.00    +0.000 HD
BRANCH  23  30
ATOM     27  C   UNL     1       6.265   4.552  16.340  0.00  0.00    +0.000 A 
ATOM     28  C   UNL     1       4.963   4.053  16.327  0.00  0.00    +0.000 A 
ATOM     29  C   UNL     1       4.015   4.399  17.337  0.00  0.00    +0.000 A 
ATOM     30  C   UNL     1       4.332   5.260  18.392  0.00  0.00    +0.000 A 
ATOM     31  C   UNL     1       5.648   5.723  18.398  0.00  0.00    +0.000 A 
ATOM     32  C   UNL     1       6.612   5.371  17.404  0.00  0.00    +0.000 A 
BRANCH  27  33
ATOM     33  O   UNL     1       7.078   4.189  15.301  0.00  0.00    +0.000 OA
BRANCH  33  35
ATOM     34  C   UNL     1       6.343   3.754  13.046  0.00  0.00    +0.000 C 
ATOM     35  C   UNL     1       6.824   4.809  14.032  0.00  0.00    +0.000 C 
ENDBRANCH  33  35
ENDBRANCH  27  33
ENDBRANCH  23  30
ENDBRANCH  22  24
ENDBRANCH   1  22
TORSDOF 6
ENDMDL
MODEL 6
REMARK VINA RESULT:      -7.6      0.905      1.578
REMARK  Name = 
REMARK  7 active torsions:
REMARK  status: ('A' for Active; 'I' for Inactive)
REMARK    1  A    between atoms: C_1  and  C_2
REMARK    2  A    between atoms: C_2  and  O_3
REMARK    3  A    between atoms: O_3  and  C_4
REMARK    4  A    between atoms: C_7  and  N_8
REMARK    5  A    between atoms: C_9  and  C_11
REMARK    6  A    between atoms: C_11  and  C_12
REMARK    7  A    between atoms: C_15  and  N_16
REMARK                            x       y       z     vdW  Elec       q    Type
REMARK                         _______ _______ _______ _____ _____    ______ ____
ROOT
ATOM      1  C   UNL     1       1.570   8.003  20.356  0.00  0.00    +0.000 A 
ATOM      2  C   UNL     1       1.218   8.664  21.556  0.00  0.00    +0.000 A 
ATOM      3  C   UNL     1       0.793  10.126  21.654  0.00  0.00    +0.000 A 
ATOM      4  C   UNL     1       0.708  11.026  20.549  0.00  0.00    +0.000 A 
ATOM      5  C   UNL     1       1.141  10.334  19.377  0.00  0.00    +0.000 A 
ATOM      6  C   UNL     1       1.553   8.903  19.279  0.00  0.00    +0.000 A 
ENDROOT
BRANCH   4   7
ATOM      7  N   UNL     1       0.246  12.580  20.437  0.00  0.00    +0.000 N 
ATOM      8  C   UNL     1       1.015  13.789  20.347  0.00  0.00    +0.000 C 
ATOM      9  O   UNL     1       2.257  13.685  20.325  0.00  0.00    +0.000 OA
ATOM     10  N   UNL     1       0.371  15.247  20.125  0.00  0.00    +0.000 N 
ATOM     11  C   UNL     1       1.548  16.235  19.904  0.00  0.00    +0.000 C 
ATOM     12  C   UNL     1       1.738  16.664  18.386  0.00  0.00    +0.000 C 
ATOM     13  C   UNL     1       0.383  17.227  18.180  0.00  0.00    +0.000 C 
ATOM     14  C   UNL     1      -0.915  17.789  17.948  0.00  0.00    +0.000 C 
ATOM     15  C   UNL     1      -1.601  17.240  19.294  0.00  0.00    +0.000 A 
ATOM     16  C   UNL     1      -2.711  18.112  19.564  0.00  0.00    +0.000 A 
ATOM     17  C   UNL     1      -3.291  18.107  20.804  0.00  0.00    +0.000 A 
ATOM     18  C   UNL     1      -2.796  17.191  21.743  0.00  0.00    +0.000 A 
ATOM     19  C   UNL     1      -1.751  16.202  21.480  0.00  0.00    +0.000 A 
ATOM     20  C   UNL     1      -1.075  16.108  20.246  0.00  0.00    +0.000 A 
ATOM     21  H   UNL     1      -0.753  12.691  20.441  0.00  0.00    +0.000 HD
ENDBRANCH   4   7
BRANCH   1  22
ATOM     22  C   UNL     1       2.112   6.529  20.235  0.00  0.00    +0.000 C 
BRANCH  22  24
ATOM     23  N   UNL     1       3.895   6.125  18.474  0.00  0.00    +0.000 N 
ATOM     24  C   UNL     1       2.620   5.842  18.923  0.00  0.00    +0.000 C 
ATOM     25  O   UNL     1       1.904   4.988  18.385  0.00  0.00    +0.000 OA
ATOM     26  H   UNL     1       4.449   6.773  19.023  0.00  0.00    +0.000 HD
BRANCH  23  30
ATOM     27  C   UNL     1       5.897   4.292  15.082  0.00  0.00    +0.000 A 
ATOM     28  C   UNL     1       5.628   5.660  15.077  0.00  0.00    +0.000 A 
ATOM     29  C   UNL     1       4.954   6.297  16.162  0.00  0.00    +0.000 A 
ATOM     30  C   UNL     1       4.531   5.592  17.293  0.00  0.00    +0.000 A 
ATOM     31  C   UNL     1       4.786   4.221  17.260  0.00  0.00    +0.000 A 
ATOM     32  C   UNL     1       5.443   3.566  16.174  0.00  0.00    +0.000 A 
BRANCH  27  33
ATOM     33  O   UNL     1       6.585   3.792  14.009  0.00  0.00    +0.000 OA
BRANCH  33  35
ATOM     34  C   UNL     1       6.715   2.853  11.791  0.00  0.00    +0.000 C 
ATOM     35  C   UNL     1       5.839   3.579  12.802  0.00  0.00    +0.000 C 
ENDBRANCH  33  35
ENDBRANCH  27  33
ENDBRANCH  23  30
ENDBRANCH  22  24
ENDBRANCH   1  22
TORSDOF 6
ENDMDL
MODEL 7
REMARK VINA RESULT:      -7.6      1.649      2.838
REMARK  Name = 
REMARK  7 active torsions:
REMARK  status: ('A' for Active; 'I' for Inactive)
REMARK    1  A    between atoms: C_1  and  C_2
REMARK    2  A    between atoms: C_2  and  O_3
REMARK    3  A    between atoms: O_3  and  C_4
REMARK    4  A    between atoms: C_7  and  N_8
REMARK    5  A    between atoms: C_9  and  C_11
REMARK    6  A    between atoms: C_11  and  C_12
REMARK    7  A    between atoms: C_15  and  N_16
REMARK                            x       y       z     vdW  Elec       q    Type
REMARK                         _______ _______ _______ _____ _____    ______ ____
ROOT
ATOM      1  C   UNL     1       1.752   7.667  19.997  0.00  0.00    +0.000 A 
ATOM      2  C   UNL     1       1.311   8.253  21.206  0.00  0.00    +0.000 A 
ATOM      3  C   UNL     1       0.840   9.697  21.355  0.00  0.00    +0.000 A 
ATOM      4  C   UNL     1       0.793  10.651  20.295  0.00  0.00    +0.000 A 
ATOM      5  C   UNL     1       1.314  10.035  19.117  0.00  0.00    +0.000 A 
ATOM      6  C   UNL     1       1.771   8.622  18.969  0.00  0.00    +0.000 A 
ENDROOT
BRANCH   4   7
ATOM      7  N   UNL     1       0.294  12.197  20.237  0.00  0.00    +0.000 N 
ATOM      8  C   UNL     1      -0.985  12.787  20.517  0.00  0.00    +0.000 C 
ATOM      9  O   UNL     1      -1.901  12.031  20.896  0.00  0.00    +0.000 OA
ATOM     10  N   UNL     1      -1.260  14.373  20.515  0.00  0.00    +0.000 N 
ATOM     11  C   UNL     1      -2.705  14.583  21.043  0.00  0.00    +0.000 C 
ATOM     12  C   UNL     1      -2.762  15.105  22.542  0.00  0.00    +0.000 C 
ATOM     13  C   UNL     1      -1.968  16.340  22.341  0.00  0.00    +0.000 C 
ATOM     14  C   UNL     1      -1.213  17.548  22.180  0.00  0.00    +0.000 C 
ATOM     15  C   UNL     1      -0.658  17.228  20.706  0.00  0.00    +0.000 A 
ATOM     16  C   UNL     1      -0.340  18.498  20.112  0.00  0.00    +0.000 A 
ATOM     17  C   UNL     1      -0.156  18.585  18.757  0.00  0.00    +0.000 A 
ATOM     18  C   UNL     1      -0.233  17.395  18.019  0.00  0.00    +0.000 A 
ATOM     19  C   UNL     1      -0.433  16.064  18.591  0.00  0.00    +0.000 A 
ATOM     20  C   UNL     1      -0.638  15.843  19.968  0.00  0.00    +0.000 A 
ATOM     21  H   UNL     1       1.018  12.830  19.945  0.00  0.00    +0.000 HD
ENDBRANCH   4   7
BRANCH   1  22
ATOM     22  C   UNL     1       2.343   6.216  19.832  0.00  0.00    +0.000 C 
BRANCH  22  24
ATOM     23  N   UNL     1       4.196   5.771  18.156  0.00  0.00    +0.000 N 
ATOM     24  C   UNL     1       2.872   5.586  18.500  0.00  0.00    +0.000 C 
ATOM     25  O   UNL     1       2.115   4.854  17.848  0.00  0.00    +0.000 OA
ATOM     26  H   UNL     1       4.770   6.314  18.791  0.00  0.00    +0.000 HD
BRANCH  23  30
ATOM     27  C   UNL     1       6.089   4.498  14.458  0.00  0.00    +0.000 A 
ATOM     28  C   UNL     1       5.831   3.569  15.465  0.00  0.00    +0.000 A 
ATOM     29  C   UNL     1       5.229   3.949  16.703  0.00  0.00    +0.000 A 
ATOM     30  C   UNL     1       4.858   5.270  16.975  0.00  0.00    +0.000 A 
ATOM     31  C   UNL     1       5.153   6.184  15.964  0.00  0.00    +0.000 A 
ATOM     32  C   UNL     1       5.771   5.821  14.728  0.00  0.00    +0.000 A 
BRANCH  27  33
ATOM     33  O   UNL     1       6.630   4.018  13.296  0.00  0.00    +0.000 OA
BRANCH  33  35
ATOM     34  C   UNL     1       4.740   3.548  11.873  0.00  0.00    +0.000 C 
ATOM     35  C   UNL     1       5.917   2.960  12.638  0.00  0.00    +0.000 C 
ENDBRANCH  33  35
ENDBRANCH  27  33
ENDBRANCH  23  30
ENDBRANCH  22  24
ENDBRANCH   1  22
TORSDOF 6
ENDMDL
MODEL 8
REMARK VINA RESULT:      -7.6      2.188      3.045
REMARK  Name = 
REMARK  7 active torsions:
REMARK  status: ('A' for Active; 'I' for Inactive)
REMARK    1  A    between atoms: C_1  and  C_2
REMARK    2  A    between atoms: C_2  and  O_3
REMARK    3  A    between atoms: O_3  and  C_4
REMARK    4  A    between atoms: C_7  and  N_8
REMARK    5  A    between atoms: C_9  and  C_11
REMARK    6  A    between atoms: C_11  and  C_12
REMARK    7  A    between atoms: C_15  and  N_16
REMARK                            x       y       z     vdW  Elec       q    Type
REMARK                         _______ _______ _______ _____ _____    ______ ____
ROOT
ATOM      1  C   UNL     1       1.699   7.746  20.291  0.00  0.00    +0.000 A 
ATOM      2  C   UNL     1       1.562   8.819  19.380  0.00  0.00    +0.000 A 
ATOM      3  C   UNL     1       0.977  10.185  19.723  0.00  0.00    +0.000 A 
ATOM      4  C   UNL     1       0.477  10.558  21.008  0.00  0.00    +0.000 A 
ATOM      5  C   UNL     1       0.570   9.423  21.869  0.00  0.00    +0.000 A 
ATOM      6  C   UNL     1       1.147   8.087  21.535  0.00  0.00    +0.000 A 
ENDROOT
BRANCH   4   7
ATOM      7  N   UNL     1      -0.137  11.949  21.580  0.00  0.00    +0.000 N 
ATOM      8  C   UNL     1       0.428  13.266  21.666  0.00  0.00    +0.000 C 
ATOM      9  O   UNL     1       1.579  13.432  21.218  0.00  0.00    +0.000 OA
ATOM     10  N   UNL     1      -0.387  14.561  22.166  0.00  0.00    +0.000 N 
ATOM     11  C   UNL     1       0.529  15.792  21.932  0.00  0.00    +0.000 C 
ATOM     12  C   UNL     1       0.109  16.663  20.671  0.00  0.00    +0.000 C 
ATOM     13  C   UNL     1      -1.275  16.968  21.106  0.00  0.00    +0.000 C 
ATOM     14  C   UNL     1      -2.614  17.292  21.502  0.00  0.00    +0.000 C 
ATOM     15  C   UNL     1      -2.704  16.254  22.726  0.00  0.00    +0.000 A 
ATOM     16  C   UNL     1      -3.715  16.765  23.612  0.00  0.00    +0.000 A 
ATOM     17  C   UNL     1      -3.797  16.289  24.893  0.00  0.00    +0.000 A 
ATOM     18  C   UNL     1      -2.908  15.267  25.259  0.00  0.00    +0.000 A 
ATOM     19  C   UNL     1      -1.945  14.632  24.361  0.00  0.00    +0.000 A 
ATOM     20  C   UNL     1      -1.762  15.034  23.022  0.00  0.00    +0.000 A 
ATOM     21  H   UNL     1      -1.072  11.845  21.937  0.00  0.00    +0.000 HD
ENDBRANCH   4   7
BRANCH   1  22
ATOM     22  C   UNL     1       2.200   6.293  19.942  0.00  0.00    +0.000 C 
BRANCH  22  24
ATOM     23  N   UNL     1       4.017   5.977  18.199  0.00  0.00    +0.000 N 
ATOM     24  C   UNL     1       2.690   5.803  18.538  0.00  0.00    +0.000 C 
ATOM     25  O   UNL     1       1.900   5.181  17.817  0.00  0.00    +0.000 OA
ATOM     26  H   UNL     1       4.619   6.421  18.885  0.00  0.00    +0.000 HD
BRANCH  23  30
ATOM     27  C   UNL     1       6.010   4.576  14.602  0.00  0.00    +0.000 A 
ATOM     28  C   UNL     1       5.712   5.930  14.751  0.00  0.00    +0.000 A 
ATOM     29  C   UNL     1       5.040   6.428  15.909  0.00  0.00    +0.000 A 
ATOM     30  C   UNL     1       4.648   5.593  16.959  0.00  0.00    +0.000 A 
ATOM     31  C   UNL     1       4.932   4.240  16.772  0.00  0.00    +0.000 A 
ATOM     32  C   UNL     1       5.587   3.724  15.612  0.00  0.00    +0.000 A 
BRANCH  27  33
ATOM     33  O   UNL     1       6.693   4.213  13.473  0.00  0.00    +0.000 OA
BRANCH  33  35
ATOM     34  C   UNL     1       4.901   3.584  11.986  0.00  0.00    +0.000 C 
ATOM     35  C   UNL     1       6.156   3.121  12.712  0.00  0.00    +0.000 C 
ENDBRANCH  33  35
ENDBRANCH  27  33
ENDBRANCH  23  30
ENDBRANCH  22  24
ENDBRANCH   1  22
TORSDOF 6
ENDMDL
MODEL 9
REMARK VINA RESULT:      -7.5      4.136     13.054
REMARK  Name = 
REMARK  7 active torsions:
REMARK  status: ('A' for Active; 'I' for Inactive)
REMARK    1  A    between atoms: C_1  and  C_2
REMARK    2  A    between atoms: C_2  and  O_3
REMARK    3  A    between atoms: O_3  and  C_4
REMARK    4  A    between atoms: C_7  and  N_8
REMARK    5  A    between atoms: C_9  and  C_11
REMARK    6  A    between atoms: C_11  and  C_12
REMARK    7  A    between atoms: C_15  and  N_16
REMARK                            x       y       z     vdW  Elec       q    Type
REMARK                         _______ _______ _______ _____ _____    ______ ____
ROOT
ATOM      1  C   UNL     1      -0.817  10.525  22.515  0.00  0.00    +0.000 A 
ATOM      2  C   UNL     1      -0.599  10.625  21.121  0.00  0.00    +0.000 A 
ATOM      3  C   UNL     1       0.342   9.731  20.320  0.00  0.00    +0.000 A 
ATOM      4  C   UNL     1       1.139   8.683  20.873  0.00  0.00    +0.000 A 
ATOM      5  C   UNL     1       0.939   8.670  22.286  0.00  0.00    +0.000 A 
ATOM      6  C   UNL     1       0.015   9.541  23.071  0.00  0.00    +0.000 A 
ENDROOT
BRANCH   4   7
ATOM      7  N   UNL     1       2.155   7.610  20.197  0.00  0.00    +0.000 N 
ATOM      8  C   UNL     1       2.151   6.174  20.202  0.00  0.00    +0.000 C 
ATOM      9  O   UNL     1       1.216   5.600  20.793  0.00  0.00    +0.000 OA
ATOM     10  N   UNL     1       3.191   5.273  19.368  0.00  0.00    +0.000 N 
ATOM     11  C   UNL     1       2.725   3.798  19.506  0.00  0.00    +0.000 C 
ATOM     12  C   UNL     1       2.005   3.237  18.205  0.00  0.00    +0.000 C 
ATOM     13  C   UNL     1       3.121   3.470  17.258  0.00  0.00    +0.000 C 
ATOM     14  C   UNL     1       4.183   3.671  16.317  0.00  0.00    +0.000 C 
ATOM     15  C   UNL     1       5.104   4.586  17.265  0.00  0.00    +0.000 A 
ATOM     16  C   UNL     1       6.445   4.458  16.766  0.00  0.00    +0.000 A 
ATOM     17  C   UNL     1       7.499   4.850  17.548  0.00  0.00    +0.000 A 
ATOM     18  C   UNL     1       7.200   5.420  18.794  0.00  0.00    +0.000 A 
ATOM     19  C   UNL     1       5.851   5.682  19.294  0.00  0.00    +0.000 A 
ATOM     20  C   UNL     1       4.686   5.323  18.587  0.00  0.00    +0.000 A 
ATOM     21  H   UNL     1       2.912   8.048  19.702  0.00  0.00    +0.000 HD
ENDBRANCH   4   7
BRANCH   1  22
ATOM     22  C   UNL     1      -1.698  11.497  23.387  0.00  0.00    +0.000 C 
BRANCH  22  24
ATOM     23  N   UNL     1      -3.564  12.426  21.939  0.00  0.00    +0.000 N 
ATOM     24  C   UNL     1      -2.559  12.689  22.848  0.00  0.00    +0.000 C 
ATOM     25  O   UNL     1      -2.383  13.815  23.330  0.00  0.00    +0.000 OA
ATOM     26  H   UNL     1      -3.699  11.460  21.660  0.00  0.00    +0.000 HD
BRANCH  23  30
ATOM     27  C   UNL     1      -6.049  15.531  20.191  0.00  0.00    +0.000 A 
ATOM     28  C   UNL     1      -6.616  14.315  20.567  0.00  0.00    +0.000 A 
ATOM     29  C   UNL     1      -5.831  13.261  21.126  0.00  0.00    +0.000 A 
ATOM     30  C   UNL     1      -4.454  13.388  21.335  0.00  0.00    +0.000 A 
ATOM     31  C   UNL     1      -3.907  14.604  20.924  0.00  0.00    +0.000 A 
ATOM     32  C   UNL     1      -4.677  15.660  20.347  0.00  0.00    +0.000 A 
BRANCH  27  33
ATOM     33  O   UNL     1      -6.900  16.487  19.705  0.00  0.00    +0.000 OA
BRANCH  33  35
ATOM     34  C   UNL     1      -7.917  17.711  21.518  0.00  0.00    +0.000 C 
ATOM     35  C   UNL     1      -6.906  17.754  20.381  0.00  0.00    +0.000 C 
ENDBRANCH  33  35
ENDBRANCH  27  33
ENDBRANCH  23  30
ENDBRANCH  22  24
ENDBRANCH   1  22
TORSDOF 6
ENDMDL
