MODEL 1
REMARK VINA RESULT:      -8.3      0.000      0.000
REMARK  Name = 
REMARK  4 active torsions:
REMARK  status: ('A' for Active; 'I' for Inactive)
REMARK    1  A    between atoms: C_1  and  N_2
REMARK    2  A    between atoms: C_6  and  C_8
REMARK    3  A    between atoms: C_12  and  N_13
REMARK    4  A    between atoms: C_14  and  C_16
REMARK                            x       y       z     vdW  Elec       q    Type
REMARK                         _______ _______ _______ _____ _____    ______ ____
ROOT
ATOM      1  C   UNL     1       4.477   5.711  17.312  0.00  0.00    +0.000 A 
ATOM      2  C   UNL     1       5.062   4.669  16.612  0.00  0.00    +0.000 A 
ATOM      3  C   UNL     1       6.359   4.841  16.131  0.00  0.00    +0.000 A 
ATOM      4  C   UNL     1       7.029   6.044  16.367  0.00  0.00    +0.000 A 
ATOM      5  C   UNL     1       6.375   7.048  17.068  0.00  0.00    +0.000 A 
ATOM      6  N   UNL     1       5.134   6.870  17.539  0.00  0.00    +0.000 NA
ENDROOT
BRANCH   1  12
ATOM      7  C   UNL     1       1.812   2.443  21.657  0.00  0.00    +0.000 C 
ATOM      8  N   UNL     1       1.947   2.217  20.221  0.00  0.00    +0.000 NA
ATOM      9  C   UNL     1       1.022   3.055  19.434  0.00  0.00    +0.000 C 
ATOM     10  C   UNL     1       1.376   4.557  19.381  0.00  0.00    +0.000 C 
ATOM     11  C   UNL     1       2.816   4.757  18.957  0.00  0.00    +0.000 C 
ATOM     12  C   UNL     1       3.147   5.568  17.930  0.00  0.00    +0.000 C 
ATOM     13  F   UNL     1       2.162   6.308  17.362  0.00  0.00    +0.000 F 
ATOM     14  C   UNL     1       3.769   3.911  19.776  0.00  0.00    +0.000 C 
ATOM     15  C   UNL     1       3.336   2.437  19.759  0.00  0.00    +0.000 C 
ENDBRANCH   1  12
BRANCH   5  16
ATOM     16  N   UNL     1       7.031   8.275  17.279  0.00  0.00    +0.000 N 
ATOM     17  C   UNL     1       8.068   8.434  18.182  0.00  0.00    +0.000 C 
ATOM     18  O   UNL     1       8.557   7.568  18.897  0.00  0.00    +0.000 OA
ATOM     19  H   UNL     1       6.731   9.056  16.719  0.00  0.00    +0.000 HD
BRANCH  17  20
ATOM     20  C   UNL     1       8.662   9.796  18.316  0.00  0.00    +0.000 A 
ATOM     21  C   UNL     1       8.311  10.873  17.492  0.00  0.00    +0.000 A 
ATOM     22  C   UNL     1       8.850  12.140  17.744  0.00  0.00    +0.000 A 
ATOM     23  C   UNL     1       9.724  12.327  18.814  0.00  0.00    +0.000 A 
ATOM     24  F   UNL     1      10.214  13.549  19.059  0.00  0.00    +0.000 F 
ATOM     25  C   UNL     1      10.080  11.271  19.639  0.00  0.00    +0.000 A 
ATOM     26  C   UNL     1       9.548  10.006  19.390  0.00  0.00    +0.000 A 
ENDBRANCH  17  20
ENDBRANCH   5  16
TORSDOF 3
ENDMDL
MODEL 2
REMARK VINA RESULT:      -8.1      4.558      7.363
REMARK  Name = 
REMARK  4 active torsions:
REMARK  status: ('A' for Active; 'I' for Inactive)
REMARK    1  A    between atoms: C_1  and  N_2
REMARK    2  A    between atoms: C_6  and  C_8
REMARK    3  A    between atoms: C_12  and  N_13
REMARK    4  A    between atoms: C_14  and  C_16
REMARK                            x       y       z     vdW  Elec       q    Type
REMARK                         _______ _______ _______ _____ _____    ______ ____
ROOT
ATOM      1  C   UNL     1       3.938   5.106  19.471  0.00  0.00    +0.000 A 
ATOM      2  C   UNL     1       3.304   3.883  19.331  0.00  0.00    +0.000 A 
ATOM      3  C   UNL     1       1.991   3.762  19.784  0.00  0.00    +0.000 A 
ATOM      4  C   UNL     1       1.356   4.866  20.359  0.00  0.00    +0.000 A 
ATOM      5  C   UNL     1       2.059   6.058  20.475  0.00  0.00    +0.000 A 
ATOM      6  N   UNL     1       3.315   6.169  20.024  0.00  0.00    +0.000 NA
ENDROOT
BRANCH   1  12
ATOM      7  C   UNL     1       6.749   5.116  14.107  0.00  0.00    +0.000 C 
ATOM      8  N   UNL     1       6.557   4.061  15.098  0.00  0.00    +0.000 NA
ATOM      9  C   UNL     1       7.457   4.213  16.258  0.00  0.00    +0.000 C 
ATOM     10  C   UNL     1       7.110   5.376  17.213  0.00  0.00    +0.000 C 
ATOM     11  C   UNL     1       5.656   5.315  17.632  0.00  0.00    +0.000 C 
ATOM     12  C   UNL     1       5.291   5.334  18.931  0.00  0.00    +0.000 C 
ATOM     13  F   UNL     1       6.257   5.542  19.859  0.00  0.00    +0.000 F 
ATOM     14  C   UNL     1       4.730   5.177  16.441  0.00  0.00    +0.000 C 
ATOM     15  C   UNL     1       5.153   3.992  15.560  0.00  0.00    +0.000 C 
ENDBRANCH   1  12
BRANCH   5  16
ATOM     16  N   UNL     1       1.437   7.164  21.084  0.00  0.00    +0.000 N 
ATOM     17  C   UNL     1       1.269   8.383  20.450  0.00  0.00    +0.000 C 
ATOM     18  O   UNL     1       1.613   8.670  19.310  0.00  0.00    +0.000 OA
ATOM     19  H   UNL     1       1.084   7.032  22.017  0.00  0.00    +0.000 HD
BRANCH  17  20
ATOM     20  C   UNL     1       0.606   9.475  21.220  0.00  0.00    +0.000 A 
ATOM     21  C   UNL     1       0.522  10.796  20.765  0.00  0.00    +0.000 A 
ATOM     22  C   UNL     1      -0.197  11.739  21.509  0.00  0.00    +0.000 A 
ATOM     23  C   UNL     1      -0.831  11.360  22.691  0.00  0.00    +0.000 A 
ATOM     24  F   UNL     1      -1.535  12.267  23.381  0.00  0.00    +0.000 F 
ATOM     25  C   UNL     1      -0.758  10.055  23.154  0.00  0.00    +0.000 A 
ATOM     26  C   UNL     1      -0.041   9.113  22.418  0.00  0.00    +0.000 A 
ENDBRANCH  17  20
ENDBRANCH   5  16
TORSDOF 3
ENDMDL
MODEL 3
REMARK VINA RESULT:      -7.9      1.612      2.051
REMARK  Name = 
REMARK  4 active torsions:
REMARK  status: ('A' for Active; 'I' for Inactive)
REMARK    1  A    between atoms: C_1  and  N_2
REMARK    2  A    between atoms: C_6  and  C_8
REMARK    3  A    between atoms: C_12  and  N_13
REMARK    4  A    between atoms: C_14  and  C_16
REMARK                            x       y       z     vdW  Elec       q    Type
REMARK                         _______ _______ _______ _____ _____    ______ ____
ROOT
ATOM      1  C   UNL     1       5.965   6.192  17.891  0.00  0.00    +0.000 A 
ATOM      2  C   UNL     1       6.696   5.296  18.653  0.00  0.00    +0.000 A 
ATOM      3  C   UNL     1       7.954   5.686  19.108  0.00  0.00    +0.000 A 
ATOM      4  C   UNL     1       8.439   6.957  18.789  0.00  0.00    +0.000 A 
ATOM      5  C   UNL     1       7.653   7.798  18.012  0.00  0.00    +0.000 A 
ATOM      6  N   UNL     1       6.440   7.420  17.591  0.00  0.00    +0.000 NA
ENDROOT
BRANCH   1  12
ATOM      7  C   UNL     1       0.862   3.912  20.219  0.00  0.00    +0.000 C 
ATOM      8  N   UNL     1       1.977   3.276  19.524  0.00  0.00    +0.000 NA
ATOM      9  C   UNL     1       1.933   3.507  18.067  0.00  0.00    +0.000 C 
ATOM     10  C   UNL     1       2.277   4.943  17.617  0.00  0.00    +0.000 C 
ATOM     11  C   UNL     1       3.591   5.397  18.219  0.00  0.00    +0.000 C 
ATOM     12  C   UNL     1       4.591   5.884  17.455  0.00  0.00    +0.000 C 
ATOM     13  F   UNL     1       4.344   6.082  16.136  0.00  0.00    +0.000 F 
ATOM     14  C   UNL     1       3.631   5.178  19.718  0.00  0.00    +0.000 C 
ATOM     15  C   UNL     1       3.282   3.721  20.061  0.00  0.00    +0.000 C 
ENDBRANCH   1  12
BRANCH   5  16
ATOM     16  N   UNL     1       8.150   9.066  17.658  0.00  0.00    +0.000 N 
ATOM     17  C   UNL     1       8.850   9.878  18.535  0.00  0.00    +0.000 C 
ATOM     18  O   UNL     1       9.137   9.624  19.698  0.00  0.00    +0.000 OA
ATOM     19  H   UNL     1       7.999   9.368  16.709  0.00  0.00    +0.000 HD
BRANCH  17  20
ATOM     20  C   UNL     1       9.305  11.206  18.031  0.00  0.00    +0.000 A 
ATOM     21  C   UNL     1       8.449  12.303  17.872  0.00  0.00    +0.000 A 
ATOM     22  C   UNL     1       8.976  13.539  17.479  0.00  0.00    +0.000 A 
ATOM     23  C   UNL     1      10.345  13.676  17.256  0.00  0.00    +0.000 A 
ATOM     24  F   UNL     1      10.840  14.869  16.904  0.00  0.00    +0.000 F 
ATOM     25  C   UNL     1      11.205  12.599  17.411  0.00  0.00    +0.000 A 
ATOM     26  C   UNL     1      10.685  11.365  17.799  0.00  0.00    +0.000 A 
ENDBRANCH  17  20
ENDBRANCH   5  16
TORSDOF 3
ENDMDL
MODEL 4
REMARK VINA RESULT:      -7.7      4.372      7.039
REMARK  Name = 
REMARK  4 active torsions:
REMARK  status: ('A' for Active; 'I' for Inactive)
REMARK    1  A    between atoms: C_1  and  N_2
REMARK    2  A    between atoms: C_6  and  C_8
REMARK    3  A    between atoms: C_12  and  N_13
REMARK    4  A    between atoms: C_14  and  C_16
REMARK                            x       y       z     vdW  Elec       q    Type
REMARK                         _______ _______ _______ _____ _____    ______ ____
ROOT
ATOM      1  C   UNL     1       3.044   3.766  18.983  0.00  0.00    +0.000 A 
ATOM      2  C   UNL     1       3.155   2.687  19.845  0.00  0.00    +0.000 A 
ATOM      3  C   UNL     1       2.681   2.829  21.148  0.00  0.00    +0.000 A 
ATOM      4  C   UNL     1       2.109   4.040  21.546  0.00  0.00    +0.000 A 
ATOM      5  C   UNL     1       2.040   5.081  20.629  0.00  0.00    +0.000 A 
ATOM      6  N   UNL     1       2.486   4.932  19.375  0.00  0.00    +0.000 NA
ENDROOT
BRANCH   1  12
ATOM      7  C   UNL     1       7.769   5.159  15.463  0.00  0.00    +0.000 C 
ATOM      8  N   UNL     1       6.560   5.905  15.800  0.00  0.00    +0.000 NA
ATOM      9  C   UNL     1       5.377   5.414  15.067  0.00  0.00    +0.000 C 
ATOM     10  C   UNL     1       4.838   4.043  15.528  0.00  0.00    +0.000 C 
ATOM     11  C   UNL     1       4.619   4.026  17.027  0.00  0.00    +0.000 C 
ATOM     12  C   UNL     1       3.438   3.659  17.567  0.00  0.00    +0.000 C 
ATOM     13  F   UNL     1       2.481   3.176  16.735  0.00  0.00    +0.000 F 
ATOM     14  C   UNL     1       5.839   4.512  17.782  0.00  0.00    +0.000 C 
ATOM     15  C   UNL     1       6.291   5.883  17.255  0.00  0.00    +0.000 C 
ENDBRANCH   1  12
BRANCH   5  16
ATOM     16  N   UNL     1       1.497   6.315  21.034  0.00  0.00    +0.000 N 
ATOM     17  C   UNL     1       1.708   7.497  20.344  0.00  0.00    +0.000 C 
ATOM     18  O   UNL     1       2.363   7.642  19.319  0.00  0.00    +0.000 OA
ATOM     19  H   UNL     1       0.912   6.310  21.852  0.00  0.00    +0.000 HD
BRANCH  17  20
ATOM     20  C   UNL     1       1.085   8.736  20.895  0.00  0.00    +0.000 A 
ATOM     21  C   UNL     1       0.805   9.867  20.118  0.00  0.00    +0.000 A 
ATOM     22  C   UNL     1       0.136  10.953  20.694  0.00  0.00    +0.000 A 
ATOM     23  C   UNL     1      -0.254  10.903  22.031  0.00  0.00    +0.000 A 
ATOM     24  F   UNL     1      -0.914  11.939  22.565  0.00  0.00    +0.000 F 
ATOM     25  C   UNL     1       0.015   9.790  22.813  0.00  0.00    +0.000 A 
ATOM     26  C   UNL     1       0.683   8.706  22.244  0.00  0.00    +0.000 A 
ENDBRANCH  17  20
ENDBRANCH   5  16
TORSDOF 3
ENDMDL
MODEL 5
REMARK VINA RESULT:      -7.7      0.755      1.157
REMARK  Name = 
REMARK  4 active torsions:
REMARK  status: ('A' for Active; 'I' for Inactive)
REMARK    1  A    between atoms: C_1  and  N_2
REMARK    2  A    between atoms: C_6  and  C_8
REMARK    3  A    between atoms: C_12  and  N_13
REMARK    4  A    between atoms: C_14  and  C_16
REMARK                            x       y       z     vdW  Elec       q    Type
REMARK                         _______ _______ _______ _____ _____    ______ ____
ROOT
ATOM      1  C   UNL     1       4.848   5.900  17.600  0.00  0.00    +0.000 A 
ATOM      2  C   UNL     1       5.523   4.773  17.161  0.00  0.00    +0.000 A 
ATOM      3  C   UNL     1       6.846   4.914  16.744  0.00  0.00    +0.000 A 
ATOM      4  C   UNL     1       7.451   6.172  16.782  0.00  0.00    +0.000 A 
ATOM      5  C   UNL     1       6.708   7.258  17.226  0.00  0.00    +0.000 A 
ATOM      6  N   UNL     1       5.442   7.112  17.638  0.00  0.00    +0.000 NA
ENDROOT
BRANCH   1  12
ATOM      7  C   UNL     1       1.714   2.473  21.485  0.00  0.00    +0.000 C 
ATOM      8  N   UNL     1       1.904   2.373  20.041  0.00  0.00    +0.000 NA
ATOM      9  C   UNL     1       1.089   3.355  19.301  0.00  0.00    +0.000 C 
ATOM     10  C   UNL     1       1.563   4.821  19.410  0.00  0.00    +0.000 C 
ATOM     11  C   UNL     1       3.034   4.938  19.070  0.00  0.00    +0.000 C 
ATOM     12  C   UNL     1       3.481   5.811  18.143  0.00  0.00    +0.000 C 
ATOM     13  F   UNL     1       2.588   6.681  17.608  0.00  0.00    +0.000 F 
ATOM     14  C   UNL     1       3.875   3.942  19.843  0.00  0.00    +0.000 C 
ATOM     15  C   UNL     1       3.327   2.518  19.664  0.00  0.00    +0.000 C 
ENDBRANCH   1  12
BRANCH   5  16
ATOM     16  N   UNL     1       7.300   8.536  17.234  0.00  0.00    +0.000 N 
ATOM     17  C   UNL     1       8.276   8.912  18.141  0.00  0.00    +0.000 C 
ATOM     18  O   UNL     1       8.757   8.220  19.030  0.00  0.00    +0.000 OA
ATOM     19  H   UNL     1       7.002   9.182  16.522  0.00  0.00    +0.000 HD
BRANCH  17  20
ATOM     20  C   UNL     1       8.805  10.303  18.045  0.00  0.00    +0.000 A 
ATOM     21  C   UNL     1      10.151  10.630  18.252  0.00  0.00    +0.000 A 
ATOM     22  C   UNL     1      10.581  11.948  18.053  0.00  0.00    +0.000 A 
ATOM     23  C   UNL     1       9.674  12.924  17.644  0.00  0.00    +0.000 A 
ATOM     24  F   UNL     1      10.102  14.176  17.435  0.00  0.00    +0.000 F 
ATOM     25  C   UNL     1       8.339  12.615  17.434  0.00  0.00    +0.000 A 
ATOM     26  C   UNL     1       7.905  11.305  17.633  0.00  0.00    +0.000 A 
ENDBRANCH  17  20
ENDBRANCH   5  16
TORSDOF 3
ENDMDL
MODEL 6
REMARK VINA RESULT:      -7.5      5.516      8.443
REMARK  Name = 
REMARK  4 active torsions:
REMARK  status: ('A' for Active; 'I' for Inactive)
REMARK    1  A    between atoms: C_1  and  N_2
REMARK    2  A    between atoms: C_6  and  C_8
REMARK    3  A    between atoms: C_12  and  N_13
REMARK    4  A    between atoms: C_14  and  C_16
REMARK                            x       y       z     vdW  Elec       q    Type
REMARK                         _______ _______ _______ _____ _____    ______ ____
ROOT
ATOM      1  C   UNL     1       0.508   9.788  19.410  0.00  0.00    +0.000 A 
ATOM      2  C   UNL     1       0.214   9.405  20.709  0.00  0.00    +0.000 A 
ATOM      3  C   UNL     1       0.896   8.316  21.248  0.00  0.00    +0.000 A 
ATOM      4  C   UNL     1       1.850   7.648  20.475  0.00  0.00    +0.000 A 
ATOM      5  C   UNL     1       2.083   8.083  19.178  0.00  0.00    +0.000 A 
ATOM      6  N   UNL     1       1.434   9.139  18.672  0.00  0.00    +0.000 NA
ENDROOT
BRANCH   1  12
ATOM      7  C   UNL     1       1.711  15.691  18.798  0.00  0.00    +0.000 C 
ATOM      8  N   UNL     1       0.963  14.956  19.813  0.00  0.00    +0.000 NA
ATOM      9  C   UNL     1      -0.376  14.554  19.341  0.00  0.00    +0.000 C 
ATOM     10  C   UNL     1      -0.393  13.418  18.295  0.00  0.00    +0.000 C 
ATOM     11  C   UNL     1       0.415  12.231  18.776  0.00  0.00    +0.000 C 
ATOM     12  C   UNL     1      -0.105  10.986  18.807  0.00  0.00    +0.000 C 
ATOM     13  F   UNL     1      -1.337  10.798  18.272  0.00  0.00    +0.000 F 
ATOM     14  C   UNL     1       1.797  12.638  19.245  0.00  0.00    +0.000 C 
ATOM     15  C   UNL     1       1.704  13.765  20.285  0.00  0.00    +0.000 C 
ENDBRANCH   1  12
BRANCH   5  16
ATOM     16  N   UNL     1       3.017   7.393  18.382  0.00  0.00    +0.000 N 
ATOM     17  C   UNL     1       2.924   6.040  18.106  0.00  0.00    +0.000 C 
ATOM     18  O   UNL     1       2.049   5.272  18.489  0.00  0.00    +0.000 OA
ATOM     19  H   UNL     1       3.767   7.934  17.985  0.00  0.00    +0.000 HD
BRANCH  17  20
ATOM     20  C   UNL     1       3.993   5.433  17.261  0.00  0.00    +0.000 A 
ATOM     21  C   UNL     1       4.174   4.051  17.124  0.00  0.00    +0.000 A 
ATOM     22  C   UNL     1       5.144   3.566  16.239  0.00  0.00    +0.000 A 
ATOM     23  C   UNL     1       5.917   4.455  15.494  0.00  0.00    +0.000 A 
ATOM     24  F   UNL     1       6.826   3.978  14.634  0.00  0.00    +0.000 F 
ATOM     25  C   UNL     1       5.748   5.826  15.618  0.00  0.00    +0.000 A 
ATOM     26  C   UNL     1       4.785   6.314  16.500  0.00  0.00    +0.000 A 
ENDBRANCH  17  20
ENDBRANCH   5  16
TORSDOF 3
ENDMDL
MODEL 7
REMARK VINA RESULT:      -7.5      1.473      1.804
REMARK  Name = 
REMARK  4 active torsions:
REMARK  status: ('A' for Active; 'I' for Inactive)
REMARK    1  A    between atoms: C_1  and  N_2
REMARK    2  A    between atoms: C_6  and  C_8
REMARK    3  A    between atoms: C_12  and  N_13
REMARK    4  A    between atoms: C_14  and  C_16
REMARK                            x       y       z     vdW  Elec       q    Type
REMARK                         _______ _______ _______ _____ _____    ______ ____
ROOT
ATOM      1  C   UNL     1       5.769   4.699  17.540  0.00  0.00    +0.000 A 
ATOM      2  C   UNL     1       5.939   4.070  16.318  0.00  0.00    +0.000 A 
ATOM      3  C   UNL     1       6.632   4.747  15.316  0.00  0.00    +0.000 A 
ATOM      4  C   UNL     1       7.134   6.026  15.568  0.00  0.00    +0.000 A 
ATOM      5  C   UNL     1       6.916   6.597  16.814  0.00  0.00    +0.000 A 
ATOM      6  N   UNL     1       6.261   5.935  17.776  0.00  0.00    +0.000 NA
ENDROOT
BRANCH   1  12
ATOM      7  C   UNL     1       0.436   2.175  18.903  0.00  0.00    +0.000 C 
ATOM      8  N   UNL     1       0.946   3.529  19.102  0.00  0.00    +0.000 NA
ATOM      9  C   UNL     1       1.888   3.611  20.234  0.00  0.00    +0.000 C 
ATOM     10  C   UNL     1       3.271   2.968  19.989  0.00  0.00    +0.000 C 
ATOM     11  C   UNL     1       3.886   3.485  18.705  0.00  0.00    +0.000 C 
ATOM     12  C   UNL     1       5.129   4.009  18.675  0.00  0.00    +0.000 C 
ATOM     13  F   UNL     1       5.873   3.944  19.807  0.00  0.00    +0.000 F 
ATOM     14  C   UNL     1       2.926   3.385  17.537  0.00  0.00    +0.000 C 
ATOM     15  C   UNL     1       1.587   4.058  17.878  0.00  0.00    +0.000 C 
ENDBRANCH   1  12
BRANCH   5  16
ATOM     16  N   UNL     1       7.389   7.899  17.063  0.00  0.00    +0.000 N 
ATOM     17  C   UNL     1       8.186   8.221  18.149  0.00  0.00    +0.000 C 
ATOM     18  O   UNL     1       8.589   7.455  19.015  0.00  0.00    +0.000 OA
ATOM     19  H   UNL     1       7.144   8.610  16.394  0.00  0.00    +0.000 HD
BRANCH  17  20
ATOM     20  C   UNL     1       8.602   9.646  18.299  0.00  0.00    +0.000 A 
ATOM     21  C   UNL     1       8.120  10.678  17.485  0.00  0.00    +0.000 A 
ATOM     22  C   UNL     1       8.493  12.001  17.753  0.00  0.00    +0.000 A 
ATOM     23  C   UNL     1       9.333  12.285  18.828  0.00  0.00    +0.000 A 
ATOM     24  F   UNL     1       9.664  13.557  19.088  0.00  0.00    +0.000 F 
ATOM     25  C   UNL     1       9.817  11.274  19.644  0.00  0.00    +0.000 A 
ATOM     26  C   UNL     1       9.450   9.955  19.380  0.00  0.00    +0.000 A 
ENDBRANCH  17  20
ENDBRANCH   5  16
TORSDOF 3
ENDMDL
MODEL 8
REMARK VINA RESULT:      -7.5      1.114      1.161
REMARK  Name = 
REMARK  4 active torsions:
REMARK  status: ('A' for Active; 'I' for Inactive)
REMARK    1  A    between atoms: C_1  and  N_2
REMARK    2  A    between atoms: C_6  and  C_8
REMARK    3  A    between atoms: C_12  and  N_13
REMARK    4  A    between atoms: C_14  and  C_16
REMARK                            x       y       z     vdW  Elec       q    Type
REMARK                         _______ _______ _______ _____ _____    ______ ____
ROOT
ATOM      1  C   UNL     1       5.005   5.948  17.579  0.00  0.00    +0.000 A 
ATOM      2  C   UNL     1       5.353   5.061  16.573  0.00  0.00    +0.000 A 
ATOM      3  C   UNL     1       6.661   5.085  16.093  0.00  0.00    +0.000 A 
ATOM      4  C   UNL     1       7.578   5.990  16.633  0.00  0.00    +0.000 A 
ATOM      5  C   UNL     1       7.154   6.856  17.632  0.00  0.00    +0.000 A 
ATOM      6  N   UNL     1       5.899   6.817  18.098  0.00  0.00    +0.000 NA
ENDROOT
BRANCH   1  12
ATOM      7  C   UNL     1       1.909   2.561  21.529  0.00  0.00    +0.000 C 
ATOM      8  N   UNL     1       2.007   2.504  20.073  0.00  0.00    +0.000 NA
ATOM      9  C   UNL     1       1.210   3.558  19.417  0.00  0.00    +0.000 C 
ATOM     10  C   UNL     1       1.774   4.989  19.547  0.00  0.00    +0.000 C 
ATOM     11  C   UNL     1       3.227   5.036  19.123  0.00  0.00    +0.000 C 
ATOM     12  C   UNL     1       3.669   5.916  18.200  0.00  0.00    +0.000 C 
ATOM     13  F   UNL     1       2.799   6.854  17.749  0.00  0.00    +0.000 F 
ATOM     14  C   UNL     1       4.052   3.966  19.810  0.00  0.00    +0.000 C 
ATOM     15  C   UNL     1       3.412   2.583  19.616  0.00  0.00    +0.000 C 
ENDBRANCH   1  12
BRANCH   5  16
ATOM     16  N   UNL     1       8.063   7.795  18.156  0.00  0.00    +0.000 N 
ATOM     17  C   UNL     1       8.012   9.146  17.858  0.00  0.00    +0.000 C 
ATOM     18  O   UNL     1       7.201   9.707  17.131  0.00  0.00    +0.000 OA
ATOM     19  H   UNL     1       8.759   7.449  18.794  0.00  0.00    +0.000 HD
BRANCH  17  20
ATOM     20  C   UNL     1       9.048  10.026  18.471  0.00  0.00    +0.000 A 
ATOM     21  C   UNL     1       9.950  10.791  17.721  0.00  0.00    +0.000 A 
ATOM     22  C   UNL     1      10.831  11.660  18.376  0.00  0.00    +0.000 A 
ATOM     23  C   UNL     1      10.803  11.767  19.765  0.00  0.00    +0.000 A 
ATOM     24  F   UNL     1      11.635  12.619  20.378  0.00  0.00    +0.000 F 
ATOM     25  C   UNL     1       9.915  11.017  20.521  0.00  0.00    +0.000 A 
ATOM     26  C   UNL     1       9.037  10.148  19.874  0.00  0.00    +0.000 A 
ENDBRANCH  17  20
ENDBRANCH   5  16
TORSDOF 3
ENDMDL
MODEL 9
REMARK VINA RESULT:      -7.5      1.609      2.204
REMARK  Name = 
REMARK  4 active torsions:
REMARK  status: ('A' for Active; 'I' for Inactive)
REMARK    1  A    between atoms: C_1  and  N_2
REMARK    2  A    between atoms: C_6  and  C_8
REMARK    3  A    between atoms: C_12  and  N_13
REMARK    4  A    between atoms: C_14  and  C_16
REMARK                            x       y       z     vdW  Elec       q    Type
REMARK                         _______ _______ _______ _____ _____    ______ ____
ROOT
ATOM      1  C   UNL     1       5.860   6.487  17.912  0.00  0.00    +0.000 A 
ATOM      2  C   UNL     1       6.544   5.461  18.544  0.00  0.00    +0.000 A 
ATOM      3  C   UNL     1       7.867   5.682  18.921  0.00  0.00    +0.000 A 
ATOM      4  C   UNL     1       8.463   6.917  18.657  0.00  0.00    +0.000 A 
ATOM      5  C   UNL     1       7.719   7.895  18.010  0.00  0.00    +0.000 A 
ATOM      6  N   UNL     1       6.443   7.680  17.664  0.00  0.00    +0.000 NA
ENDROOT
BRANCH   1  12
ATOM      7  C   UNL     1       0.839   4.006  20.213  0.00  0.00    +0.000 C 
ATOM      8  N   UNL     1       1.834   3.489  19.278  0.00  0.00    +0.000 NA
ATOM      9  C   UNL     1       1.671   4.048  17.922  0.00  0.00    +0.000 C 
ATOM     10  C   UNL     1       2.080   5.529  17.767  0.00  0.00    +0.000 C 
ATOM     11  C   UNL     1       3.474   5.763  18.310  0.00  0.00    +0.000 C 
ATOM     12  C   UNL     1       4.432   6.359  17.570  0.00  0.00    +0.000 C 
ATOM     13  F   UNL     1       4.079   6.866  16.362  0.00  0.00    +0.000 F 
ATOM     14  C   UNL     1       3.637   5.206  19.709  0.00  0.00    +0.000 C 
ATOM     15  C   UNL     1       3.213   3.730  19.756  0.00  0.00    +0.000 C 
ENDBRANCH   1  12
BRANCH   5  16
ATOM     16  N   UNL     1       8.324   9.129  17.709  0.00  0.00    +0.000 N 
ATOM     17  C   UNL     1       8.942   9.922  18.661  0.00  0.00    +0.000 C 
ATOM     18  O   UNL     1       9.058   9.677  19.856  0.00  0.00    +0.000 OA
ATOM     19  H   UNL     1       8.316   9.419  16.745  0.00  0.00    +0.000 HD
BRANCH  17  20
ATOM     20  C   UNL     1       9.529  11.215  18.205  0.00  0.00    +0.000 A 
ATOM     21  C   UNL     1      10.887  11.381  17.906  0.00  0.00    +0.000 A 
ATOM     22  C   UNL     1      11.339  12.604  17.398  0.00  0.00    +0.000 A 
ATOM     23  C   UNL     1      10.438  13.647  17.184  0.00  0.00    +0.000 A 
ATOM     24  F   UNL     1      10.879  14.805  16.675  0.00  0.00    +0.000 F 
ATOM     25  C   UNL     1       9.090  13.497  17.474  0.00  0.00    +0.000 A 
ATOM     26  C   UNL     1       8.636  12.282  17.983  0.00  0.00    +0.000 A 
ENDBRANCH  17  20
ENDBRANCH   5  16
TORSDOF 3
ENDMDL
