MODEL 1
REMARK VINA RESULT:      -8.2      0.000      0.000
REMARK  Name = 
REMARK  10 active torsions:
REMARK  status: ('A' for Active; 'I' for Inactive)
REMARK    1  A    between atoms: C_1  and  C_2
REMARK    2  A    between atoms: C_2  and  C_3
REMARK    3  A    between atoms: C_6  and  C_7
REMARK    4  A    between atoms: C_6  and  C_8
REMARK    5  A    between atoms: C_11  and  C_12
REMARK    6  A    between atoms: C_12  and  C_14
REMARK    7  A    between atoms: C_15  and  C_16
REMARK    8  A    between atoms: C_19  and  C_20
REMARK    9  A    between atoms: C_20  and  O_22
REMARK   10  A    between atoms: C_23  and  O_24
REMARK                            x       y       z     vdW  Elec       q    Type
REMARK                         _______ _______ _______ _____ _____    ______ ____
ROOT
ATOM      1  C   UNL     1       1.859   9.852  18.113  0.00  0.00    +0.000 C 
ATOM      2  O   UNL     1       2.602  10.471  17.345  0.00  0.00    +0.000 OA
ENDROOT
BRANCH   1  13
ATOM      3  C   UNL     1      -2.534  14.117  20.423  0.00  0.00    +0.000 C 
ATOM      4  C   UNL     1      -2.738  12.593  20.576  0.00  0.00    +0.000 C 
ATOM      5  C   UNL     1      -2.760  12.250  22.089  0.00  0.00    +0.000 C 
ATOM      6  C   UNL     1      -4.127  12.180  20.044  0.00  0.00    +0.000 C 
ATOM      7  C   UNL     1      -4.196  11.920  18.552  0.00  0.00    +0.000 C 
ATOM      8  C   UNL     1      -3.085  11.001  17.978  0.00  0.00    +0.000 C 
ATOM      9  C   UNL     1      -3.562   9.531  18.012  0.00  0.00    +0.000 C 
ATOM     10  C   UNL     1      -2.932  11.427  16.496  0.00  0.00    +0.000 C 
ATOM     11  C   UNL     1      -1.735  11.118  18.702  0.00  0.00    +0.000 A 
ATOM     12  C   UNL     1      -0.587  10.451  18.172  0.00  0.00    +0.000 A 
ATOM     13  C   UNL     1       0.689  10.552  18.753  0.00  0.00    +0.000 A 
ATOM     14  C   UNL     1       0.834  11.354  19.879  0.00  0.00    +0.000 A 
ATOM     15  C   UNL     1      -0.283  11.995  20.426  0.00  0.00    +0.000 A 
ATOM     16  C   UNL     1      -1.579  11.871  19.880  0.00  0.00    +0.000 A 
ENDBRANCH   1  13
BRANCH   1  17
ATOM     17  C   UNL     1       2.070   8.401  18.389  0.00  0.00    +0.000 C 
ATOM     18  C   UNL     1       3.084   7.695  17.869  0.00  0.00    +0.000 C 
BRANCH  18  19
ATOM     19  C   UNL     1       3.271   6.244  18.112  0.00  0.00    +0.000 A 
ATOM     20  C   UNL     1       2.171   5.375  18.166  0.00  0.00    +0.000 A 
ATOM     21  C   UNL     1       2.332   4.013  18.440  0.00  0.00    +0.000 A 
ATOM     22  C   UNL     1       3.606   3.477  18.644  0.00  0.00    +0.000 A 
ATOM     23  C   UNL     1       4.710   4.327  18.560  0.00  0.00    +0.000 A 
ATOM     24  C   UNL     1       4.552   5.693  18.278  0.00  0.00    +0.000 A 
BRANCH  22  25
ATOM     25  C   UNL     1       3.681   2.035  18.992  0.00  0.00    +0.000 C 
ATOM     26  O   UNL     1       4.521   1.595  19.765  0.00  0.00    +0.000 OA
BRANCH  25  27
ATOM     27  O   UNL     1       2.746   1.257  18.414  0.00  0.00    +0.000 OA
ATOM     28  H   UNL     1       2.686   0.357  18.798  0.00  0.00    +0.000 HD
ENDBRANCH  25  27
ENDBRANCH  22  25
BRANCH  23  29
ATOM     29  O   UNL     1       5.988   3.880  18.759  0.00  0.00    +0.000 OA
ATOM     30  H   UNL     1       6.528   4.211  18.015  0.00  0.00    +0.000 HD
ENDBRANCH  23  29
ENDBRANCH  18  19
ENDBRANCH   1  17
TORSDOF 6
ENDMDL
MODEL 2
REMARK VINA RESULT:      -8.2      3.528      5.098
REMARK  Name = 
REMARK  10 active torsions:
REMARK  status: ('A' for Active; 'I' for Inactive)
REMARK    1  A    between atoms: C_1  and  C_2
REMARK    2  A    between atoms: C_2  and  C_3
REMARK    3  A    between atoms: C_6  and  C_7
REMARK    4  A    between atoms: C_6  and  C_8
REMARK    5  A    between atoms: C_11  and  C_12
REMARK    6  A    between atoms: C_12  and  C_14
REMARK    7  A    between atoms: C_15  and  C_16
REMARK    8  A    between atoms: C_19  and  C_20
REMARK    9  A    between atoms: C_20  and  O_22
REMARK   10  A    between atoms: C_23  and  O_24
REMARK                            x       y       z     vdW  Elec       q    Type
REMARK                         _______ _______ _______ _____ _____    ______ ____
ROOT
ATOM      1  C   UNL     1       3.115   6.115  19.000  0.00  0.00    +0.000 C 
ATOM      2  O   UNL     1       3.280   5.468  20.039  0.00  0.00    +0.000 OA
ENDROOT
BRANCH   1  13
ATOM      3  C   UNL     1      -0.797  11.312  18.286  0.00  0.00    +0.000 C 
ATOM      4  C   UNL     1       0.422  11.350  19.236  0.00  0.00    +0.000 C 
ATOM      5  C   UNL     1       1.409  12.432  18.725  0.00  0.00    +0.000 C 
ATOM      6  C   UNL     1      -0.007  11.820  20.643  0.00  0.00    +0.000 C 
ATOM      7  C   UNL     1      -0.534  10.729  21.555  0.00  0.00    +0.000 C 
ATOM      8  C   UNL     1       0.333   9.445  21.637  0.00  0.00    +0.000 C 
ATOM      9  C   UNL     1       1.352   9.582  22.791  0.00  0.00    +0.000 C 
ATOM     10  C   UNL     1      -0.659   8.309  21.999  0.00  0.00    +0.000 C 
ATOM     11  C   UNL     1       1.074   9.101  20.337  0.00  0.00    +0.000 A 
ATOM     12  C   UNL     1       1.774   7.860  20.227  0.00  0.00    +0.000 A 
ATOM     13  C   UNL     1       2.435   7.457  19.053  0.00  0.00    +0.000 A 
ATOM     14  C   UNL     1       2.382   8.302  17.950  0.00  0.00    +0.000 A 
ATOM     15  C   UNL     1       1.722   9.533  18.046  0.00  0.00    +0.000 A 
ATOM     16  C   UNL     1       1.090   9.971  19.231  0.00  0.00    +0.000 A 
ENDBRANCH   1  13
BRANCH   1  17
ATOM     17  C   UNL     1       3.620   5.613  17.689  0.00  0.00    +0.000 C 
ATOM     18  C   UNL     1       4.917   5.630  17.347  0.00  0.00    +0.000 C 
BRANCH  18  19
ATOM     19  C   UNL     1       5.413   5.167  16.028  0.00  0.00    +0.000 A 
ATOM     20  C   UNL     1       4.667   4.268  15.252  0.00  0.00    +0.000 A 
ATOM     21  C   UNL     1       5.147   3.790  14.029  0.00  0.00    +0.000 A 
ATOM     22  C   UNL     1       6.381   4.219  13.535  0.00  0.00    +0.000 A 
ATOM     23  C   UNL     1       7.117   5.139  14.284  0.00  0.00    +0.000 A 
ATOM     24  C   UNL     1       6.635   5.627  15.509  0.00  0.00    +0.000 A 
BRANCH  22  25
ATOM     25  C   UNL     1       6.843   3.613  12.260  0.00  0.00    +0.000 C 
ATOM     26  O   UNL     1       7.476   4.249  11.428  0.00  0.00    +0.000 OA
BRANCH  25  27
ATOM     27  O   UNL     1       6.534   2.312  12.100  0.00  0.00    +0.000 OA
ATOM     28  H   UNL     1       6.017   2.124  11.289  0.00  0.00    +0.000 HD
ENDBRANCH  25  27
ENDBRANCH  22  25
BRANCH  23  29
ATOM     29  O   UNL     1       8.339   5.598  13.873  0.00  0.00    +0.000 OA
ATOM     30  H   UNL     1       8.904   5.664  14.667  0.00  0.00    +0.000 HD
ENDBRANCH  23  29
ENDBRANCH  18  19
ENDBRANCH   1  17
TORSDOF 6
ENDMDL
MODEL 3
REMARK VINA RESULT:      -8.2      0.828      2.531
REMARK  Name = 
REMARK  10 active torsions:
REMARK  status: ('A' for Active; 'I' for Inactive)
REMARK    1  A    between atoms: C_1  and  C_2
REMARK    2  A    between atoms: C_2  and  C_3
REMARK    3  A    between atoms: C_6  and  C_7
REMARK    4  A    between atoms: C_6  and  C_8
REMARK    5  A    between atoms: C_11  and  C_12
REMARK    6  A    between atoms: C_12  and  C_14
REMARK    7  A    between atoms: C_15  and  C_16
REMARK    8  A    between atoms: C_19  and  C_20
REMARK    9  A    between atoms: C_20  and  O_22
REMARK   10  A    between atoms: C_23  and  O_24
REMARK                            x       y       z     vdW  Elec       q    Type
REMARK                         _______ _______ _______ _____ _____    ______ ____
ROOT
ATOM      1  C   UNL     1       1.258   9.929  18.342  0.00  0.00    +0.000 C 
ATOM      2  O   UNL     1       2.128  10.773  18.105  0.00  0.00    +0.000 OA
ENDROOT
BRANCH   1  13
ATOM      3  C   UNL     1      -5.267  10.247  18.722  0.00  0.00    +0.000 C 
ATOM      4  C   UNL     1      -4.426  11.480  18.321  0.00  0.00    +0.000 C 
ATOM      5  C   UNL     1      -4.816  11.892  16.877  0.00  0.00    +0.000 C 
ATOM      6  C   UNL     1      -4.792  12.692  19.204  0.00  0.00    +0.000 C 
ATOM      7  C   UNL     1      -4.059  12.770  20.529  0.00  0.00    +0.000 C 
ATOM      8  C   UNL     1      -2.521  12.578  20.459  0.00  0.00    +0.000 C 
ATOM      9  C   UNL     1      -1.837  13.952  20.275  0.00  0.00    +0.000 C 
ATOM     10  C   UNL     1      -2.118  12.019  21.847  0.00  0.00    +0.000 C 
ATOM     11  C   UNL     1      -2.056  11.622  19.351  0.00  0.00    +0.000 A 
ATOM     12  C   UNL     1      -0.683  11.231  19.281  0.00  0.00    +0.000 A 
ATOM     13  C   UNL     1      -0.195  10.323  18.325  0.00  0.00    +0.000 A 
ATOM     14  C   UNL     1      -1.099   9.772  17.425  0.00  0.00    +0.000 A 
ATOM     15  C   UNL     1      -2.443  10.161  17.462  0.00  0.00    +0.000 A 
ATOM     16  C   UNL     1      -2.942  11.103  18.388  0.00  0.00    +0.000 A 
ENDBRANCH   1  13
BRANCH   1  17
ATOM     17  C   UNL     1       1.616   8.504  18.604  0.00  0.00    +0.000 C 
ATOM     18  C   UNL     1       2.589   7.858  17.945  0.00  0.00    +0.000 C 
BRANCH  18  19
ATOM     19  C   UNL     1       2.917   6.431  18.179  0.00  0.00    +0.000 A 
ATOM     20  C   UNL     1       1.953   5.429  17.991  0.00  0.00    +0.000 A 
ATOM     21  C   UNL     1       2.239   4.086  18.252  0.00  0.00    +0.000 A 
ATOM     22  C   UNL     1       3.510   3.703  18.687  0.00  0.00    +0.000 A 
ATOM     23  C   UNL     1       4.486   4.688  18.846  0.00  0.00    +0.000 A 
ATOM     24  C   UNL     1       4.204   6.037  18.578  0.00  0.00    +0.000 A 
BRANCH  22  25
ATOM     25  C   UNL     1       3.708   2.265  19.002  0.00  0.00    +0.000 C 
ATOM     26  O   UNL     1       4.532   1.886  19.823  0.00  0.00    +0.000 OA
BRANCH  25  27
ATOM     27  O   UNL     1       2.902   1.416  18.335  0.00  0.00    +0.000 OA
ATOM     28  H   UNL     1       3.278   0.518  18.223  0.00  0.00    +0.000 HD
ENDBRANCH  25  27
ENDBRANCH  22  25
BRANCH  23  29
ATOM     29  O   UNL     1       5.750   4.394  19.280  0.00  0.00    +0.000 OA
ATOM     30  H   UNL     1       6.294   5.195  19.147  0.00  0.00    +0.000 HD
ENDBRANCH  23  29
ENDBRANCH  18  19
ENDBRANCH   1  17
TORSDOF 6
ENDMDL
MODEL 4
REMARK VINA RESULT:      -8.2      3.188      9.648
REMARK  Name = 
REMARK  10 active torsions:
REMARK  status: ('A' for Active; 'I' for Inactive)
REMARK    1  A    between atoms: C_1  and  C_2
REMARK    2  A    between atoms: C_2  and  C_3
REMARK    3  A    between atoms: C_6  and  C_7
REMARK    4  A    between atoms: C_6  and  C_8
REMARK    5  A    between atoms: C_11  and  C_12
REMARK    6  A    between atoms: C_12  and  C_14
REMARK    7  A    between atoms: C_15  and  C_16
REMARK    8  A    between atoms: C_19  and  C_20
REMARK    9  A    between atoms: C_20  and  O_22
REMARK   10  A    between atoms: C_23  and  O_24
REMARK                            x       y       z     vdW  Elec       q    Type
REMARK                         _______ _______ _______ _____ _____    ______ ____
ROOT
ATOM      1  C   UNL     1       1.833   9.417  17.986  0.00  0.00    +0.000 C 
ATOM      2  O   UNL     1       2.595  10.387  18.051  0.00  0.00    +0.000 OA
ENDROOT
BRANCH   1  13
ATOM      3  C   UNL     1       3.093   3.019  17.441  0.00  0.00    +0.000 C 
ATOM      4  C   UNL     1       4.026   3.955  18.242  0.00  0.00    +0.000 C 
ATOM      5  C   UNL     1       4.028   3.497  19.724  0.00  0.00    +0.000 C 
ATOM      6  C   UNL     1       5.486   3.797  17.764  0.00  0.00    +0.000 C 
ATOM      7  C   UNL     1       5.867   4.640  16.562  0.00  0.00    +0.000 C 
ATOM      8  C   UNL     1       5.466   6.136  16.637  0.00  0.00    +0.000 C 
ATOM      9  C   UNL     1       6.618   6.950  17.268  0.00  0.00    +0.000 C 
ATOM     10  C   UNL     1       5.306   6.587  15.162  0.00  0.00    +0.000 C 
ATOM     11  C   UNL     1       4.166   6.402  17.412  0.00  0.00    +0.000 A 
ATOM     12  C   UNL     1       3.599   7.714  17.415  0.00  0.00    +0.000 A 
ATOM     13  C   UNL     1       2.388   8.020  18.062  0.00  0.00    +0.000 A 
ATOM     14  C   UNL     1       1.712   6.990  18.706  0.00  0.00    +0.000 A 
ATOM     15  C   UNL     1       2.264   5.704  18.734  0.00  0.00    +0.000 A 
ATOM     16  C   UNL     1       3.499   5.389  18.125  0.00  0.00    +0.000 A 
ENDBRANCH   1  13
BRANCH   1  17
ATOM     17  C   UNL     1       0.356   9.602  17.878  0.00  0.00    +0.000 C 
ATOM     18  C   UNL     1      -0.301  10.620  18.451  0.00  0.00    +0.000 C 
BRANCH  18  19
ATOM     19  C   UNL     1      -1.773  10.781  18.376  0.00  0.00    +0.000 A 
ATOM     20  C   UNL     1      -2.559   9.885  17.636  0.00  0.00    +0.000 A 
ATOM     21  C   UNL     1      -3.942  10.054  17.521  0.00  0.00    +0.000 A 
ATOM     22  C   UNL     1      -4.583  11.115  18.165  0.00  0.00    +0.000 A 
ATOM     23  C   UNL     1      -3.814  11.994  18.930  0.00  0.00    +0.000 A 
ATOM     24  C   UNL     1      -2.426  11.823  19.054  0.00  0.00    +0.000 A 
BRANCH  22  25
ATOM     25  C   UNL     1      -6.044  11.257  17.937  0.00  0.00    +0.000 C 
ATOM     26  O   UNL     1      -6.871  10.739  18.674  0.00  0.00    +0.000 OA
BRANCH  25  27
ATOM     27  O   UNL     1      -6.387  12.013  16.876  0.00  0.00    +0.000 OA
ATOM     28  H   UNL     1      -6.405  11.522  16.029  0.00  0.00    +0.000 HD
ENDBRANCH  25  27
ENDBRANCH  22  25
BRANCH  23  29
ATOM     29  O   UNL     1      -4.367  13.063  19.582  0.00  0.00    +0.000 OA
ATOM     30  H   UNL     1      -3.670  13.744  19.660  0.00  0.00    +0.000 HD
ENDBRANCH  23  29
ENDBRANCH  18  19
ENDBRANCH   1  17
TORSDOF 6
ENDMDL
MODEL 5
REMARK VINA RESULT:      -8.2      0.981      2.920
REMARK  Name = 
REMARK  10 active torsions:
REMARK  status: ('A' for Active; 'I' for Inactive)
REMARK    1  A    between atoms: C_1  and  C_2
REMARK    2  A    between atoms: C_2  and  C_3
REMARK    3  A    between atoms: C_6  and  C_7
REMARK    4  A    between atoms: C_6  and  C_8
REMARK    5  A    between atoms: C_11  and  C_12
REMARK    6  A    between atoms: C_12  and  C_14
REMARK    7  A    between atoms: C_15  and  C_16
REMARK    8  A    between atoms: C_19  and  C_20
REMARK    9  A    between atoms: C_20  and  O_22
REMARK   10  A    between atoms: C_23  and  O_24
REMARK                            x       y       z     vdW  Elec       q    Type
REMARK                         _______ _______ _______ _____ _____    ______ ____
ROOT
ATOM      1  C   UNL     1       1.078   9.918  18.238  0.00  0.00    +0.000 C 
ATOM      2  O   UNL     1       1.955  10.740  17.955  0.00  0.00    +0.000 OA
ENDROOT
BRANCH   1  13
ATOM      3  C   UNL     1      -5.429  10.356  18.783  0.00  0.00    +0.000 C 
ATOM      4  C   UNL     1      -4.574  11.576  18.370  0.00  0.00    +0.000 C 
ATOM      5  C   UNL     1      -4.992  12.006  16.939  0.00  0.00    +0.000 C 
ATOM      6  C   UNL     1      -4.896  12.788  19.271  0.00  0.00    +0.000 C 
ATOM      7  C   UNL     1      -4.128  12.842  20.578  0.00  0.00    +0.000 C 
ATOM      8  C   UNL     1      -2.597  12.622  20.467  0.00  0.00    +0.000 C 
ATOM      9  C   UNL     1      -1.891  13.984  20.276  0.00  0.00    +0.000 C 
ATOM     10  C   UNL     1      -2.170  12.045  21.841  0.00  0.00    +0.000 C 
ATOM     11  C   UNL     1      -2.178  11.666  19.341  0.00  0.00    +0.000 A 
ATOM     12  C   UNL     1      -0.814  11.250  19.235  0.00  0.00    +0.000 A 
ATOM     13  C   UNL     1      -0.368  10.340  18.260  0.00  0.00    +0.000 A 
ATOM     14  C   UNL     1      -1.305   9.812  17.379  0.00  0.00    +0.000 A 
ATOM     15  C   UNL     1      -2.640  10.226  17.452  0.00  0.00    +0.000 A 
ATOM     16  C   UNL     1      -3.097  11.171  18.397  0.00  0.00    +0.000 A 
ENDBRANCH   1  13
BRANCH   1  17
ATOM     17  C   UNL     1       1.417   8.492  18.518  0.00  0.00    +0.000 C 
ATOM     18  C   UNL     1       2.533   7.901  18.067  0.00  0.00    +0.000 C 
BRANCH  18  19
ATOM     19  C   UNL     1       2.850   6.473  18.312  0.00  0.00    +0.000 A 
ATOM     20  C   UNL     1       4.077   6.094  18.878  0.00  0.00    +0.000 A 
ATOM     21  C   UNL     1       4.404   4.749  19.071  0.00  0.00    +0.000 A 
ATOM     22  C   UNL     1       3.501   3.742  18.724  0.00  0.00    +0.000 A 
ATOM     23  C   UNL     1       2.264   4.110  18.190  0.00  0.00    +0.000 A 
ATOM     24  C   UNL     1       1.929   5.459  18.002  0.00  0.00    +0.000 A 
BRANCH  22  25
ATOM     25  C   UNL     1       3.955   2.339  18.903  0.00  0.00    +0.000 C 
ATOM     26  O   UNL     1       3.425   1.404  18.319  0.00  0.00    +0.000 OA
BRANCH  25  27
ATOM     27  O   UNL     1       5.002   2.178  19.736  0.00  0.00    +0.000 OA
ATOM     28  H   UNL     1       5.118   2.913  20.373  0.00  0.00    +0.000 HD
ENDBRANCH  25  27
ENDBRANCH  22  25
BRANCH  23  29
ATOM     29  O   UNL     1       1.331   3.181  17.815  0.00  0.00    +0.000 OA
ATOM     30  H   UNL     1       1.781   2.540  17.231  0.00  0.00    +0.000 HD
ENDBRANCH  23  29
ENDBRANCH  18  19
ENDBRANCH   1  17
TORSDOF 6
ENDMDL
MODEL 6
REMARK VINA RESULT:      -8.1      1.395      3.057
REMARK  Name = 
REMARK  10 active torsions:
REMARK  status: ('A' for Active; 'I' for Inactive)
REMARK    1  A    between atoms: C_1  and  C_2
REMARK    2  A    between atoms: C_2  and  C_3
REMARK    3  A    between atoms: C_6  and  C_7
REMARK    4  A    between atoms: C_6  and  C_8
REMARK    5  A    between atoms: C_11  and  C_12
REMARK    6  A    between atoms: C_12  and  C_14
REMARK    7  A    between atoms: C_15  and  C_16
REMARK    8  A    between atoms: C_19  and  C_20
REMARK    9  A    between atoms: C_20  and  O_22
REMARK   10  A    between atoms: C_23  and  O_24
REMARK                            x       y       z     vdW  Elec       q    Type
REMARK                         _______ _______ _______ _____ _____    ______ ____
ROOT
ATOM      1  C   UNL     1       0.839  10.648  18.632  0.00  0.00    +0.000 C 
ATOM      2  O   UNL     1       1.643  11.548  18.369  0.00  0.00    +0.000 OA
ENDROOT
BRANCH   1  13
ATOM      3  C   UNL     1      -5.700  10.420  18.782  0.00  0.00    +0.000 C 
ATOM      4  C   UNL     1      -4.950  11.730  18.449  0.00  0.00    +0.000 C 
ATOM      5  C   UNL     1      -5.323  12.156  17.005  0.00  0.00    +0.000 C 
ATOM      6  C   UNL     1      -5.445  12.879  19.354  0.00  0.00    +0.000 C 
ATOM      7  C   UNL     1      -4.766  12.973  20.707  0.00  0.00    +0.000 C 
ATOM      8  C   UNL     1      -3.216  12.910  20.687  0.00  0.00    +0.000 C 
ATOM      9  C   UNL     1      -2.642  14.340  20.569  0.00  0.00    +0.000 C 
ATOM     10  C   UNL     1      -2.816  12.340  22.071  0.00  0.00    +0.000 C 
ATOM     11  C   UNL     1      -2.636  12.031  19.568  0.00  0.00    +0.000 A 
ATOM     12  C   UNL     1      -1.234  11.757  19.538  0.00  0.00    +0.000 A 
ATOM     13  C   UNL     1      -0.640  10.923  18.573  0.00  0.00    +0.000 A 
ATOM     14  C   UNL     1      -1.465  10.330  17.625  0.00  0.00    +0.000 A 
ATOM     15  C   UNL     1      -2.837  10.606  17.624  0.00  0.00    +0.000 A 
ATOM     16  C   UNL     1      -3.443  11.474  18.559  0.00  0.00    +0.000 A 
ENDBRANCH   1  13
BRANCH   1  17
ATOM     17  C   UNL     1       1.304   9.270  18.965  0.00  0.00    +0.000 C 
ATOM     18  C   UNL     1       2.250   8.626  18.267  0.00  0.00    +0.000 C 
BRANCH  18  19
ATOM     19  C   UNL     1       2.684   7.241  18.575  0.00  0.00    +0.000 A 
ATOM     20  C   UNL     1       3.530   6.540  17.703  0.00  0.00    +0.000 A 
ATOM     21  C   UNL     1       3.908   5.219  17.961  0.00  0.00    +0.000 A 
ATOM     22  C   UNL     1       3.467   4.568  19.116  0.00  0.00    +0.000 A 
ATOM     23  C   UNL     1       2.650   5.268  20.006  0.00  0.00    +0.000 A 
ATOM     24  C   UNL     1       2.275   6.597  19.754  0.00  0.00    +0.000 A 
BRANCH  22  25
ATOM     25  C   UNL     1       3.863   3.146  19.279  0.00  0.00    +0.000 C 
ATOM     26  O   UNL     1       3.038   2.250  19.396  0.00  0.00    +0.000 OA
BRANCH  25  27
ATOM     27  O   UNL     1       5.190   2.916  19.268  0.00  0.00    +0.000 OA
ATOM     28  H   UNL     1       5.485   2.334  18.537  0.00  0.00    +0.000 HD
ENDBRANCH  25  27
ENDBRANCH  22  25
BRANCH  23  29
ATOM     29  O   UNL     1       2.169   4.695  21.152  0.00  0.00    +0.000 OA
ATOM     30  H   UNL     1       2.441   3.757  21.141  0.00  0.00    +0.000 HD
ENDBRANCH  23  29
ENDBRANCH  18  19
ENDBRANCH   1  17
TORSDOF 6
ENDMDL
MODEL 7
REMARK VINA RESULT:      -7.9      1.675      2.942
REMARK  Name = 
REMARK  10 active torsions:
REMARK  status: ('A' for Active; 'I' for Inactive)
REMARK    1  A    between atoms: C_1  and  C_2
REMARK    2  A    between atoms: C_2  and  C_3
REMARK    3  A    between atoms: C_6  and  C_7
REMARK    4  A    between atoms: C_6  and  C_8
REMARK    5  A    between atoms: C_11  and  C_12
REMARK    6  A    between atoms: C_12  and  C_14
REMARK    7  A    between atoms: C_15  and  C_16
REMARK    8  A    between atoms: C_19  and  C_20
REMARK    9  A    between atoms: C_20  and  O_22
REMARK   10  A    between atoms: C_23  and  O_24
REMARK                            x       y       z     vdW  Elec       q    Type
REMARK                         _______ _______ _______ _____ _____    ______ ____
ROOT
ATOM      1  C   UNL     1       1.962   9.775  18.166  0.00  0.00    +0.000 C 
ATOM      2  O   UNL     1       2.634  10.338  17.297  0.00  0.00    +0.000 OA
ENDROOT
BRANCH   1  13
ATOM      3  C   UNL     1      -1.486  12.386  23.077  0.00  0.00    +0.000 C 
ATOM      4  C   UNL     1      -1.567  12.962  21.645  0.00  0.00    +0.000 C 
ATOM      5  C   UNL     1      -3.024  12.810  21.136  0.00  0.00    +0.000 C 
ATOM      6  C   UNL     1      -1.296  14.482  21.661  0.00  0.00    +0.000 C 
ATOM      7  C   UNL     1       0.167  14.878  21.611  0.00  0.00    +0.000 C 
ATOM      8  C   UNL     1       1.017  14.173  20.521  0.00  0.00    +0.000 C 
ATOM      9  C   UNL     1       0.994  15.013  19.224  0.00  0.00    +0.000 C 
ATOM     10  C   UNL     1       2.465  14.173  21.073  0.00  0.00    +0.000 C 
ATOM     11  C   UNL     1       0.573  12.736  20.208  0.00  0.00    +0.000 A 
ATOM     12  C   UNL     1       1.369  11.921  19.345  0.00  0.00    +0.000 A 
ATOM     13  C   UNL     1       1.051  10.583  19.052  0.00  0.00    +0.000 A 
ATOM     14  C   UNL     1      -0.078  10.033  19.648  0.00  0.00    +0.000 A 
ATOM     15  C   UNL     1      -0.883  10.823  20.477  0.00  0.00    +0.000 A 
ATOM     16  C   UNL     1      -0.601  12.180  20.748  0.00  0.00    +0.000 A 
ENDBRANCH   1  13
BRANCH   1  17
ATOM     17  C   UNL     1       1.999   8.292  18.331  0.00  0.00    +0.000 C 
ATOM     18  C   UNL     1       3.030   7.535  17.930  0.00  0.00    +0.000 C 
BRANCH  18  19
ATOM     19  C   UNL     1       3.050   6.057  18.058  0.00  0.00    +0.000 A 
ATOM     20  C   UNL     1       1.904   5.295  17.786  0.00  0.00    +0.000 A 
ATOM     21  C   UNL     1       1.899   3.906  17.948  0.00  0.00    +0.000 A 
ATOM     22  C   UNL     1       3.051   3.237  18.366  0.00  0.00    +0.000 A 
ATOM     23  C   UNL     1       4.206   3.983  18.609  0.00  0.00    +0.000 A 
ATOM     24  C   UNL     1       4.217   5.376  18.440  0.00  0.00    +0.000 A 
BRANCH  22  25
ATOM     25  C   UNL     1       2.939   1.770  18.574  0.00  0.00    +0.000 C 
ATOM     26  O   UNL     1       3.911   1.029  18.517  0.00  0.00    +0.000 OA
BRANCH  25  27
ATOM     27  O   UNL     1       1.699   1.324  18.850  0.00  0.00    +0.000 OA
ATOM     28  H   UNL     1       1.679   0.560  19.463  0.00  0.00    +0.000 HD
ENDBRANCH  25  27
ENDBRANCH  22  25
BRANCH  23  29
ATOM     29  O   UNL     1       5.370   3.401  19.032  0.00  0.00    +0.000 OA
ATOM     30  H   UNL     1       5.130   2.558  19.465  0.00  0.00    +0.000 HD
ENDBRANCH  23  29
ENDBRANCH  18  19
ENDBRANCH   1  17
TORSDOF 6
ENDMDL
MODEL 8
REMARK VINA RESULT:      -7.9      0.996      1.441
REMARK  Name = 
REMARK  10 active torsions:
REMARK  status: ('A' for Active; 'I' for Inactive)
REMARK    1  A    between atoms: C_1  and  C_2
REMARK    2  A    between atoms: C_2  and  C_3
REMARK    3  A    between atoms: C_6  and  C_7
REMARK    4  A    between atoms: C_6  and  C_8
REMARK    5  A    between atoms: C_11  and  C_12
REMARK    6  A    between atoms: C_12  and  C_14
REMARK    7  A    between atoms: C_15  and  C_16
REMARK    8  A    between atoms: C_19  and  C_20
REMARK    9  A    between atoms: C_20  and  O_22
REMARK   10  A    between atoms: C_23  and  O_24
REMARK                            x       y       z     vdW  Elec       q    Type
REMARK                         _______ _______ _______ _____ _____    ______ ____
ROOT
ATOM      1  C   UNL     1       1.769   9.976  18.093  0.00  0.00    +0.000 C 
ATOM      2  O   UNL     1       2.661  10.649  17.567  0.00  0.00    +0.000 OA
ENDROOT
BRANCH   1  13
ATOM      3  C   UNL     1      -2.670  14.186  20.417  0.00  0.00    +0.000 C 
ATOM      4  C   UNL     1      -2.844  12.660  20.589  0.00  0.00    +0.000 C 
ATOM      5  C   UNL     1      -2.839  12.333  22.106  0.00  0.00    +0.000 C 
ATOM      6  C   UNL     1      -4.232  12.216  20.081  0.00  0.00    +0.000 C 
ATOM      7  C   UNL     1      -4.316  11.939  18.592  0.00  0.00    +0.000 C 
ATOM      8  C   UNL     1      -3.196  11.033  18.013  0.00  0.00    +0.000 C 
ATOM      9  C   UNL     1      -3.646   9.556  18.069  0.00  0.00    +0.000 C 
ATOM     10  C   UNL     1      -3.071  11.446  16.525  0.00  0.00    +0.000 C 
ATOM     11  C   UNL     1      -1.839  11.183  18.717  0.00  0.00    +0.000 A 
ATOM     12  C   UNL     1      -0.687  10.531  18.179  0.00  0.00    +0.000 A 
ATOM     13  C   UNL     1       0.596  10.661  18.742  0.00  0.00    +0.000 A 
ATOM     14  C   UNL     1       0.741  11.478  19.857  0.00  0.00    +0.000 A 
ATOM     15  C   UNL     1      -0.380  12.105  20.412  0.00  0.00    +0.000 A 
ATOM     16  C   UNL     1      -1.682  11.952  19.885  0.00  0.00    +0.000 A 
ENDBRANCH   1  13
BRANCH   1  17
ATOM     17  C   UNL     1       1.806   8.484  18.061  0.00  0.00    +0.000 C 
ATOM     18  C   UNL     1       2.447   7.746  18.979  0.00  0.00    +0.000 C 
BRANCH  18  19
ATOM     19  C   UNL     1       2.516   6.266  18.924  0.00  0.00    +0.000 A 
ATOM     20  C   UNL     1       3.173   5.613  17.871  0.00  0.00    +0.000 A 
ATOM     21  C   UNL     1       3.205   4.218  17.786  0.00  0.00    +0.000 A 
ATOM     22  C   UNL     1       2.598   3.434  18.770  0.00  0.00    +0.000 A 
ATOM     23  C   UNL     1       1.969   4.074  19.840  0.00  0.00    +0.000 A 
ATOM     24  C   UNL     1       1.942   5.474  19.932  0.00  0.00    +0.000 A 
BRANCH  22  25
ATOM     25  C   UNL     1       2.623   1.962  18.568  0.00  0.00    +0.000 C 
ATOM     26  O   UNL     1       3.636   1.370  18.221  0.00  0.00    +0.000 OA
BRANCH  25  27
ATOM     27  O   UNL     1       1.460   1.331  18.816  0.00  0.00    +0.000 OA
ATOM     28  H   UNL     1       1.563   0.483  19.296  0.00  0.00    +0.000 HD
ENDBRANCH  25  27
ENDBRANCH  22  25
BRANCH  23  29
ATOM     29  O   UNL     1       1.343   3.375  20.836  0.00  0.00    +0.000 OA
ATOM     30  H   UNL     1       0.584   3.915  21.133  0.00  0.00    +0.000 HD
ENDBRANCH  23  29
ENDBRANCH  18  19
ENDBRANCH   1  17
TORSDOF 6
ENDMDL
MODEL 9
REMARK VINA RESULT:      -7.8      1.253      2.875
REMARK  Name = 
REMARK  10 active torsions:
REMARK  status: ('A' for Active; 'I' for Inactive)
REMARK    1  A    between atoms: C_1  and  C_2
REMARK    2  A    between atoms: C_2  and  C_3
REMARK    3  A    between atoms: C_6  and  C_7
REMARK    4  A    between atoms: C_6  and  C_8
REMARK    5  A    between atoms: C_11  and  C_12
REMARK    6  A    between atoms: C_12  and  C_14
REMARK    7  A    between atoms: C_15  and  C_16
REMARK    8  A    between atoms: C_19  and  C_20
REMARK    9  A    between atoms: C_20  and  O_22
REMARK   10  A    between atoms: C_23  and  O_24
REMARK                            x       y       z     vdW  Elec       q    Type
REMARK                         _______ _______ _______ _____ _____    ______ ____
ROOT
ATOM      1  C   UNL     1       1.110  10.543  18.578  0.00  0.00    +0.000 C 
ATOM      2  O   UNL     1       1.894  11.480  18.759  0.00  0.00    +0.000 OA
ENDROOT
BRANCH   1  13
ATOM      3  C   UNL     1      -5.425  10.259  18.750  0.00  0.00    +0.000 C 
ATOM      4  C   UNL     1      -4.688  11.572  18.400  0.00  0.00    +0.000 C 
ATOM      5  C   UNL     1      -5.070  11.978  16.952  0.00  0.00    +0.000 C 
ATOM      6  C   UNL     1      -5.191  12.726  19.294  0.00  0.00    +0.000 C 
ATOM      7  C   UNL     1      -4.509  12.842  20.643  0.00  0.00    +0.000 C 
ATOM      8  C   UNL     1      -2.959  12.792  20.619  0.00  0.00    +0.000 C 
ATOM      9  C   UNL     1      -2.397  14.226  20.484  0.00  0.00    +0.000 C 
ATOM     10  C   UNL     1      -2.549  12.241  22.009  0.00  0.00    +0.000 C 
ATOM     11  C   UNL     1      -2.374  11.906  19.509  0.00  0.00    +0.000 A 
ATOM     12  C   UNL     1      -0.970  11.643  19.478  0.00  0.00    +0.000 A 
ATOM     13  C   UNL     1      -0.371  10.804  18.521  0.00  0.00    +0.000 A 
ATOM     14  C   UNL     1      -1.193  10.193  17.582  0.00  0.00    +0.000 A 
ATOM     15  C   UNL     1      -2.568  10.457  17.581  0.00  0.00    +0.000 A 
ATOM     16  C   UNL     1      -3.179  11.330  18.509  0.00  0.00    +0.000 A 
ENDBRANCH   1  13
BRANCH   1  17
ATOM     17  C   UNL     1       1.606   9.151  18.368  0.00  0.00    +0.000 C 
ATOM     18  C   UNL     1       1.865   8.305  19.375  0.00  0.00    +0.000 C 
BRANCH  18  19
ATOM     19  C   UNL     1       2.395   6.935  19.167  0.00  0.00    +0.000 A 
ATOM     20  C   UNL     1       2.210   5.936  20.135  0.00  0.00    +0.000 A 
ATOM     21  C   UNL     1       2.744   4.655  19.969  0.00  0.00    +0.000 A 
ATOM     22  C   UNL     1       3.462   4.329  18.816  0.00  0.00    +0.000 A 
ATOM     23  C   UNL     1       3.624   5.307  17.833  0.00  0.00    +0.000 A 
ATOM     24  C   UNL     1       3.083   6.592  17.992  0.00  0.00    +0.000 A 
BRANCH  22  25
ATOM     25  C   UNL     1       4.049   2.967  18.751  0.00  0.00    +0.000 C 
ATOM     26  O   UNL     1       3.717   2.155  17.898  0.00  0.00    +0.000 OA
BRANCH  25  27
ATOM     27  O   UNL     1       4.985   2.702  19.682  0.00  0.00    +0.000 OA
ATOM     28  H   UNL     1       5.122   3.429  20.325  0.00  0.00    +0.000 HD
ENDBRANCH  25  27
ENDBRANCH  22  25
BRANCH  23  29
ATOM     29  O   UNL     1       4.324   5.068  16.680  0.00  0.00    +0.000 OA
ATOM     30  H   UNL     1       4.337   4.100  16.547  0.00  0.00    +0.000 HD
ENDBRANCH  23  29
ENDBRANCH  18  19
ENDBRANCH   1  17
TORSDOF 6
ENDMDL
