MODEL 1
REMARK VINA RESULT:      -7.6      0.000      0.000
REMARK  Name = 
REMARK  5 active torsions:
REMARK  status: ('A' for Active; 'I' for Inactive)
REMARK    1  A    between atoms: P_2  and  O_3
REMARK    2  A    between atoms: P_2  and  O_4
REMARK    3  A    between atoms: P_2  and  C_5
REMARK    4  A    between atoms: C_5  and  O_6
REMARK    5  A    between atoms: O_6  and  C_7
REMARK                            x       y       z     vdW  Elec       q    Type
REMARK                         _______ _______ _______ _____ _____    ______ ____
ROOT
ATOM      1  C   UNL     1       3.844   5.568  18.093  0.00  0.00    +0.000 A 
ATOM      2  C   UNL     1       3.895   4.465  18.954  0.00  0.00    +0.000 A 
ATOM      3  C   UNL     1       3.171   4.457  20.134  0.00  0.00    +0.000 A 
ATOM      4  C   UNL     1       2.393   5.561  20.477  0.00  0.00    +0.000 A 
ATOM      5  C   UNL     1       2.319   6.713  19.665  0.00  0.00    +0.000 A 
ATOM      6  C   UNL     1       3.067   6.707  18.449  0.00  0.00    +0.000 A 
ATOM      7  C   UNL     1       3.013   7.855  17.637  0.00  0.00    +0.000 A 
ATOM      8  C   UNL     1       2.269   8.978  18.003  0.00  0.00    +0.000 A 
ATOM      9  C   UNL     1       1.530   8.997  19.188  0.00  0.00    +0.000 A 
ATOM     10  C   UNL     1       0.792  10.146  19.537  0.00  0.00    +0.000 A 
ATOM     11  C   UNL     1       0.037  10.195  20.706  0.00  0.00    +0.000 A 
ATOM     12  C   UNL     1       0.007   9.092  21.543  0.00  0.00    +0.000 A 
ATOM     13  C   UNL     1       0.742   7.952  21.212  0.00  0.00    +0.000 A 
ATOM     14  C   UNL     1       1.532   7.864  20.035  0.00  0.00    +0.000 A 
ENDROOT
BRANCH   1  15
ATOM     15  O   UNL     1       4.516   5.604  16.882  0.00  0.00    +0.000 OA
BRANCH  15  16
ATOM     16  C   UNL     1       5.913   5.914  16.962  0.00  0.00    +0.000 C 
BRANCH  16  18
ATOM     17  O   UNL     1       7.536   5.146  14.754  0.00  0.00    +0.000 OA
ATOM     18  P   UNL     1       6.876   4.739  16.028  0.00  0.00    +0.000 P 
BRANCH  18  19
ATOM     19  O   UNL     1       5.984   3.417  15.857  0.00  0.00    +0.000 OA
ATOM     20  H   UNL     1       5.295   3.331  16.541  0.00  0.00    +0.000 HD
ENDBRANCH  18  19
BRANCH  18  21
ATOM     21  O   UNL     1       7.964   4.200  17.085  0.00  0.00    +0.000 OA
ATOM     22  H   UNL     1       8.820   4.660  17.026  0.00  0.00    +0.000 HD
ENDBRANCH  18  21
ENDBRANCH  16  18
ENDBRANCH  15  16
ENDBRANCH   1  15
TORSDOF 5
ENDMDL
MODEL 2
REMARK VINA RESULT:      -7.5      0.840      1.133
REMARK  Name = 
REMARK  5 active torsions:
REMARK  status: ('A' for Active; 'I' for Inactive)
REMARK    1  A    between atoms: P_2  and  O_3
REMARK    2  A    between atoms: P_2  and  O_4
REMARK    3  A    between atoms: P_2  and  C_5
REMARK    4  A    between atoms: C_5  and  O_6
REMARK    5  A    between atoms: O_6  and  C_7
REMARK                            x       y       z     vdW  Elec       q    Type
REMARK                         _______ _______ _______ _____ _____    ______ ____
ROOT
ATOM      1  C   UNL     1       3.706   5.061  18.032  0.00  0.00    +0.000 A 
ATOM      2  C   UNL     1       3.715   3.999  18.945  0.00  0.00    +0.000 A 
ATOM      3  C   UNL     1       3.069   4.112  20.164  0.00  0.00    +0.000 A 
ATOM      4  C   UNL     1       2.414   5.297  20.493  0.00  0.00    +0.000 A 
ATOM      5  C   UNL     1       2.390   6.412  19.628  0.00  0.00    +0.000 A 
ATOM      6  C   UNL     1       3.056   6.281  18.372  0.00  0.00    +0.000 A 
ATOM      7  C   UNL     1       3.052   7.389  17.506  0.00  0.00    +0.000 A 
ATOM      8  C   UNL     1       2.434   8.591  17.855  0.00  0.00    +0.000 A 
ATOM      9  C   UNL     1       1.776   8.733  19.079  0.00  0.00    +0.000 A 
ATOM     10  C   UNL     1       1.164   9.959  19.410  0.00  0.00    +0.000 A 
ATOM     11  C   UNL     1       0.492  10.132  20.617  0.00  0.00    +0.000 A 
ATOM     12  C   UNL     1       0.419   9.076  21.511  0.00  0.00    +0.000 A 
ATOM     13  C   UNL     1       1.028   7.860  21.198  0.00  0.00    +0.000 A 
ATOM     14  C   UNL     1       1.732   7.645  19.982  0.00  0.00    +0.000 A 
ENDROOT
BRANCH   1  15
ATOM     15  O   UNL     1       4.302   4.978  16.783  0.00  0.00    +0.000 OA
BRANCH  15  16
ATOM     16  C   UNL     1       5.487   4.176  16.717  0.00  0.00    +0.000 C 
BRANCH  16  18
ATOM     17  O   UNL     1       6.933   6.342  17.864  0.00  0.00    +0.000 OA
ATOM     18  P   UNL     1       6.944   5.182  16.926  0.00  0.00    +0.000 P 
BRANCH  18  19
ATOM     19  O   UNL     1       7.461   5.586  15.462  0.00  0.00    +0.000 OA
ATOM     20  H   UNL     1       6.767   5.994  14.913  0.00  0.00    +0.000 HD
ENDBRANCH  18  19
BRANCH  18  21
ATOM     21  O   UNL     1       8.090   4.128  17.338  0.00  0.00    +0.000 OA
ATOM     22  H   UNL     1       7.739   3.321  17.756  0.00  0.00    +0.000 HD
ENDBRANCH  18  21
ENDBRANCH  16  18
ENDBRANCH  15  16
ENDBRANCH   1  15
TORSDOF 5
ENDMDL
MODEL 3
REMARK VINA RESULT:      -7.5      1.990      4.234
REMARK  Name = 
REMARK  5 active torsions:
REMARK  status: ('A' for Active; 'I' for Inactive)
REMARK    1  A    between atoms: P_2  and  O_3
REMARK    2  A    between atoms: P_2  and  O_4
REMARK    3  A    between atoms: P_2  and  C_5
REMARK    4  A    between atoms: C_5  and  O_6
REMARK    5  A    between atoms: O_6  and  C_7
REMARK                            x       y       z     vdW  Elec       q    Type
REMARK                         _______ _______ _______ _____ _____    ______ ____
ROOT
ATOM      1  C   UNL     1       4.503   6.674  17.327  0.00  0.00    +0.000 A 
ATOM      2  C   UNL     1       3.634   7.770  17.255  0.00  0.00    +0.000 A 
ATOM      3  C   UNL     1       2.501   7.825  18.047  0.00  0.00    +0.000 A 
ATOM      4  C   UNL     1       2.213   6.775  18.917  0.00  0.00    +0.000 A 
ATOM      5  C   UNL     1       3.035   5.632  19.019  0.00  0.00    +0.000 A 
ATOM      6  C   UNL     1       4.202   5.589  18.200  0.00  0.00    +0.000 A 
ATOM      7  C   UNL     1       5.023   4.449  18.281  0.00  0.00    +0.000 A 
ATOM      8  C   UNL     1       4.709   3.379  19.120  0.00  0.00    +0.000 A 
ATOM      9  C   UNL     1       3.572   3.407  19.930  0.00  0.00    +0.000 A 
ATOM     10  C   UNL     1       3.276   2.311  20.764  0.00  0.00    +0.000 A 
ATOM     11  C   UNL     1       2.155   2.311  21.590  0.00  0.00    +0.000 A 
ATOM     12  C   UNL     1       1.315   3.412  21.597  0.00  0.00    +0.000 A 
ATOM     13  C   UNL     1       1.593   4.501  20.769  0.00  0.00    +0.000 A 
ATOM     14  C   UNL     1       2.720   4.537  19.903  0.00  0.00    +0.000 A 
ENDROOT
BRANCH   1  15
ATOM     15  O   UNL     1       5.671   6.595  16.585  0.00  0.00    +0.000 OA
BRANCH  15  16
ATOM     16  C   UNL     1       5.559   5.911  15.331  0.00  0.00    +0.000 C 
BRANCH  16  18
ATOM     17  O   UNL     1       7.827   4.429  16.204  0.00  0.00    +0.000 OA
ATOM     18  P   UNL     1       6.969   4.853  15.060  0.00  0.00    +0.000 P 
BRANCH  18  19
ATOM     19  O   UNL     1       7.823   5.490  13.861  0.00  0.00    +0.000 OA
ATOM     20  H   UNL     1       7.375   6.242  13.433  0.00  0.00    +0.000 HD
ENDBRANCH  18  19
BRANCH  18  21
ATOM     21  O   UNL     1       6.354   3.570  14.305  0.00  0.00    +0.000 OA
ATOM     22  H   UNL     1       5.424   3.688  14.040  0.00  0.00    +0.000 HD
ENDBRANCH  18  21
ENDBRANCH  16  18
ENDBRANCH  15  16
ENDBRANCH   1  15
TORSDOF 5
ENDMDL
MODEL 4
REMARK VINA RESULT:      -7.4      0.688      1.114
REMARK  Name = 
REMARK  5 active torsions:
REMARK  status: ('A' for Active; 'I' for Inactive)
REMARK    1  A    between atoms: P_2  and  O_3
REMARK    2  A    between atoms: P_2  and  O_4
REMARK    3  A    between atoms: P_2  and  C_5
REMARK    4  A    between atoms: C_5  and  O_6
REMARK    5  A    between atoms: O_6  and  C_7
REMARK                            x       y       z     vdW  Elec       q    Type
REMARK                         _______ _______ _______ _____ _____    ______ ____
ROOT
ATOM      1  C   UNL     1       3.670   5.523  18.147  0.00  0.00    +0.000 A 
ATOM      2  C   UNL     1       3.693   4.451  19.047  0.00  0.00    +0.000 A 
ATOM      3  C   UNL     1       3.000   4.520  20.243  0.00  0.00    +0.000 A 
ATOM      4  C   UNL     1       2.282   5.671  20.562  0.00  0.00    +0.000 A 
ATOM      5  C   UNL     1       2.240   6.795  19.709  0.00  0.00    +0.000 A 
ATOM      6  C   UNL     1       2.955   6.710  18.477  0.00  0.00    +0.000 A 
ATOM      7  C   UNL     1       2.933   7.828  17.624  0.00  0.00    +0.000 A 
ATOM      8  C   UNL     1       2.250   8.997  17.965  0.00  0.00    +0.000 A 
ATOM      9  C   UNL     1       1.543   9.094  19.166  0.00  0.00    +0.000 A 
ATOM     10  C   UNL     1       0.867  10.287  19.487  0.00  0.00    +0.000 A 
ATOM     11  C   UNL     1       0.145  10.415  20.671  0.00  0.00    +0.000 A 
ATOM     12  C   UNL     1       0.086   9.346  21.551  0.00  0.00    +0.000 A 
ATOM     13  C   UNL     1       0.759   8.161  21.246  0.00  0.00    +0.000 A 
ATOM     14  C   UNL     1       1.515   7.994  20.054  0.00  0.00    +0.000 A 
ENDROOT
BRANCH   1  15
ATOM     15  O   UNL     1       4.313   5.484  16.920  0.00  0.00    +0.000 OA
BRANCH  15  16
ATOM     16  C   UNL     1       4.952   4.242  16.599  0.00  0.00    +0.000 C 
BRANCH  16  18
ATOM     17  O   UNL     1       7.782   4.450  16.381  0.00  0.00    +0.000 OA
ATOM     18  P   UNL     1       6.461   4.524  15.692  0.00  0.00    +0.000 P 
BRANCH  18  19
ATOM     19  O   UNL     1       6.278   5.889  14.870  0.00  0.00    +0.000 OA
ATOM     20  H   UNL     1       7.098   6.411  14.810  0.00  0.00    +0.000 HD
ENDBRANCH  18  19
BRANCH  18  21
ATOM     21  O   UNL     1       6.392   3.465  14.481  0.00  0.00    +0.000 OA
ATOM     22  H   UNL     1       6.898   3.743  13.697  0.00  0.00    +0.000 HD
ENDBRANCH  18  21
ENDBRANCH  16  18
ENDBRANCH  15  16
ENDBRANCH   1  15
TORSDOF 5
ENDMDL
MODEL 5
REMARK VINA RESULT:      -7.4      0.860      1.045
REMARK  Name = 
REMARK  5 active torsions:
REMARK  status: ('A' for Active; 'I' for Inactive)
REMARK    1  A    between atoms: P_2  and  O_3
REMARK    2  A    between atoms: P_2  and  O_4
REMARK    3  A    between atoms: P_2  and  C_5
REMARK    4  A    between atoms: C_5  and  O_6
REMARK    5  A    between atoms: O_6  and  C_7
REMARK                            x       y       z     vdW  Elec       q    Type
REMARK                         _______ _______ _______ _____ _____    ______ ____
ROOT
ATOM      1  C   UNL     1       3.510   5.782  18.202  0.00  0.00    +0.000 A 
ATOM      2  C   UNL     1       3.534   4.712  19.105  0.00  0.00    +0.000 A 
ATOM      3  C   UNL     1       2.838   4.782  20.299  0.00  0.00    +0.000 A 
ATOM      4  C   UNL     1       2.116   5.932  20.613  0.00  0.00    +0.000 A 
ATOM      5  C   UNL     1       2.072   7.053  19.757  0.00  0.00    +0.000 A 
ATOM      6  C   UNL     1       2.790   6.967  18.527  0.00  0.00    +0.000 A 
ATOM      7  C   UNL     1       2.767   8.083  17.671  0.00  0.00    +0.000 A 
ATOM      8  C   UNL     1       2.079   9.250  18.007  0.00  0.00    +0.000 A 
ATOM      9  C   UNL     1       1.369   9.348  19.206  0.00  0.00    +0.000 A 
ATOM     10  C   UNL     1       0.688  10.540  19.523  0.00  0.00    +0.000 A 
ATOM     11  C   UNL     1      -0.037  10.668  20.705  0.00  0.00    +0.000 A 
ATOM     12  C   UNL     1      -0.095   9.601  21.587  0.00  0.00    +0.000 A 
ATOM     13  C   UNL     1       0.583   8.418  21.287  0.00  0.00    +0.000 A 
ATOM     14  C   UNL     1       1.342   8.250  20.097  0.00  0.00    +0.000 A 
ENDROOT
BRANCH   1  15
ATOM     15  O   UNL     1       4.156   5.741  16.976  0.00  0.00    +0.000 OA
BRANCH  15  16
ATOM     16  C   UNL     1       4.956   4.576  16.740  0.00  0.00    +0.000 C 
BRANCH  16  18
ATOM     17  O   UNL     1       7.582   4.794  15.665  0.00  0.00    +0.000 OA
ATOM     18  P   UNL     1       6.692   4.969  16.849  0.00  0.00    +0.000 P 
BRANCH  18  19
ATOM     19  O   UNL     1       7.267   4.240  18.157  0.00  0.00    +0.000 OA
ATOM     20  H   UNL     1       8.240   4.225  18.188  0.00  0.00    +0.000 HD
ENDBRANCH  18  19
BRANCH  18  21
ATOM     21  O   UNL     1       6.715   6.497  17.357  0.00  0.00    +0.000 OA
ATOM     22  H   UNL     1       7.611   6.876  17.397  0.00  0.00    +0.000 HD
ENDBRANCH  18  21
ENDBRANCH  16  18
ENDBRANCH  15  16
ENDBRANCH   1  15
TORSDOF 5
ENDMDL
MODEL 6
REMARK VINA RESULT:      -7.3      2.946      4.733
REMARK  Name = 
REMARK  5 active torsions:
REMARK  status: ('A' for Active; 'I' for Inactive)
REMARK    1  A    between atoms: P_2  and  O_3
REMARK    2  A    between atoms: P_2  and  O_4
REMARK    3  A    between atoms: P_2  and  C_5
REMARK    4  A    between atoms: C_5  and  O_6
REMARK    5  A    between atoms: O_6  and  C_7
REMARK                            x       y       z     vdW  Elec       q    Type
REMARK                         _______ _______ _______ _____ _____    ______ ____
ROOT
ATOM      1  C   UNL     1       5.229   4.457  15.809  0.00  0.00    +0.000 A 
ATOM      2  C   UNL     1       5.456   5.832  15.670  0.00  0.00    +0.000 A 
ATOM      3  C   UNL     1       4.858   6.736  16.530  0.00  0.00    +0.000 A 
ATOM      4  C   UNL     1       4.012   6.278  17.538  0.00  0.00    +0.000 A 
ATOM      5  C   UNL     1       3.723   4.908  17.716  0.00  0.00    +0.000 A 
ATOM      6  C   UNL     1       4.349   3.985  16.825  0.00  0.00    +0.000 A 
ATOM      7  C   UNL     1       4.058   2.618  16.981  0.00  0.00    +0.000 A 
ATOM      8  C   UNL     1       3.176   2.164  17.963  0.00  0.00    +0.000 A 
ATOM      9  C   UNL     1       2.558   3.054  18.844  0.00  0.00    +0.000 A 
ATOM     10  C   UNL     1       1.667   2.570  19.822  0.00  0.00    +0.000 A 
ATOM     11  C   UNL     1       1.042   3.429  20.722  0.00  0.00    +0.000 A 
ATOM     12  C   UNL     1       1.303   4.788  20.659  0.00  0.00    +0.000 A 
ATOM     13  C   UNL     1       2.177   5.280  19.688  0.00  0.00    +0.000 A 
ATOM     14  C   UNL     1       2.828   4.439  18.745  0.00  0.00    +0.000 A 
ENDROOT
BRANCH   1  15
ATOM     15  O   UNL     1       5.838   3.512  15.000  0.00  0.00    +0.000 OA
BRANCH  15  16
ATOM     16  C   UNL     1       6.726   4.035  14.003  0.00  0.00    +0.000 C 
BRANCH  16  18
ATOM     17  O   UNL     1       4.717   3.693  12.017  0.00  0.00    +0.000 OA
ATOM     18  P   UNL     1       6.164   3.603  12.367  0.00  0.00    +0.000 P 
BRANCH  18  19
ATOM     19  O   UNL     1       6.790   2.171  12.008  0.00  0.00    +0.000 OA
ATOM     20  H   UNL     1       7.764   2.177  11.978  0.00  0.00    +0.000 HD
ENDBRANCH  18  19
BRANCH  18  21
ATOM     21  O   UNL     1       7.043   4.537  11.394  0.00  0.00    +0.000 OA
ATOM     22  H   UNL     1       7.707   4.041  10.881  0.00  0.00    +0.000 HD
ENDBRANCH  18  21
ENDBRANCH  16  18
ENDBRANCH  15  16
ENDBRANCH   1  15
TORSDOF 5
ENDMDL
MODEL 7
REMARK VINA RESULT:      -7.2      0.969      1.131
REMARK  Name = 
REMARK  5 active torsions:
REMARK  status: ('A' for Active; 'I' for Inactive)
REMARK    1  A    between atoms: P_2  and  O_3
REMARK    2  A    between atoms: P_2  and  O_4
REMARK    3  A    between atoms: P_2  and  C_5
REMARK    4  A    between atoms: C_5  and  O_6
REMARK    5  A    between atoms: O_6  and  C_7
REMARK                            x       y       z     vdW  Elec       q    Type
REMARK                         _______ _______ _______ _____ _____    ______ ____
ROOT
ATOM      1  C   UNL     1       3.553   5.146  19.008  0.00  0.00    +0.000 A 
ATOM      2  C   UNL     1       3.177   4.333  20.085  0.00  0.00    +0.000 A 
ATOM      3  C   UNL     1       2.238   4.769  21.002  0.00  0.00    +0.000 A 
ATOM      4  C   UNL     1       1.668   6.033  20.863  0.00  0.00    +0.000 A 
ATOM      5  C   UNL     1       2.023   6.909  19.815  0.00  0.00    +0.000 A 
ATOM      6  C   UNL     1       2.989   6.446  18.872  0.00  0.00    +0.000 A 
ATOM      7  C   UNL     1       3.362   7.315  17.831  0.00  0.00    +0.000 A 
ATOM      8  C   UNL     1       2.824   8.597  17.717  0.00  0.00    +0.000 A 
ATOM      9  C   UNL     1       1.874   9.064  18.630  0.00  0.00    +0.000 A 
ATOM     10  C   UNL     1       1.350  10.364  18.495  0.00  0.00    +0.000 A 
ATOM     11  C   UNL     1       0.396  10.857  19.382  0.00  0.00    +0.000 A 
ATOM     12  C   UNL     1      -0.052  10.051  20.415  0.00  0.00    +0.000 A 
ATOM     13  C   UNL     1       0.466   8.763  20.563  0.00  0.00    +0.000 A 
ATOM     14  C   UNL     1       1.448   8.226  19.687  0.00  0.00    +0.000 A 
ENDROOT
BRANCH   1  15
ATOM     15  O   UNL     1       4.457   4.736  18.041  0.00  0.00    +0.000 OA
BRANCH  15  16
ATOM     16  C   UNL     1       5.830   4.710  18.452  0.00  0.00    +0.000 C 
BRANCH  16  18
ATOM     17  O   UNL     1       7.254   6.038  16.377  0.00  0.00    +0.000 OA
ATOM     18  P   UNL     1       6.914   4.744  17.037  0.00  0.00    +0.000 P 
BRANCH  18  19
ATOM     19  O   UNL     1       6.376   3.650  15.995  0.00  0.00    +0.000 OA
ATOM     20  H   UNL     1       6.287   2.763  16.386  0.00  0.00    +0.000 HD
ENDBRANCH  18  19
BRANCH  18  21
ATOM     21  O   UNL     1       8.247   4.000  17.549  0.00  0.00    +0.000 OA
ATOM     22  H   UNL     1       8.153   3.607  18.436  0.00  0.00    +0.000 HD
ENDBRANCH  18  21
ENDBRANCH  16  18
ENDBRANCH  15  16
ENDBRANCH   1  15
TORSDOF 5
ENDMDL
MODEL 8
REMARK VINA RESULT:      -7.2      4.193      6.769
REMARK  Name = 
REMARK  5 active torsions:
REMARK  status: ('A' for Active; 'I' for Inactive)
REMARK    1  A    between atoms: P_2  and  O_3
REMARK    2  A    between atoms: P_2  and  O_4
REMARK    3  A    between atoms: P_2  and  C_5
REMARK    4  A    between atoms: C_5  and  O_6
REMARK    5  A    between atoms: O_6  and  C_7
REMARK                            x       y       z     vdW  Elec       q    Type
REMARK                         _______ _______ _______ _____ _____    ______ ____
ROOT
ATOM      1  C   UNL     1       2.153   6.628  19.977  0.00  0.00    +0.000 A 
ATOM      2  C   UNL     1       1.759   5.507  20.718  0.00  0.00    +0.000 A 
ATOM      3  C   UNL     1       2.203   4.243  20.373  0.00  0.00    +0.000 A 
ATOM      4  C   UNL     1       3.040   4.080  19.271  0.00  0.00    +0.000 A 
ATOM      5  C   UNL     1       3.453   5.166  18.470  0.00  0.00    +0.000 A 
ATOM      6  C   UNL     1       2.992   6.465  18.838  0.00  0.00    +0.000 A 
ATOM      7  C   UNL     1       3.384   7.555  18.040  0.00  0.00    +0.000 A 
ATOM      8  C   UNL     1       4.187   7.385  16.911  0.00  0.00    +0.000 A 
ATOM      9  C   UNL     1       4.649   6.120  16.539  0.00  0.00    +0.000 A 
ATOM     10  C   UNL     1       5.453   5.976  15.391  0.00  0.00    +0.000 A 
ATOM     11  C   UNL     1       5.938   4.731  14.998  0.00  0.00    +0.000 A 
ATOM     12  C   UNL     1       5.627   3.611  15.751  0.00  0.00    +0.000 A 
ATOM     13  C   UNL     1       4.824   3.741  16.886  0.00  0.00    +0.000 A 
ATOM     14  C   UNL     1       4.301   4.990  17.316  0.00  0.00    +0.000 A 
ENDROOT
BRANCH   1  15
ATOM     15  O   UNL     1       1.768   7.917  20.310  0.00  0.00    +0.000 OA
BRANCH  15  16
ATOM     16  C   UNL     1       0.706   8.016  21.268  0.00  0.00    +0.000 C 
BRANCH  16  18
ATOM     17  O   UNL     1       0.765  10.832  21.675  0.00  0.00    +0.000 OA
ATOM     18  P   UNL     1       0.898   9.474  22.277  0.00  0.00    +0.000 P 
BRANCH  18  19
ATOM     19  O   UNL     1       2.261   9.306  23.106  0.00  0.00    +0.000 OA
ATOM     20  H   UNL     1       2.960   9.920  22.819  0.00  0.00    +0.000 HD
ENDBRANCH  18  19
BRANCH  18  21
ATOM     21  O   UNL     1      -0.171   9.270  23.463  0.00  0.00    +0.000 OA
ATOM     22  H   UNL     1      -0.036   8.446  23.966  0.00  0.00    +0.000 HD
ENDBRANCH  18  21
ENDBRANCH  16  18
ENDBRANCH  15  16
ENDBRANCH   1  15
TORSDOF 5
ENDMDL
MODEL 9
REMARK VINA RESULT:      -7.2      0.993      1.435
REMARK  Name = 
REMARK  5 active torsions:
REMARK  status: ('A' for Active; 'I' for Inactive)
REMARK    1  A    between atoms: P_2  and  O_3
REMARK    2  A    between atoms: P_2  and  O_4
REMARK    3  A    between atoms: P_2  and  C_5
REMARK    4  A    between atoms: C_5  and  O_6
REMARK    5  A    between atoms: O_6  and  C_7
REMARK                            x       y       z     vdW  Elec       q    Type
REMARK                         _______ _______ _______ _____ _____    ______ ____
ROOT
ATOM      1  C   UNL     1       3.355   5.391  18.374  0.00  0.00    +0.000 A 
ATOM      2  C   UNL     1       3.294   4.385  19.347  0.00  0.00    +0.000 A 
ATOM      3  C   UNL     1       2.613   4.593  20.533  0.00  0.00    +0.000 A 
ATOM      4  C   UNL     1       1.990   5.817  20.769  0.00  0.00    +0.000 A 
ATOM      5  C   UNL     1       2.036   6.879  19.840  0.00  0.00    +0.000 A 
ATOM      6  C   UNL     1       2.739   6.651  18.619  0.00  0.00    +0.000 A 
ATOM      7  C   UNL     1       2.804   7.705  17.690  0.00  0.00    +0.000 A 
ATOM      8  C   UNL     1       2.218   8.946  17.947  0.00  0.00    +0.000 A 
ATOM      9  C   UNL     1       1.525   9.183  19.136  0.00  0.00    +0.000 A 
ATOM     10  C   UNL     1       0.948  10.446  19.373  0.00  0.00    +0.000 A 
ATOM     11  C   UNL     1       0.242  10.713  20.543  0.00  0.00    +0.000 A 
ATOM     12  C   UNL     1       0.100   9.716  21.494  0.00  0.00    +0.000 A 
ATOM     13  C   UNL     1       0.675   8.463  21.274  0.00  0.00    +0.000 A 
ATOM     14  C   UNL     1       1.411   8.153  20.099  0.00  0.00    +0.000 A 
ENDROOT
BRANCH   1  15
ATOM     15  O   UNL     1       3.989   5.214  17.154  0.00  0.00    +0.000 OA
BRANCH  15  16
ATOM     16  C   UNL     1       5.382   4.888  17.225  0.00  0.00    +0.000 C 
BRANCH  16  18
ATOM     17  O   UNL     1       7.466   5.440  15.367  0.00  0.00    +0.000 OA
ATOM     18  P   UNL     1       6.340   5.976  16.186  0.00  0.00    +0.000 P 
BRANCH  18  19
ATOM     19  O   UNL     1       6.781   7.230  17.083  0.00  0.00    +0.000 OA
ATOM     20  H   UNL     1       7.717   7.472  16.966  0.00  0.00    +0.000 HD
ENDBRANCH  18  19
BRANCH  18  21
ATOM     21  O   UNL     1       5.241   6.685  15.247  0.00  0.00    +0.000 OA
ATOM     22  H   UNL     1       4.405   6.188  15.190  0.00  0.00    +0.000 HD
ENDBRANCH  18  21
ENDBRANCH  16  18
ENDBRANCH  15  16
ENDBRANCH   1  15
TORSDOF 5
ENDMDL
