MODEL 1
REMARK VINA RESULT:      -7.3      0.000      0.000
REMARK  Name = 
REMARK  5 active torsions:
REMARK  status: ('A' for Active; 'I' for Inactive)
REMARK    1  A    between atoms: O_1  and  C_2
REMARK    2  A    between atoms: C_7  and  C_8
REMARK    3  A    between atoms: N_12  and  C_13
REMARK    4  A    between atoms: C_13  and  C_14
REMARK    5  A    between atoms: C_14  and  C_15
REMARK                            x       y       z     vdW  Elec       q    Type
REMARK                         _______ _______ _______ _____ _____    ______ ____
ROOT
ATOM      1  C   UNL     1       2.974   6.794  18.164  0.00  0.00    +0.000 A 
ATOM      2  C   UNL     1       2.608   5.449  18.212  0.00  0.00    +0.000 A 
ATOM      3  C   UNL     1       3.371   4.496  17.542  0.00  0.00    +0.000 A 
ATOM      4  C   UNL     1       4.521   4.891  16.871  0.00  0.00    +0.000 A 
ATOM      5  N   UNL     1       5.341   3.883  16.361  0.00  0.00    +0.000 N 
ATOM      6  N   UNL     1       4.876   6.188  16.780  0.00  0.00    +0.000 NA
ATOM      7  C   UNL     1       4.094   7.108  17.408  0.00  0.00    +0.000 A 
ATOM      8  H   UNL     1       4.870   3.381  15.614  0.00  0.00    +0.000 HD
ENDROOT
BRANCH   1  14
ATOM      9  C   UNL     1       0.130  10.040  22.140  0.00  0.00    +0.000 A 
ATOM     10  C   UNL     1      -0.236  10.834  21.049  0.00  0.00    +0.000 A 
ATOM     11  C   UNL     1       0.209  10.512  19.756  0.00  0.00    +0.000 A 
ATOM     12  C   UNL     1       1.021   9.381  19.601  0.00  0.00    +0.000 A 
ATOM     13  N   UNL     1       1.595   8.844  18.484  0.00  0.00    +0.000 NA
ATOM     14  C   UNL     1       2.228   7.775  18.934  0.00  0.00    +0.000 A 
ATOM     15  O   UNL     1       2.123   7.578  20.289  0.00  0.00    +0.000 OA
ATOM     16  C   UNL     1       1.346   8.620  20.711  0.00  0.00    +0.000 A 
ATOM     17  C   UNL     1       0.931   8.903  22.006  0.00  0.00    +0.000 A 
BRANCH   9  18
ATOM     18  O   UNL     1      -0.293  10.358  23.400  0.00  0.00    +0.000 OA
ATOM     19  H   UNL     1       0.454  10.284  24.015  0.00  0.00    +0.000 HD
ENDBRANCH   9  18
ENDBRANCH   1  14
BRANCH   5  20
ATOM     20  C   UNL     1       6.727   4.225  16.067  0.00  0.00    +0.000 C 
BRANCH  20  21
ATOM     21  C   UNL     1       6.888   4.671  14.610  0.00  0.00    +0.000 C 
BRANCH  21  22
ATOM     22  C   UNL     1       6.091   3.804  13.650  0.00  0.00    +0.000 C 
ATOM     23  F   UNL     1       6.750   3.732  12.461  0.00  0.00    +0.000 F 
ENDBRANCH  21  22
ENDBRANCH  20  21
ENDBRANCH   5  20
TORSDOF 5
ENDMDL
MODEL 2
REMARK VINA RESULT:      -6.9      1.884      2.159
REMARK  Name = 
REMARK  5 active torsions:
REMARK  status: ('A' for Active; 'I' for Inactive)
REMARK    1  A    between atoms: O_1  and  C_2
REMARK    2  A    between atoms: C_7  and  C_8
REMARK    3  A    between atoms: N_12  and  C_13
REMARK    4  A    between atoms: C_13  and  C_14
REMARK    5  A    between atoms: C_14  and  C_15
REMARK                            x       y       z     vdW  Elec       q    Type
REMARK                         _______ _______ _______ _____ _____    ______ ____
ROOT
ATOM      1  C   UNL     1       2.718   6.897  18.703  0.00  0.00    +0.000 A 
ATOM      2  C   UNL     1       2.611   5.576  19.141  0.00  0.00    +0.000 A 
ATOM      3  C   UNL     1       3.409   4.588  18.569  0.00  0.00    +0.000 A 
ATOM      4  C   UNL     1       4.340   4.938  17.600  0.00  0.00    +0.000 A 
ATOM      5  N   UNL     1       5.231   3.947  17.182  0.00  0.00    +0.000 N 
ATOM      6  N   UNL     1       4.437   6.199  17.136  0.00  0.00    +0.000 NA
ATOM      7  C   UNL     1       3.620   7.143  17.679  0.00  0.00    +0.000 A 
ATOM      8  H   UNL     1       4.738   3.208  16.689  0.00  0.00    +0.000 HD
ENDROOT
BRANCH   1  14
ATOM      9  C   UNL     1      -0.401  10.394  22.235  0.00  0.00    +0.000 A 
ATOM     10  C   UNL     1      -0.547  11.201  21.103  0.00  0.00    +0.000 A 
ATOM     11  C   UNL     1       0.049  10.831  19.887  0.00  0.00    +0.000 A 
ATOM     12  C   UNL     1       0.786   9.641  19.848  0.00  0.00    +0.000 A 
ATOM     13  N   UNL     1       1.469   9.049  18.823  0.00  0.00    +0.000 NA
ATOM     14  C   UNL     1       1.948   7.940  19.359  0.00  0.00    +0.000 A 
ATOM     15  O   UNL     1       1.638   7.767  20.686  0.00  0.00    +0.000 OA
ATOM     16  C   UNL     1       0.892   8.870  20.993  0.00  0.00    +0.000 A 
ATOM     17  C   UNL     1       0.321   9.198  22.216  0.00  0.00    +0.000 A 
BRANCH   9  18
ATOM     18  O   UNL     1      -0.972  10.757  23.423  0.00  0.00    +0.000 OA
ATOM     19  H   UNL     1      -1.184  11.703  23.398  0.00  0.00    +0.000 HD
ENDBRANCH   9  18
ENDBRANCH   1  14
BRANCH   5  20
ATOM     20  C   UNL     1       6.463   4.377  16.533  0.00  0.00    +0.000 C 
BRANCH  20  21
ATOM     21  C   UNL     1       7.594   4.545  17.553  0.00  0.00    +0.000 C 
BRANCH  21  22
ATOM     22  C   UNL     1       7.674   5.962  18.096  0.00  0.00    +0.000 C 
ATOM     23  F   UNL     1       8.342   5.949  19.282  0.00  0.00    +0.000 F 
ENDBRANCH  21  22
ENDBRANCH  20  21
ENDBRANCH   5  20
TORSDOF 5
ENDMDL
MODEL 3
REMARK VINA RESULT:      -6.9      4.371      8.803
REMARK  Name = 
REMARK  5 active torsions:
REMARK  status: ('A' for Active; 'I' for Inactive)
REMARK    1  A    between atoms: O_1  and  C_2
REMARK    2  A    between atoms: C_7  and  C_8
REMARK    3  A    between atoms: N_12  and  C_13
REMARK    4  A    between atoms: C_13  and  C_14
REMARK    5  A    between atoms: C_14  and  C_15
REMARK                            x       y       z     vdW  Elec       q    Type
REMARK                         _______ _______ _______ _____ _____    ______ ____
ROOT
ATOM      1  C   UNL     1       2.518   7.331  18.741  0.00  0.00    +0.000 A 
ATOM      2  C   UNL     1       2.058   8.552  18.247  0.00  0.00    +0.000 A 
ATOM      3  C   UNL     1       1.244   9.359  19.037  0.00  0.00    +0.000 A 
ATOM      4  C   UNL     1       0.939   8.961  20.333  0.00  0.00    +0.000 A 
ATOM      5  N   UNL     1       0.266   9.879  21.142  0.00  0.00    +0.000 N 
ATOM      6  N   UNL     1       1.342   7.771  20.819  0.00  0.00    +0.000 NA
ATOM      7  C   UNL     1       2.103   6.978  20.016  0.00  0.00    +0.000 A 
ATOM      8  H   UNL     1      -0.671  10.048  20.788  0.00  0.00    +0.000 HD
ENDROOT
BRANCH   1  14
ATOM      9  C   UNL     1       6.654   5.102  15.224  0.00  0.00    +0.000 A 
ATOM     10  C   UNL     1       6.025   3.877  15.466  0.00  0.00    +0.000 A 
ATOM     11  C   UNL     1       4.906   3.809  16.312  0.00  0.00    +0.000 A 
ATOM     12  C   UNL     1       4.447   4.996  16.896  0.00  0.00    +0.000 A 
ATOM     13  N   UNL     1       3.406   5.224  17.751  0.00  0.00    +0.000 NA
ATOM     14  C   UNL     1       3.437   6.530  17.948  0.00  0.00    +0.000 A 
ATOM     15  O   UNL     1       4.448   7.184  17.288  0.00  0.00    +0.000 OA
ATOM     16  C   UNL     1       5.097   6.187  16.616  0.00  0.00    +0.000 A 
ATOM     17  C   UNL     1       6.207   6.300  15.788  0.00  0.00    +0.000 A 
BRANCH   9  18
ATOM     18  O   UNL     1       7.749   5.169  14.409  0.00  0.00    +0.000 OA
ATOM     19  H   UNL     1       7.569   4.679  13.592  0.00  0.00    +0.000 HD
ENDBRANCH   9  18
ENDBRANCH   1  14
BRANCH   5  20
ATOM     20  C   UNL     1       0.332   9.682  22.584  0.00  0.00    +0.000 C 
BRANCH  20  21
ATOM     21  C   UNL     1      -0.888  10.293  23.281  0.00  0.00    +0.000 C 
BRANCH  21  22
ATOM     22  C   UNL     1      -1.351  11.576  22.612  0.00  0.00    +0.000 C 
ATOM     23  F   UNL     1      -2.244  12.206  23.423  0.00  0.00    +0.000 F 
ENDBRANCH  21  22
ENDBRANCH  20  21
ENDBRANCH   5  20
TORSDOF 5
ENDMDL
MODEL 4
REMARK VINA RESULT:      -6.9      5.609      6.948
REMARK  Name = 
REMARK  5 active torsions:
REMARK  status: ('A' for Active; 'I' for Inactive)
REMARK    1  A    between atoms: O_1  and  C_2
REMARK    2  A    between atoms: C_7  and  C_8
REMARK    3  A    between atoms: N_12  and  C_13
REMARK    4  A    between atoms: C_13  and  C_14
REMARK    5  A    between atoms: C_14  and  C_15
REMARK                            x       y       z     vdW  Elec       q    Type
REMARK                         _______ _______ _______ _____ _____    ______ ____
ROOT
ATOM      1  C   UNL     1       7.786   8.022  18.036  0.00  0.00    +0.000 A 
ATOM      2  C   UNL     1       8.212   6.842  18.647  0.00  0.00    +0.000 A 
ATOM      3  C   UNL     1       7.642   5.625  18.283  0.00  0.00    +0.000 A 
ATOM      4  C   UNL     1       6.688   5.593  17.275  0.00  0.00    +0.000 A 
ATOM      5  N   UNL     1       6.272   4.337  16.827  0.00  0.00    +0.000 N 
ATOM      6  N   UNL     1       6.234   6.721  16.694  0.00  0.00    +0.000 NA
ATOM      7  C   UNL     1       6.775   7.905  17.093  0.00  0.00    +0.000 A 
ATOM      8  H   UNL     1       5.767   3.845  17.559  0.00  0.00    +0.000 HD
ENDROOT
BRANCH   1  14
ATOM      9  C   UNL     1       9.957  13.464  18.357  0.00  0.00    +0.000 A 
ATOM     10  C   UNL     1      10.688  12.976  19.445  0.00  0.00    +0.000 A 
ATOM     11  C   UNL     1      10.541  11.641  19.856  0.00  0.00    +0.000 A 
ATOM     12  C   UNL     1       9.649  10.826  19.148  0.00  0.00    +0.000 A 
ATOM     13  N   UNL     1       9.305   9.516  19.326  0.00  0.00    +0.000 NA
ATOM     14  C   UNL     1       8.442   9.279  18.354  0.00  0.00    +0.000 A 
ATOM     15  O   UNL     1       8.177  10.359  17.549  0.00  0.00    +0.000 OA
ATOM     16  C   UNL     1       8.957  11.353  18.070  0.00  0.00    +0.000 A 
ATOM     17  C   UNL     1       9.070  12.666  17.631  0.00  0.00    +0.000 A 
BRANCH   9  18
ATOM     18  O   UNL     1      10.091  14.765  17.962  0.00  0.00    +0.000 OA
ATOM     19  H   UNL     1       9.793  15.348  18.678  0.00  0.00    +0.000 HD
ENDBRANCH   9  18
ENDBRANCH   1  14
BRANCH   5  20
ATOM     20  C   UNL     1       5.643   4.262  15.516  0.00  0.00    +0.000 C 
BRANCH  20  21
ATOM     21  C   UNL     1       6.691   4.270  14.399  0.00  0.00    +0.000 C 
BRANCH  21  22
ATOM     22  C   UNL     1       6.154   3.692  13.100  0.00  0.00    +0.000 C 
ATOM     23  F   UNL     1       7.046   3.932  12.101  0.00  0.00    +0.000 F 
ENDBRANCH  21  22
ENDBRANCH  20  21
ENDBRANCH   5  20
TORSDOF 5
ENDMDL
MODEL 5
REMARK VINA RESULT:      -6.9      4.143      8.721
REMARK  Name = 
REMARK  5 active torsions:
REMARK  status: ('A' for Active; 'I' for Inactive)
REMARK    1  A    between atoms: O_1  and  C_2
REMARK    2  A    between atoms: C_7  and  C_8
REMARK    3  A    between atoms: N_12  and  C_13
REMARK    4  A    between atoms: C_13  and  C_14
REMARK    5  A    between atoms: C_14  and  C_15
REMARK                            x       y       z     vdW  Elec       q    Type
REMARK                         _______ _______ _______ _____ _____    ______ ____
ROOT
ATOM      1  C   UNL     1       2.197   7.911  18.596  0.00  0.00    +0.000 A 
ATOM      2  C   UNL     1       1.662   8.919  17.794  0.00  0.00    +0.000 A 
ATOM      3  C   UNL     1       0.851   9.900  18.359  0.00  0.00    +0.000 A 
ATOM      4  C   UNL     1       0.623   9.892  19.729  0.00  0.00    +0.000 A 
ATOM      5  N   UNL     1      -0.053  10.986  20.272  0.00  0.00    +0.000 N 
ATOM      6  N   UNL     1       1.099   8.909  20.519  0.00  0.00    +0.000 NA
ATOM      7  C   UNL     1       1.856   7.937  19.940  0.00  0.00    +0.000 A 
ATOM      8  H   UNL     1      -1.011  11.017  19.938  0.00  0.00    +0.000 HD
ENDROOT
BRANCH   1  14
ATOM      9  C   UNL     1       6.490   4.902  15.959  0.00  0.00    +0.000 A 
ATOM     10  C   UNL     1       5.679   3.786  16.185  0.00  0.00    +0.000 A 
ATOM     11  C   UNL     1       4.446   3.927  16.842  0.00  0.00    +0.000 A 
ATOM     12  C   UNL     1       4.063   5.208  17.258  0.00  0.00    +0.000 A 
ATOM     13  N   UNL     1       2.943   5.633  17.916  0.00  0.00    +0.000 NA
ATOM     14  C   UNL     1       3.113   6.939  18.021  0.00  0.00    +0.000 A 
ATOM     15  O   UNL     1       4.288   7.407  17.487  0.00  0.00    +0.000 OA
ATOM     16  C   UNL     1       4.895   6.284  17.001  0.00  0.00    +0.000 A 
ATOM     17  C   UNL     1       6.123   6.190  16.356  0.00  0.00    +0.000 A 
BRANCH   9  18
ATOM     18  O   UNL     1       7.695   4.766  15.328  0.00  0.00    +0.000 OA
ATOM     19  H   UNL     1       8.163   5.616  15.348  0.00  0.00    +0.000 HD
ENDBRANCH   9  18
ENDBRANCH   1  14
BRANCH   5  20
ATOM     20  C   UNL     1       0.088  11.224  21.702  0.00  0.00    +0.000 C 
BRANCH  20  21
ATOM     21  C   UNL     1      -0.905  12.286  22.186  0.00  0.00    +0.000 C 
BRANCH  21  22
ATOM     22  C   UNL     1      -1.936  11.718  23.146  0.00  0.00    +0.000 C 
ATOM     23  F   UNL     1      -1.586  10.444  23.475  0.00  0.00    +0.000 F 
ENDBRANCH  21  22
ENDBRANCH  20  21
ENDBRANCH   5  20
TORSDOF 5
ENDMDL
MODEL 6
REMARK VINA RESULT:      -6.9      1.006      1.466
REMARK  Name = 
REMARK  5 active torsions:
REMARK  status: ('A' for Active; 'I' for Inactive)
REMARK    1  A    between atoms: O_1  and  C_2
REMARK    2  A    between atoms: C_7  and  C_8
REMARK    3  A    between atoms: N_12  and  C_13
REMARK    4  A    between atoms: C_13  and  C_14
REMARK    5  A    between atoms: C_14  and  C_15
REMARK                            x       y       z     vdW  Elec       q    Type
REMARK                         _______ _______ _______ _____ _____    ______ ____
ROOT
ATOM      1  C   UNL     1       2.913   6.803  18.309  0.00  0.00    +0.000 A 
ATOM      2  C   UNL     1       2.611   5.442  18.244  0.00  0.00    +0.000 A 
ATOM      3  C   UNL     1       3.403   4.589  17.480  0.00  0.00    +0.000 A 
ATOM      4  C   UNL     1       4.519   5.096  16.827  0.00  0.00    +0.000 A 
ATOM      5  N   UNL     1       5.375   4.178  16.217  0.00  0.00    +0.000 N 
ATOM      6  N   UNL     1       4.811   6.412  16.845  0.00  0.00    +0.000 NA
ATOM      7  C   UNL     1       4.001   7.235  17.565  0.00  0.00    +0.000 A 
ATOM      8  H   UNL     1       4.912   3.721  15.437  0.00  0.00    +0.000 HD
ENDROOT
BRANCH   1  14
ATOM      9  C   UNL     1      -0.227  11.024  20.908  0.00  0.00    +0.000 A 
ATOM     10  C   UNL     1      -0.065  10.259  22.068  0.00  0.00    +0.000 A 
ATOM     11  C   UNL     1       0.642   9.047  22.025  0.00  0.00    +0.000 A 
ATOM     12  C   UNL     1       1.174   8.636  20.796  0.00  0.00    +0.000 A 
ATOM     13  N   UNL     1       1.887   7.519  20.463  0.00  0.00    +0.000 NA
ATOM     14  C   UNL     1       2.138   7.676  19.175  0.00  0.00    +0.000 A 
ATOM     15  O   UNL     1       1.621   8.823  18.627  0.00  0.00    +0.000 OA
ATOM     16  C   UNL     1       0.997   9.434  19.679  0.00  0.00    +0.000 A 
ATOM     17  C   UNL     1       0.304  10.638  19.675  0.00  0.00    +0.000 A 
BRANCH   9  18
ATOM     18  O   UNL     1      -0.924  12.199  20.945  0.00  0.00    +0.000 OA
ATOM     19  H   UNL     1      -0.303  12.940  20.875  0.00  0.00    +0.000 HD
ENDBRANCH   9  18
ENDBRANCH   1  14
BRANCH   5  20
ATOM     20  C   UNL     1       6.736   4.611  15.930  0.00  0.00    +0.000 C 
BRANCH  20  21
ATOM     21  C   UNL     1       6.980   4.704  14.421  0.00  0.00    +0.000 C 
BRANCH  21  22
ATOM     22  C   UNL     1       5.999   3.861  13.625  0.00  0.00    +0.000 C 
ATOM     23  F   UNL     1       6.638   3.325  12.549  0.00  0.00    +0.000 F 
ENDBRANCH  21  22
ENDBRANCH  20  21
ENDBRANCH   5  20
TORSDOF 5
ENDMDL
MODEL 7
REMARK VINA RESULT:      -6.8      2.378      2.950
REMARK  Name = 
REMARK  5 active torsions:
REMARK  status: ('A' for Active; 'I' for Inactive)
REMARK    1  A    between atoms: O_1  and  C_2
REMARK    2  A    between atoms: C_7  and  C_8
REMARK    3  A    between atoms: N_12  and  C_13
REMARK    4  A    between atoms: C_13  and  C_14
REMARK    5  A    between atoms: C_14  and  C_15
REMARK                            x       y       z     vdW  Elec       q    Type
REMARK                         _______ _______ _______ _____ _____    ______ ____
ROOT
ATOM      1  C   UNL     1       2.235   7.489  19.334  0.00  0.00    +0.000 A 
ATOM      2  C   UNL     1       2.467   6.153  19.663  0.00  0.00    +0.000 A 
ATOM      3  C   UNL     1       3.332   5.386  18.887  0.00  0.00    +0.000 A 
ATOM      4  C   UNL     1       3.995   5.975  17.818  0.00  0.00    +0.000 A 
ATOM      5  N   UNL     1       4.976   5.216  17.177  0.00  0.00    +0.000 N 
ATOM      6  N   UNL     1       3.760   7.252  17.458  0.00  0.00    +0.000 NA
ATOM      7  C   UNL     1       2.881   7.974  18.206  0.00  0.00    +0.000 A 
ATOM      8  H   UNL     1       4.560   4.419  16.704  0.00  0.00    +0.000 HD
ENDROOT
BRANCH   1  14
ATOM      9  C   UNL     1      -1.189  11.500  21.907  0.00  0.00    +0.000 A 
ATOM     10  C   UNL     1      -0.979  10.753  23.071  0.00  0.00    +0.000 A 
ATOM     11  C   UNL     1      -0.191   9.591  23.035  0.00  0.00    +0.000 A 
ATOM     12  C   UNL     1       0.370   9.212  21.809  0.00  0.00    +0.000 A 
ATOM     13  N   UNL     1       1.158   8.144  21.482  0.00  0.00    +0.000 NA
ATOM     14  C   UNL     1       1.401   8.311  20.194  0.00  0.00    +0.000 A 
ATOM     15  O   UNL     1       0.808   9.419  19.640  0.00  0.00    +0.000 OA
ATOM     16  C   UNL     1       0.143   9.991  20.687  0.00  0.00    +0.000 A 
ATOM     17  C   UNL     1      -0.631  11.145  20.676  0.00  0.00    +0.000 A 
BRANCH   9  18
ATOM     18  O   UNL     1      -1.964  12.625  21.937  0.00  0.00    +0.000 OA
ATOM     19  H   UNL     1      -2.353  12.767  21.060  0.00  0.00    +0.000 HD
ENDBRANCH   9  18
ENDBRANCH   1  14
BRANCH   5  20
ATOM     20  C   UNL     1       5.968   5.929  16.383  0.00  0.00    +0.000 C 
BRANCH  20  21
ATOM     21  C   UNL     1       7.273   6.113  17.166  0.00  0.00    +0.000 C 
BRANCH  21  22
ATOM     22  C   UNL     1       7.515   7.563  17.550  0.00  0.00    +0.000 C 
ATOM     23  F   UNL     1       8.464   7.615  18.524  0.00  0.00    +0.000 F 
ENDBRANCH  21  22
ENDBRANCH  20  21
ENDBRANCH   5  20
TORSDOF 5
ENDMDL
MODEL 8
REMARK VINA RESULT:      -6.8      4.540      7.695
REMARK  Name = 
REMARK  5 active torsions:
REMARK  status: ('A' for Active; 'I' for Inactive)
REMARK    1  A    between atoms: O_1  and  C_2
REMARK    2  A    between atoms: C_7  and  C_8
REMARK    3  A    between atoms: N_12  and  C_13
REMARK    4  A    between atoms: C_13  and  C_14
REMARK    5  A    between atoms: C_14  and  C_15
REMARK                            x       y       z     vdW  Elec       q    Type
REMARK                         _______ _______ _______ _____ _____    ______ ____
ROOT
ATOM      1  C   UNL     1       1.881   7.881  19.401  0.00  0.00    +0.000 A 
ATOM      2  C   UNL     1       2.181   8.338  18.117  0.00  0.00    +0.000 A 
ATOM      3  C   UNL     1       1.882   9.650  17.758  0.00  0.00    +0.000 A 
ATOM      4  C   UNL     1       1.331  10.507  18.701  0.00  0.00    +0.000 A 
ATOM      5  N   UNL     1       1.207  11.852  18.348  0.00  0.00    +0.000 N 
ATOM      6  N   UNL     1       0.999  10.080  19.936  0.00  0.00    +0.000 NA
ATOM      7  C   UNL     1       1.263   8.783  20.254  0.00  0.00    +0.000 A 
ATOM      8  H   UNL     1       0.532  11.965  17.598  0.00  0.00    +0.000 HD
ENDROOT
BRANCH   1  14
ATOM      9  C   UNL     1       4.192   2.540  20.151  0.00  0.00    +0.000 A 
ATOM     10  C   UNL     1       3.179   2.370  21.100  0.00  0.00    +0.000 A 
ATOM     11  C   UNL     1       2.274   3.410  21.365  0.00  0.00    +0.000 A 
ATOM     12  C   UNL     1       2.418   4.608  20.653  0.00  0.00    +0.000 A 
ATOM     13  N   UNL     1       1.700   5.769  20.709  0.00  0.00    +0.000 NA
ATOM     14  C   UNL     1       2.272   6.540  19.801  0.00  0.00    +0.000 A 
ATOM     15  O   UNL     1       3.340   5.967  19.156  0.00  0.00    +0.000 OA
ATOM     16  C   UNL     1       3.429   4.723  19.714  0.00  0.00    +0.000 A 
ATOM     17  C   UNL     1       4.347   3.722  19.422  0.00  0.00    +0.000 A 
BRANCH   9  18
ATOM     18  O   UNL     1       5.081   1.533  19.899  0.00  0.00    +0.000 OA
ATOM     19  H   UNL     1       5.944   1.768  20.274  0.00  0.00    +0.000 HD
ENDBRANCH   9  18
ENDBRANCH   1  14
BRANCH   5  20
ATOM     20  C   UNL     1       1.066  12.822  19.426  0.00  0.00    +0.000 C 
BRANCH  20  21
ATOM     21  C   UNL     1       2.333  13.672  19.573  0.00  0.00    +0.000 C 
BRANCH  21  22
ATOM     22  C   UNL     1       2.882  14.124  18.230  0.00  0.00    +0.000 C 
ATOM     23  F   UNL     1       3.348  15.398  18.343  0.00  0.00    +0.000 F 
ENDBRANCH  21  22
ENDBRANCH  20  21
ENDBRANCH   5  20
TORSDOF 5
ENDMDL
MODEL 9
REMARK VINA RESULT:      -6.8      4.736      8.033
REMARK  Name = 
REMARK  5 active torsions:
REMARK  status: ('A' for Active; 'I' for Inactive)
REMARK    1  A    between atoms: O_1  and  C_2
REMARK    2  A    between atoms: C_7  and  C_8
REMARK    3  A    between atoms: N_12  and  C_13
REMARK    4  A    between atoms: C_13  and  C_14
REMARK    5  A    between atoms: C_14  and  C_15
REMARK                            x       y       z     vdW  Elec       q    Type
REMARK                         _______ _______ _______ _____ _____    ______ ____
ROOT
ATOM      1  C   UNL     1       1.858   7.975  19.419  0.00  0.00    +0.000 A 
ATOM      2  C   UNL     1       2.194   8.447  18.150  0.00  0.00    +0.000 A 
ATOM      3  C   UNL     1       1.899   9.761  17.796  0.00  0.00    +0.000 A 
ATOM      4  C   UNL     1       1.315  10.606  18.731  0.00  0.00    +0.000 A 
ATOM      5  N   UNL     1       1.196  11.954  18.388  0.00  0.00    +0.000 N 
ATOM      6  N   UNL     1       0.948  10.164  19.950  0.00  0.00    +0.000 NA
ATOM      7  C   UNL     1       1.209   8.865  20.262  0.00  0.00    +0.000 A 
ATOM      8  H   UNL     1       0.543  12.071  17.618  0.00  0.00    +0.000 HD
ENDROOT
BRANCH   1  14
ATOM      9  C   UNL     1       4.142   2.621  20.156  0.00  0.00    +0.000 A 
ATOM     10  C   UNL     1       3.133   2.456  21.110  0.00  0.00    +0.000 A 
ATOM     11  C   UNL     1       2.234   3.501  21.379  0.00  0.00    +0.000 A 
ATOM     12  C   UNL     1       2.382   4.698  20.667  0.00  0.00    +0.000 A 
ATOM     13  N   UNL     1       1.671   5.863  20.727  0.00  0.00    +0.000 NA
ATOM     14  C   UNL     1       2.243   6.632  19.817  0.00  0.00    +0.000 A 
ATOM     15  O   UNL     1       3.305   6.053  19.167  0.00  0.00    +0.000 OA
ATOM     16  C   UNL     1       3.389   4.808  19.724  0.00  0.00    +0.000 A 
ATOM     17  C   UNL     1       4.301   3.802  19.428  0.00  0.00    +0.000 A 
BRANCH   9  18
ATOM     18  O   UNL     1       5.025   1.609  19.900  0.00  0.00    +0.000 OA
ATOM     19  H   UNL     1       5.779   1.683  20.506  0.00  0.00    +0.000 HD
ENDBRANCH   9  18
ENDBRANCH   1  14
BRANCH   5  20
ATOM     20  C   UNL     1       1.018  12.912  19.471  0.00  0.00    +0.000 C 
BRANCH  20  21
ATOM     21  C   UNL     1       1.531  14.299  19.071  0.00  0.00    +0.000 C 
BRANCH  21  22
ATOM     22  C   UNL     1       0.494  15.385  19.302  0.00  0.00    +0.000 C 
ATOM     23  F   UNL     1      -0.383  15.395  18.262  0.00  0.00    +0.000 F 
ENDBRANCH  21  22
ENDBRANCH  20  21
ENDBRANCH   5  20
TORSDOF 5
ENDMDL
