MODEL 1
REMARK VINA RESULT:      -7.1      0.000      0.000
REMARK  Name = 
REMARK  7 active torsions:
REMARK  status: ('A' for Active; 'I' for Inactive)
REMARK    1  A    between atoms: C_1  and  S_2
REMARK    2  A    between atoms: S_2  and  C_3
REMARK    3  A    between atoms: N_5  and  C1*_6
REMARK    4  A    between atoms: C4*_8  and  C5*_9
REMARK    5  A    between atoms: C5*_9  and  O5*_10
REMARK    6  A    between atoms: C3*_11  and  O3*_12
REMARK    7  A    between atoms: C2*_13  and  O2*_14
REMARK                            x       y       z     vdW  Elec       q    Type
REMARK                         _______ _______ _______ _____ _____    ______ ____
ROOT
ATOM      1  C   UNL     1       5.058   4.574  16.600  0.00  0.00    +0.000 A 
ATOM      2  N   UNL     1       4.180   3.883  17.339  0.00  0.00    +0.000 NA
ATOM      3  N   UNL     1       4.619   4.052  18.611  0.00  0.00    +0.000 N 
ATOM      4  C   UNL     1       5.759   4.808  18.680  0.00  0.00    +0.000 A 
ATOM      5  N   UNL     1       6.432   5.146  19.811  0.00  0.00    +0.000 NA
ATOM      6  C   UNL     1       7.485   5.869  19.573  0.00  0.00    +0.000 A 
ATOM      7  N   UNL     1       7.904   6.272  18.323  0.00  0.00    +0.000 N 
ATOM      8  C   UNL     1       7.226   5.970  17.151  0.00  0.00    +0.000 A 
ATOM      9  O   UNL     1       7.604   6.376  16.066  0.00  0.00    +0.000 OA
ATOM     10  C   UNL     1       6.062   5.158  17.383  0.00  0.00    +0.000 A 
ATOM     11  H   UNL     1       8.729   6.844  18.213  0.00  0.00    +0.000 HD
ENDROOT
BRANCH   3  12
ATOM     12  C1* UNL     1       3.845   3.540  19.733  0.00  0.00    +0.000 C 
ATOM     13  O4* UNL     1       3.378   2.196  19.447  0.00  0.00    +0.000 OA
ATOM     14  C4* UNL     1       1.972   2.111  19.789  0.00  0.00    +0.000 C 
ATOM     15  C3* UNL     1       1.630   3.382  20.562  0.00  0.00    +0.000 C 
ATOM     16  C2* UNL     1       2.625   4.405  20.042  0.00  0.00    +0.000 C 
BRANCH  15  17
ATOM     17  O3* UNL     1       1.857   3.213  21.975  0.00  0.00    +0.000 OA
ATOM     18  H3* UNL     1       1.757   2.271  22.202  0.00  0.00    +0.000 HD
ENDBRANCH  15  17
BRANCH  16  19
ATOM     19  O2* UNL     1       2.902   5.412  21.017  0.00  0.00    +0.000 OA
ATOM     20  H2* UNL     1       3.878   5.446  21.109  0.00  0.00    +0.000 HD
ENDBRANCH  16  19
BRANCH  14  21
ATOM     21  C5* UNL     1       1.152   1.932  18.509  0.00  0.00    +0.000 C 
BRANCH  21  22
ATOM     22  O5* UNL     1       2.007   1.867  17.365  0.00  0.00    +0.000 OA
ATOM     23  H5* UNL     1       1.830   1.015  16.922  0.00  0.00    +0.000 HD
ENDBRANCH  21  22
ENDBRANCH  14  21
ENDBRANCH   3  12
BRANCH   1  25
ATOM     24  C   UNL     1       6.399   3.807  14.339  0.00  0.00    +0.000 C 
ATOM     25  S   UNL     1       4.892   4.661  14.864  0.00  0.00    +0.000 S 
ENDBRANCH   1  25
TORSDOF 6
ENDMDL
MODEL 2
REMARK VINA RESULT:      -7.0      2.527      6.149
REMARK  Name = 
REMARK  7 active torsions:
REMARK  status: ('A' for Active; 'I' for Inactive)
REMARK    1  A    between atoms: C_1  and  S_2
REMARK    2  A    between atoms: S_2  and  C_3
REMARK    3  A    between atoms: N_5  and  C1*_6
REMARK    4  A    between atoms: C4*_8  and  C5*_9
REMARK    5  A    between atoms: C5*_9  and  O5*_10
REMARK    6  A    between atoms: C3*_11  and  O3*_12
REMARK    7  A    between atoms: C2*_13  and  O2*_14
REMARK                            x       y       z     vdW  Elec       q    Type
REMARK                         _______ _______ _______ _____ _____    ______ ____
ROOT
ATOM      1  C   UNL     1       2.707   5.313  19.675  0.00  0.00    +0.000 A 
ATOM      2  N   UNL     1       3.847   5.756  19.129  0.00  0.00    +0.000 NA
ATOM      3  N   UNL     1       4.306   4.693  18.423  0.00  0.00    +0.000 N 
ATOM      4  C   UNL     1       3.494   3.595  18.533  0.00  0.00    +0.000 A 
ATOM      5  N   UNL     1       3.691   2.387  17.944  0.00  0.00    +0.000 NA
ATOM      6  C   UNL     1       2.759   1.529  18.230  0.00  0.00    +0.000 A 
ATOM      7  N   UNL     1       1.671   1.780  19.040  0.00  0.00    +0.000 N 
ATOM      8  C   UNL     1       1.423   3.010  19.635  0.00  0.00    +0.000 A 
ATOM      9  O   UNL     1       0.431   3.208  20.312  0.00  0.00    +0.000 OA
ATOM     10  C   UNL     1       2.448   3.977  19.344  0.00  0.00    +0.000 A 
ATOM     11  H   UNL     1       0.978   1.067  19.212  0.00  0.00    +0.000 HD
ENDROOT
BRANCH   3  12
ATOM     12  C1* UNL     1       5.485   4.821  17.578  0.00  0.00    +0.000 C 
ATOM     13  O4* UNL     1       6.673   4.429  18.314  0.00  0.00    +0.000 OA
ATOM     14  C4* UNL     1       7.699   5.430  18.106  0.00  0.00    +0.000 C 
ATOM     15  C3* UNL     1       7.206   6.340  16.984  0.00  0.00    +0.000 C 
ATOM     16  C2* UNL     1       5.693   6.250  17.081  0.00  0.00    +0.000 C 
BRANCH  15  17
ATOM     17  O3* UNL     1       7.604   5.842  15.693  0.00  0.00    +0.000 OA
ATOM     18  H3* UNL     1       7.393   4.892  15.640  0.00  0.00    +0.000 HD
ENDBRANCH  15  17
BRANCH  16  19
ATOM     19  O2* UNL     1       5.070   6.484  15.815  0.00  0.00    +0.000 OA
ATOM     20  H2* UNL     1       4.485   5.715  15.650  0.00  0.00    +0.000 HD
ENDBRANCH  16  19
BRANCH  14  21
ATOM     21  C5* UNL     1       7.960   6.166  19.423  0.00  0.00    +0.000 C 
BRANCH  21  22
ATOM     22  O5* UNL     1       8.154   5.238  20.492  0.00  0.00    +0.000 OA
ATOM     23  H5* UNL     1       7.533   4.498  20.347  0.00  0.00    +0.000 HD
ENDBRANCH  21  22
ENDBRANCH  14  21
ENDBRANCH   3  12
BRANCH   1  25
ATOM     24  C   UNL     1       1.911   7.930  19.806  0.00  0.00    +0.000 C 
ATOM     25  S   UNL     1       1.735   6.355  20.683  0.00  0.00    +0.000 S 
ENDBRANCH   1  25
TORSDOF 6
ENDMDL
MODEL 3
REMARK VINA RESULT:      -6.4      2.540      6.206
REMARK  Name = 
REMARK  7 active torsions:
REMARK  status: ('A' for Active; 'I' for Inactive)
REMARK    1  A    between atoms: C_1  and  S_2
REMARK    2  A    between atoms: S_2  and  C_3
REMARK    3  A    between atoms: N_5  and  C1*_6
REMARK    4  A    between atoms: C4*_8  and  C5*_9
REMARK    5  A    between atoms: C5*_9  and  O5*_10
REMARK    6  A    between atoms: C3*_11  and  O3*_12
REMARK    7  A    between atoms: C2*_13  and  O2*_14
REMARK                            x       y       z     vdW  Elec       q    Type
REMARK                         _______ _______ _______ _____ _____    ______ ____
ROOT
ATOM      1  C   UNL     1       2.821   5.332  19.850  0.00  0.00    +0.000 A 
ATOM      2  N   UNL     1       4.079   5.635  19.503  0.00  0.00    +0.000 NA
ATOM      3  N   UNL     1       4.537   4.503  18.913  0.00  0.00    +0.000 N 
ATOM      4  C   UNL     1       3.607   3.498  18.905  0.00  0.00    +0.000 A 
ATOM      5  N   UNL     1       3.774   2.253  18.387  0.00  0.00    +0.000 NA
ATOM      6  C   UNL     1       2.720   1.505  18.526  0.00  0.00    +0.000 A 
ATOM      7  N   UNL     1       1.542   1.898  19.126  0.00  0.00    +0.000 N 
ATOM      8  C   UNL     1       1.327   3.169  19.639  0.00  0.00    +0.000 A 
ATOM      9  O   UNL     1       0.259   3.494  20.127  0.00  0.00    +0.000 OA
ATOM     10  C   UNL     1       2.483   4.016  19.510  0.00  0.00    +0.000 A 
ATOM     11  H   UNL     1       0.758   1.265  19.190  0.00  0.00    +0.000 HD
ENDROOT
BRANCH   3  12
ATOM     12  C1* UNL     1       5.851   4.478  18.286  0.00  0.00    +0.000 C 
ATOM     13  O4* UNL     1       6.655   5.587  18.763  0.00  0.00    +0.000 OA
ATOM     14  C4* UNL     1       7.277   6.233  17.625  0.00  0.00    +0.000 C 
ATOM     15  C3* UNL     1       7.053   5.319  16.423  0.00  0.00    +0.000 C 
ATOM     16  C2* UNL     1       5.772   4.577  16.764  0.00  0.00    +0.000 C 
BRANCH  15  17
ATOM     17  O3* UNL     1       8.112   4.351  16.296  0.00  0.00    +0.000 OA
ATOM     18  H3* UNL     1       8.429   4.346  15.375  0.00  0.00    +0.000 HD
ENDBRANCH  15  17
BRANCH  16  19
ATOM     19  O2* UNL     1       5.724   3.295  16.134  0.00  0.00    +0.000 OA
ATOM     20  H2* UNL     1       4.793   2.992  16.195  0.00  0.00    +0.000 HD
ENDBRANCH  16  19
BRANCH  14  21
ATOM     21  C5* UNL     1       6.681   7.632  17.452  0.00  0.00    +0.000 C 
BRANCH  21  22
ATOM     22  O5* UNL     1       7.685   8.635  17.622  0.00  0.00    +0.000 OA
ATOM     23  H5* UNL     1       7.396   9.420  17.117  0.00  0.00    +0.000 HD
ENDBRANCH  21  22
ENDBRANCH  14  21
ENDBRANCH   3  12
BRANCH   1  25
ATOM     24  C   UNL     1       2.009   7.929  19.544  0.00  0.00    +0.000 C 
ATOM     25  S   UNL     1       1.806   6.507  20.647  0.00  0.00    +0.000 S 
ENDBRANCH   1  25
TORSDOF 6
ENDMDL
MODEL 4
REMARK VINA RESULT:      -6.4      2.022      3.735
REMARK  Name = 
REMARK  7 active torsions:
REMARK  status: ('A' for Active; 'I' for Inactive)
REMARK    1  A    between atoms: C_1  and  S_2
REMARK    2  A    between atoms: S_2  and  C_3
REMARK    3  A    between atoms: N_5  and  C1*_6
REMARK    4  A    between atoms: C4*_8  and  C5*_9
REMARK    5  A    between atoms: C5*_9  and  O5*_10
REMARK    6  A    between atoms: C3*_11  and  O3*_12
REMARK    7  A    between atoms: C2*_13  and  O2*_14
REMARK                            x       y       z     vdW  Elec       q    Type
REMARK                         _______ _______ _______ _____ _____    ______ ____
ROOT
ATOM      1  C   UNL     1       6.309   5.619  17.084  0.00  0.00    +0.000 A 
ATOM      2  N   UNL     1       5.238   5.232  17.790  0.00  0.00    +0.000 NA
ATOM      3  N   UNL     1       4.567   4.413  16.943  0.00  0.00    +0.000 N 
ATOM      4  C   UNL     1       5.178   4.298  15.723  0.00  0.00    +0.000 A 
ATOM      5  N   UNL     1       4.744   3.552  14.673  0.00  0.00    +0.000 NA
ATOM      6  C   UNL     1       5.525   3.638  13.638  0.00  0.00    +0.000 A 
ATOM      7  N   UNL     1       6.679   4.392  13.575  0.00  0.00    +0.000 N 
ATOM      8  C   UNL     1       7.166   5.141  14.636  0.00  0.00    +0.000 A 
ATOM      9  O   UNL     1       8.210   5.764  14.558  0.00  0.00    +0.000 OA
ATOM     10  C   UNL     1       6.314   5.075  15.793  0.00  0.00    +0.000 A 
ATOM     11  H   UNL     1       7.244   4.403  12.738  0.00  0.00    +0.000 HD
ENDROOT
BRANCH   3  12
ATOM     12  C1* UNL     1       3.388   3.688  17.397  0.00  0.00    +0.000 C 
ATOM     13  O4* UNL     1       2.421   4.609  17.964  0.00  0.00    +0.000 OA
ATOM     14  C4* UNL     1       1.952   4.072  19.225  0.00  0.00    +0.000 C 
ATOM     15  C3* UNL     1       2.459   2.635  19.307  0.00  0.00    +0.000 C 
ATOM     16  C2* UNL     1       3.721   2.644  18.461  0.00  0.00    +0.000 C 
BRANCH  15  17
ATOM     17  O3* UNL     1       1.525   1.715  18.709  0.00  0.00    +0.000 OA
ATOM     18  H3* UNL     1       1.357   1.986  17.788  0.00  0.00    +0.000 HD
ENDBRANCH  15  17
BRANCH  16  19
ATOM     19  O2* UNL     1       3.987   1.357  17.900  0.00  0.00    +0.000 OA
ATOM     20  H2* UNL     1       3.902   0.712  18.634  0.00  0.00    +0.000 HD
ENDBRANCH  16  19
BRANCH  14  21
ATOM     21  C5* UNL     1       2.447   4.963  20.367  0.00  0.00    +0.000 C 
BRANCH  21  22
ATOM     22  O5* UNL     1       3.265   6.022  19.866  0.00  0.00    +0.000 OA
ATOM     23  H5* UNL     1       4.156   5.651  19.717  0.00  0.00    +0.000 HD
ENDBRANCH  21  22
ENDBRANCH  14  21
ENDBRANCH   3  12
BRANCH   1  25
ATOM     24  C   UNL     1       7.884   5.819  19.315  0.00  0.00    +0.000 C 
ATOM     25  S   UNL     1       7.496   6.693  17.778  0.00  0.00    +0.000 S 
ENDBRANCH   1  25
TORSDOF 6
ENDMDL
MODEL 5
REMARK VINA RESULT:      -6.3      1.506      2.404
REMARK  Name = 
REMARK  7 active torsions:
REMARK  status: ('A' for Active; 'I' for Inactive)
REMARK    1  A    between atoms: C_1  and  S_2
REMARK    2  A    between atoms: S_2  and  C_3
REMARK    3  A    between atoms: N_5  and  C1*_6
REMARK    4  A    between atoms: C4*_8  and  C5*_9
REMARK    5  A    between atoms: C5*_9  and  O5*_10
REMARK    6  A    between atoms: C3*_11  and  O3*_12
REMARK    7  A    between atoms: C2*_13  and  O2*_14
REMARK                            x       y       z     vdW  Elec       q    Type
REMARK                         _______ _______ _______ _____ _____    ______ ____
ROOT
ATOM      1  C   UNL     1       5.892   4.526  15.477  0.00  0.00    +0.000 A 
ATOM      2  N   UNL     1       4.868   3.670  15.592  0.00  0.00    +0.000 NA
ATOM      3  N   UNL     1       4.533   3.736  16.905  0.00  0.00    +0.000 N 
ATOM      4  C   UNL     1       5.334   4.592  17.612  0.00  0.00    +0.000 A 
ATOM      5  N   UNL     1       5.244   4.865  18.941  0.00  0.00    +0.000 NA
ATOM      6  C   UNL     1       6.142   5.714  19.342  0.00  0.00    +0.000 A 
ATOM      7  N   UNL     1       7.098   6.297  18.537  0.00  0.00    +0.000 N 
ATOM      8  C   UNL     1       7.201   6.064  17.173  0.00  0.00    +0.000 A 
ATOM      9  O   UNL     1       8.034   6.627  16.485  0.00  0.00    +0.000 OA
ATOM     10  C   UNL     1       6.226   5.117  16.703  0.00  0.00    +0.000 A 
ATOM     11  H   UNL     1       7.760   6.959  18.916  0.00  0.00    +0.000 HD
ENDROOT
BRANCH   3  12
ATOM     12  C1* UNL     1       3.365   3.024  17.406  0.00  0.00    +0.000 C 
ATOM     13  O4* UNL     1       2.280   3.954  17.653  0.00  0.00    +0.000 OA
ATOM     14  C4* UNL     1       1.713   3.671  18.956  0.00  0.00    +0.000 C 
ATOM     15  C3* UNL     1       2.308   2.342  19.415  0.00  0.00    +0.000 C 
ATOM     16  C2* UNL     1       3.651   2.281  18.709  0.00  0.00    +0.000 C 
BRANCH  15  17
ATOM     17  O3* UNL     1       1.512   1.229  18.965  0.00  0.00    +0.000 OA
ATOM     18  H3* UNL     1       1.967   0.399  19.195  0.00  0.00    +0.000 HD
ENDBRANCH  15  17
BRANCH  16  19
ATOM     19  O2* UNL     1       4.067   0.931  18.488  0.00  0.00    +0.000 OA
ATOM     20  H2* UNL     1       4.985   0.866  18.828  0.00  0.00    +0.000 HD
ENDBRANCH  16  19
BRANCH  14  21
ATOM     21  C5* UNL     1       2.016   4.837  19.901  0.00  0.00    +0.000 C 
BRANCH  21  22
ATOM     22  O5* UNL     1       2.442   5.987  19.166  0.00  0.00    +0.000 OA
ATOM     23  H5* UNL     1       2.511   5.720  18.229  0.00  0.00    +0.000 HD
ENDBRANCH  21  22
ENDBRANCH  14  21
ENDBRANCH   3  12
BRANCH   1  25
ATOM     24  C   UNL     1       5.852   3.526  12.929  0.00  0.00    +0.000 C 
ATOM     25  S   UNL     1       6.664   4.793  13.935  0.00  0.00    +0.000 S 
ENDBRANCH   1  25
TORSDOF 6
ENDMDL
MODEL 6
REMARK VINA RESULT:      -6.3      1.914      2.387
REMARK  Name = 
REMARK  7 active torsions:
REMARK  status: ('A' for Active; 'I' for Inactive)
REMARK    1  A    between atoms: C_1  and  S_2
REMARK    2  A    between atoms: S_2  and  C_3
REMARK    3  A    between atoms: N_5  and  C1*_6
REMARK    4  A    between atoms: C4*_8  and  C5*_9
REMARK    5  A    between atoms: C5*_9  and  O5*_10
REMARK    6  A    between atoms: C3*_11  and  O3*_12
REMARK    7  A    between atoms: C2*_13  and  O2*_14
REMARK                            x       y       z     vdW  Elec       q    Type
REMARK                         _______ _______ _______ _____ _____    ______ ____
ROOT
ATOM      1  C   UNL     1       3.849   6.712  17.975  0.00  0.00    +0.000 A 
ATOM      2  N   UNL     1       3.070   5.885  18.685  0.00  0.00    +0.000 NA
ATOM      3  N   UNL     1       3.902   4.876  19.040  0.00  0.00    +0.000 N 
ATOM      4  C   UNL     1       5.171   5.041  18.553  0.00  0.00    +0.000 A 
ATOM      5  N   UNL     1       6.221   4.198  18.740  0.00  0.00    +0.000 NA
ATOM      6  C   UNL     1       7.306   4.608  18.155  0.00  0.00    +0.000 A 
ATOM      7  N   UNL     1       7.420   5.768  17.417  0.00  0.00    +0.000 N 
ATOM      8  C   UNL     1       6.378   6.665  17.229  0.00  0.00    +0.000 A 
ATOM      9  O   UNL     1       6.525   7.700  16.604  0.00  0.00    +0.000 OA
ATOM     10  C   UNL     1       5.159   6.230  17.856  0.00  0.00    +0.000 A 
ATOM     11  H   UNL     1       8.300   6.030  16.998  0.00  0.00    +0.000 HD
ENDROOT
BRANCH   3  12
ATOM     12  C1* UNL     1       3.445   3.822  19.935  0.00  0.00    +0.000 C 
ATOM     13  O4* UNL     1       3.077   2.643  19.173  0.00  0.00    +0.000 OA
ATOM     14  C4* UNL     1       1.794   2.165  19.648  0.00  0.00    +0.000 C 
ATOM     15  C3* UNL     1       1.486   2.932  20.932  0.00  0.00    +0.000 C 
ATOM     16  C2* UNL     1       2.231   4.245  20.760  0.00  0.00    +0.000 C 
BRANCH  15  17
ATOM     17  O3* UNL     1       2.025   2.258  22.086  0.00  0.00    +0.000 OA
ATOM     18  H3* UNL     1       2.537   1.483  21.791  0.00  0.00    +0.000 HD
ENDBRANCH  15  17
BRANCH  16  19
ATOM     19  O2* UNL     1       2.597   4.810  22.021  0.00  0.00    +0.000 OA
ATOM     20  H2* UNL     1       3.395   5.356  21.857  0.00  0.00    +0.000 HD
ENDBRANCH  16  19
BRANCH  14  21
ATOM     21  C5* UNL     1       0.745   2.362  18.550  0.00  0.00    +0.000 C 
BRANCH  21  22
ATOM     22  O5* UNL     1       1.129   3.418  17.667  0.00  0.00    +0.000 OA
ATOM     23  H5* UNL     1       0.716   3.233  16.801  0.00  0.00    +0.000 HD
ENDBRANCH  21  22
ENDBRANCH  14  21
ENDBRANCH   3  12
BRANCH   1  25
ATOM     24  C   UNL     1       1.917   8.575  18.514  0.00  0.00    +0.000 C 
ATOM     25  S   UNL     1       3.206   8.189  17.304  0.00  0.00    +0.000 S 
ENDBRANCH   1  25
TORSDOF 6
ENDMDL
MODEL 7
REMARK VINA RESULT:      -6.3      2.686      6.020
REMARK  Name = 
REMARK  7 active torsions:
REMARK  status: ('A' for Active; 'I' for Inactive)
REMARK    1  A    between atoms: C_1  and  S_2
REMARK    2  A    between atoms: S_2  and  C_3
REMARK    3  A    between atoms: N_5  and  C1*_6
REMARK    4  A    between atoms: C4*_8  and  C5*_9
REMARK    5  A    between atoms: C5*_9  and  O5*_10
REMARK    6  A    between atoms: C3*_11  and  O3*_12
REMARK    7  A    between atoms: C2*_13  and  O2*_14
REMARK                            x       y       z     vdW  Elec       q    Type
REMARK                         _______ _______ _______ _____ _____    ______ ____
ROOT
ATOM      1  C   UNL     1       2.654   5.344  20.006  0.00  0.00    +0.000 A 
ATOM      2  N   UNL     1       3.502   5.831  19.090  0.00  0.00    +0.000 NA
ATOM      3  N   UNL     1       4.403   4.833  18.914  0.00  0.00    +0.000 N 
ATOM      4  C   UNL     1       4.152   3.748  19.712  0.00  0.00    +0.000 A 
ATOM      5  N   UNL     1       4.878   2.601  19.761  0.00  0.00    +0.000 NA
ATOM      6  C   UNL     1       4.408   1.743  20.616  0.00  0.00    +0.000 A 
ATOM      7  N   UNL     1       3.294   1.940  21.406  0.00  0.00    +0.000 N 
ATOM      8  C   UNL     1       2.514   3.086  21.361  0.00  0.00    +0.000 A 
ATOM      9  O   UNL     1       1.513   3.210  22.045  0.00  0.00    +0.000 OA
ATOM     10  C   UNL     1       3.019   4.060  20.431  0.00  0.00    +0.000 A 
ATOM     11  H   UNL     1       2.979   1.223  22.043  0.00  0.00    +0.000 HD
ENDROOT
BRANCH   3  12
ATOM     12  C1* UNL     1       5.434   4.940  17.891  0.00  0.00    +0.000 C 
ATOM     13  O4* UNL     1       6.712   4.505  18.421  0.00  0.00    +0.000 OA
ATOM     14  C4* UNL     1       7.721   5.480  18.058  0.00  0.00    +0.000 C 
ATOM     15  C3* UNL     1       7.080   6.419  17.039  0.00  0.00    +0.000 C 
ATOM     16  C2* UNL     1       5.600   6.369  17.379  0.00  0.00    +0.000 C 
BRANCH  15  17
ATOM     17  O3* UNL     1       7.248   5.927  15.696  0.00  0.00    +0.000 OA
ATOM     18  H3* UNL     1       8.184   5.693  15.558  0.00  0.00    +0.000 HD
ENDBRANCH  15  17
BRANCH  16  19
ATOM     19  O2* UNL     1       4.788   6.637  16.234  0.00  0.00    +0.000 OA
ATOM     20  H2* UNL     1       4.066   7.226  16.539  0.00  0.00    +0.000 HD
ENDBRANCH  16  19
BRANCH  14  21
ATOM     21  C5* UNL     1       8.213   6.190  19.322  0.00  0.00    +0.000 C 
BRANCH  21  22
ATOM     22  O5* UNL     1       7.949   5.399  20.482  0.00  0.00    +0.000 OA
ATOM     23  H5* UNL     1       7.072   4.989  20.357  0.00  0.00    +0.000 HD
ENDBRANCH  21  22
ENDBRANCH  14  21
ENDBRANCH   3  12
BRANCH   1  25
ATOM     24  C   UNL     1       1.846   7.957  20.128  0.00  0.00    +0.000 C 
ATOM     25  S   UNL     1       1.292   6.287  20.553  0.00  0.00    +0.000 S 
ENDBRANCH   1  25
TORSDOF 6
ENDMDL
MODEL 8
REMARK VINA RESULT:      -6.3      1.848      2.300
REMARK  Name = 
REMARK  7 active torsions:
REMARK  status: ('A' for Active; 'I' for Inactive)
REMARK    1  A    between atoms: C_1  and  S_2
REMARK    2  A    between atoms: S_2  and  C_3
REMARK    3  A    between atoms: N_5  and  C1*_6
REMARK    4  A    between atoms: C4*_8  and  C5*_9
REMARK    5  A    between atoms: C5*_9  and  O5*_10
REMARK    6  A    between atoms: C3*_11  and  O3*_12
REMARK    7  A    between atoms: C2*_13  and  O2*_14
REMARK                            x       y       z     vdW  Elec       q    Type
REMARK                         _______ _______ _______ _____ _____    ______ ____
ROOT
ATOM      1  C   UNL     1       5.924   4.731  18.129  0.00  0.00    +0.000 A 
ATOM      2  N   UNL     1       5.532   3.806  19.015  0.00  0.00    +0.000 NA
ATOM      3  N   UNL     1       4.289   4.207  19.379  0.00  0.00    +0.000 N 
ATOM      4  C   UNL     1       3.907   5.368  18.761  0.00  0.00    +0.000 A 
ATOM      5  N   UNL     1       2.722   6.013  18.924  0.00  0.00    +0.000 NA
ATOM      6  C   UNL     1       2.637   7.096  18.212  0.00  0.00    +0.000 A 
ATOM      7  N   UNL     1       3.620   7.571  17.369  0.00  0.00    +0.000 N 
ATOM      8  C   UNL     1       4.829   6.924  17.157  0.00  0.00    +0.000 A 
ATOM      9  O   UNL     1       5.659   7.351  16.375  0.00  0.00    +0.000 OA
ATOM     10  C   UNL     1       4.956   5.726  17.943  0.00  0.00    +0.000 A 
ATOM     11  H   UNL     1       3.481   8.418  16.837  0.00  0.00    +0.000 HD
ENDROOT
BRANCH   3  12
ATOM     12  C1* UNL     1       3.473   3.379  20.256  0.00  0.00    +0.000 C 
ATOM     13  O4* UNL     1       2.959   2.234  19.527  0.00  0.00    +0.000 OA
ATOM     14  C4* UNL     1       1.545   2.099  19.811  0.00  0.00    +0.000 C 
ATOM     15  C3* UNL     1       1.236   3.046  20.968  0.00  0.00    +0.000 C 
ATOM     16  C2* UNL     1       2.281   4.140  20.832  0.00  0.00    +0.000 C 
BRANCH  15  17
ATOM     17  O3* UNL     1       1.427   2.398  22.240  0.00  0.00    +0.000 OA
ATOM     18  H3* UNL     1       2.156   1.756  22.164  0.00  0.00    +0.000 HD
ENDBRANCH  15  17
BRANCH  16  19
ATOM     19  O2* UNL     1       2.576   4.744  22.094  0.00  0.00    +0.000 OA
ATOM     20  H2* UNL     1       1.714   4.920  22.525  0.00  0.00    +0.000 HD
ENDBRANCH  16  19
BRANCH  14  21
ATOM     21  C5* UNL     1       0.745   2.401  18.541  0.00  0.00    +0.000 C 
BRANCH  21  22
ATOM     22  O5* UNL     1       1.513   3.198  17.637  0.00  0.00    +0.000 OA
ATOM     23  H5* UNL     1       0.911   3.872  17.266  0.00  0.00    +0.000 HD
ENDBRANCH  21  22
ENDBRANCH  14  21
ENDBRANCH   3  12
BRANCH   1  25
ATOM     24  C   UNL     1       7.001   4.289  15.651  0.00  0.00    +0.000 C 
ATOM     25  S   UNL     1       7.488   4.627  17.361  0.00  0.00    +0.000 S 
ENDBRANCH   1  25
TORSDOF 6
ENDMDL
MODEL 9
REMARK VINA RESULT:      -6.2      2.578      5.834
REMARK  Name = 
REMARK  7 active torsions:
REMARK  status: ('A' for Active; 'I' for Inactive)
REMARK    1  A    between atoms: C_1  and  S_2
REMARK    2  A    between atoms: S_2  and  C_3
REMARK    3  A    between atoms: N_5  and  C1*_6
REMARK    4  A    between atoms: C4*_8  and  C5*_9
REMARK    5  A    between atoms: C5*_9  and  O5*_10
REMARK    6  A    between atoms: C3*_11  and  O3*_12
REMARK    7  A    between atoms: C2*_13  and  O2*_14
REMARK                            x       y       z     vdW  Elec       q    Type
REMARK                         _______ _______ _______ _____ _____    ______ ____
ROOT
ATOM      1  C   UNL     1       3.882   3.839  18.625  0.00  0.00    +0.000 A 
ATOM      2  N   UNL     1       4.783   3.790  17.634  0.00  0.00    +0.000 NA
ATOM      3  N   UNL     1       4.809   5.057  17.153  0.00  0.00    +0.000 N 
ATOM      4  C   UNL     1       3.933   5.887  17.801  0.00  0.00    +0.000 A 
ATOM      5  N   UNL     1       3.734   7.206  17.542  0.00  0.00    +0.000 NA
ATOM      6  C   UNL     1       2.836   7.740  18.314  0.00  0.00    +0.000 A 
ATOM      7  N   UNL     1       2.140   7.074  19.300  0.00  0.00    +0.000 N 
ATOM      8  C   UNL     1       2.338   5.736  19.611  0.00  0.00    +0.000 A 
ATOM      9  O   UNL     1       1.733   5.189  20.516  0.00  0.00    +0.000 OA
ATOM     10  C   UNL     1       3.320   5.115  18.763  0.00  0.00    +0.000 A 
ATOM     11  H   UNL     1       1.461   7.557  19.871  0.00  0.00    +0.000 HD
ENDROOT
BRANCH   3  12
ATOM     12  C1* UNL     1       5.770   5.437  16.127  0.00  0.00    +0.000 C 
ATOM     13  O4* UNL     1       5.104   5.584  14.846  0.00  0.00    +0.000 OA
ATOM     14  C4* UNL     1       5.879   4.890  13.838  0.00  0.00    +0.000 C 
ATOM     15  C3* UNL     1       7.213   4.523  14.482  0.00  0.00    +0.000 C 
ATOM     16  C2* UNL     1       6.883   4.404  15.960  0.00  0.00    +0.000 C 
BRANCH  15  17
ATOM     17  O3* UNL     1       8.180   5.579  14.321  0.00  0.00    +0.000 OA
ATOM     18  H3* UNL     1       8.814   5.325  13.626  0.00  0.00    +0.000 HD
ENDBRANCH  15  17
BRANCH  16  19
ATOM     19  O2* UNL     1       8.021   4.691  16.777  0.00  0.00    +0.000 OA
ATOM     20  H2* UNL     1       8.800   4.666  16.184  0.00  0.00    +0.000 HD
ENDBRANCH  16  19
BRANCH  14  21
ATOM     21  C5* UNL     1       5.085   3.679  13.338  0.00  0.00    +0.000 C 
BRANCH  21  22
ATOM     22  O5* UNL     1       5.899   2.849  12.507  0.00  0.00    +0.000 OA
ATOM     23  H5* UNL     1       5.825   3.194  11.596  0.00  0.00    +0.000 HD
ENDBRANCH  21  22
ENDBRANCH  14  21
ENDBRANCH   3  12
BRANCH   1  25
ATOM     24  C   UNL     1       1.849   2.035  18.957  0.00  0.00    +0.000 C 
ATOM     25  S   UNL     1       3.511   2.418  19.567  0.00  0.00    +0.000 S 
ENDBRANCH   1  25
TORSDOF 6
ENDMDL
