MODEL 1
REMARK VINA RESULT:      -6.6      0.000      0.000
REMARK  Name = 
REMARK  7 active torsions:
REMARK  status: ('A' for Active; 'I' for Inactive)
REMARK    1  A    between atoms: C_1  and  C_2
REMARK    2  A    between atoms: C_2  and  N_3
REMARK    3  A    between atoms: N_3  and  C_4
REMARK    4  A    between atoms: N_3  and  C_5
REMARK    5  A    between atoms: C_14  and  C_16
REMARK    6  A    between atoms: C_16  and  O_17
REMARK    7  A    between atoms: O_17  and  C_18
REMARK                            x       y       z     vdW  Elec       q    Type
REMARK                         _______ _______ _______ _____ _____    ______ ____
ROOT
ATOM      1  C   UNL     1       2.874   3.620  19.667  0.00  0.00    +0.000 A 
ATOM      2  N   UNL     1       2.455   2.342  19.581  0.00  0.00    +0.000 NA
ATOM      3  C   UNL     1       2.796   1.651  18.487  0.00  0.00    +0.000 A 
ATOM      4  N   UNL     1       3.550   2.093  17.481  0.00  0.00    +0.000 NA
ATOM      5  C   UNL     1       3.979   3.366  17.577  0.00  0.00    +0.000 A 
ATOM      6  C   UNL     1       3.652   4.194  18.654  0.00  0.00    +0.000 A 
ATOM      7  C   UNL     1       4.163   5.608  18.643  0.00  0.00    +0.000 C 
ATOM      8  C   UNL     1       5.671   5.679  18.862  0.00  0.00    +0.000 C 
ATOM      9  N   UNL     1       6.416   5.467  17.618  0.00  0.00    +0.000 N 
ATOM     10  C   UNL     1       7.157   6.456  16.973  0.00  0.00    +0.000 C 
ATOM     11  O   UNL     1       7.717   6.255  15.892  0.00  0.00    +0.000 OA
ATOM     12  C   UNL     1       6.303   4.141  16.991  0.00  0.00    +0.000 C 
ATOM     13  C   UNL     1       4.895   3.835  16.467  0.00  0.00    +0.000 C 
ENDROOT
BRANCH   1  14
ATOM     14  N   UNL     1       2.503   4.370  20.853  0.00  0.00    +0.000 N 
ATOM     15  C   UNL     1       2.151   3.353  21.884  0.00  0.00    +0.000 C 
BRANCH  14  17
ATOM     16  C   UNL     1       1.502   6.685  20.774  0.00  0.00    +0.000 C 
ATOM     17  C   UNL     1       1.294   5.195  20.508  0.00  0.00    +0.000 C 
ENDBRANCH  14  17
ENDBRANCH   1  14
BRANCH  10  18
ATOM     18  C   UNL     1       7.263   7.847  17.631  0.00  0.00    +0.000 C 
BRANCH  18  19
ATOM     19  O   UNL     1       8.428   8.118  18.399  0.00  0.00    +0.000 OA
ATOM     20  C   UNL     1       8.700   9.509  18.502  0.00  0.00    +0.000 C 
ENDBRANCH  18  19
ENDBRANCH  10  18
TORSDOF 4
ENDMDL
MODEL 2
REMARK VINA RESULT:      -6.2      2.540      4.462
REMARK  Name = 
REMARK  7 active torsions:
REMARK  status: ('A' for Active; 'I' for Inactive)
REMARK    1  A    between atoms: C_1  and  C_2
REMARK    2  A    between atoms: C_2  and  N_3
REMARK    3  A    between atoms: N_3  and  C_4
REMARK    4  A    between atoms: N_3  and  C_5
REMARK    5  A    between atoms: C_14  and  C_16
REMARK    6  A    between atoms: C_16  and  O_17
REMARK    7  A    between atoms: O_17  and  C_18
REMARK                            x       y       z     vdW  Elec       q    Type
REMARK                         _______ _______ _______ _____ _____    ______ ____
ROOT
ATOM      1  C   UNL     1       3.772   3.894  17.995  0.00  0.00    +0.000 A 
ATOM      2  N   UNL     1       3.745   4.288  19.283  0.00  0.00    +0.000 NA
ATOM      3  C   UNL     1       4.883   4.751  19.814  0.00  0.00    +0.000 A 
ATOM      4  N   UNL     1       6.044   4.900  19.176  0.00  0.00    +0.000 NA
ATOM      5  C   UNL     1       6.064   4.518  17.885  0.00  0.00    +0.000 A 
ATOM      6  C   UNL     1       4.947   3.982  17.238  0.00  0.00    +0.000 A 
ATOM      7  C   UNL     1       5.092   3.564  15.802  0.00  0.00    +0.000 C 
ATOM      8  C   UNL     1       5.241   4.758  14.863  0.00  0.00    +0.000 C 
ATOM      9  N   UNL     1       6.625   5.233  14.798  0.00  0.00    +0.000 N 
ATOM     10  C   UNL     1       7.437   5.123  13.670  0.00  0.00    +0.000 C 
ATOM     11  O   UNL     1       8.619   5.478  13.677  0.00  0.00    +0.000 OA
ATOM     12  C   UNL     1       7.195   5.796  16.032  0.00  0.00    +0.000 C 
ATOM     13  C   UNL     1       7.365   4.760  17.150  0.00  0.00    +0.000 C 
ENDROOT
BRANCH   1  14
ATOM     14  N   UNL     1       2.538   3.390  17.420  0.00  0.00    +0.000 N 
ATOM     15  C   UNL     1       1.520   4.455  17.644  0.00  0.00    +0.000 C 
BRANCH  14  17
ATOM     16  C   UNL     1       0.785   2.253  18.835  0.00  0.00    +0.000 C 
ATOM     17  C   UNL     1       2.160   2.146  18.178  0.00  0.00    +0.000 C 
ENDBRANCH  14  17
ENDBRANCH   1  14
BRANCH  10  18
ATOM     18  C   UNL     1       6.835   4.525  12.382  0.00  0.00    +0.000 C 
BRANCH  18  19
ATOM     19  O   UNL     1       6.667   3.115  12.336  0.00  0.00    +0.000 OA
ATOM     20  C   UNL     1       5.427   2.734  11.754  0.00  0.00    +0.000 C 
ENDBRANCH  18  19
ENDBRANCH  10  18
TORSDOF 4
ENDMDL
MODEL 3
REMARK VINA RESULT:      -6.1      3.213      5.973
REMARK  Name = 
REMARK  7 active torsions:
REMARK  status: ('A' for Active; 'I' for Inactive)
REMARK    1  A    between atoms: C_1  and  C_2
REMARK    2  A    between atoms: C_2  and  N_3
REMARK    3  A    between atoms: N_3  and  C_4
REMARK    4  A    between atoms: N_3  and  C_5
REMARK    5  A    between atoms: C_14  and  C_16
REMARK    6  A    between atoms: C_16  and  O_17
REMARK    7  A    between atoms: O_17  and  C_18
REMARK                            x       y       z     vdW  Elec       q    Type
REMARK                         _______ _______ _______ _____ _____    ______ ____
ROOT
ATOM      1  C   UNL     1       6.323   5.791  17.241  0.00  0.00    +0.000 A 
ATOM      2  N   UNL     1       6.760   5.850  15.968  0.00  0.00    +0.000 NA
ATOM      3  C   UNL     1       6.199   5.021  15.081  0.00  0.00    +0.000 A 
ATOM      4  N   UNL     1       5.212   4.159  15.326  0.00  0.00    +0.000 NA
ATOM      5  C   UNL     1       4.768   4.112  16.596  0.00  0.00    +0.000 A 
ATOM      6  C   UNL     1       5.307   4.902  17.614  0.00  0.00    +0.000 A 
ATOM      7  C   UNL     1       4.752   4.747  19.002  0.00  0.00    +0.000 C 
ATOM      8  C   UNL     1       3.336   5.303  19.125  0.00  0.00    +0.000 C 
ATOM      9  N   UNL     1       2.329   4.336  18.683  0.00  0.00    +0.000 N 
ATOM     10  C   UNL     1       1.417   3.711  19.533  0.00  0.00    +0.000 C 
ATOM     11  O   UNL     1       0.628   2.853  19.131  0.00  0.00    +0.000 OA
ATOM     12  C   UNL     1       2.343   3.962  17.260  0.00  0.00    +0.000 C 
ATOM     13  C   UNL     1       3.598   3.185  16.848  0.00  0.00    +0.000 C 
ENDROOT
BRANCH   1  14
ATOM     14  N   UNL     1       6.934   6.690  18.203  0.00  0.00    +0.000 N 
ATOM     15  C   UNL     1       7.319   7.908  17.435  0.00  0.00    +0.000 C 
BRANCH  14  17
ATOM     16  C   UNL     1       7.980   5.520  20.180  0.00  0.00    +0.000 C 
ATOM     17  C   UNL     1       8.162   6.010  18.744  0.00  0.00    +0.000 C 
ENDBRANCH  14  17
ENDBRANCH   1  14
BRANCH  10  18
ATOM     18  C   UNL     1       1.415   4.100  21.026  0.00  0.00    +0.000 C 
BRANCH  18  19
ATOM     19  O   UNL     1       1.731   3.083  21.966  0.00  0.00    +0.000 OA
ATOM     20  C   UNL     1       2.895   2.352  21.605  0.00  0.00    +0.000 C 
ENDBRANCH  18  19
ENDBRANCH  10  18
TORSDOF 4
ENDMDL
MODEL 4
REMARK VINA RESULT:      -5.9      3.754      6.915
REMARK  Name = 
REMARK  7 active torsions:
REMARK  status: ('A' for Active; 'I' for Inactive)
REMARK    1  A    between atoms: C_1  and  C_2
REMARK    2  A    between atoms: C_2  and  N_3
REMARK    3  A    between atoms: N_3  and  C_4
REMARK    4  A    between atoms: N_3  and  C_5
REMARK    5  A    between atoms: C_14  and  C_16
REMARK    6  A    between atoms: C_16  and  O_17
REMARK    7  A    between atoms: O_17  and  C_18
REMARK                            x       y       z     vdW  Elec       q    Type
REMARK                         _______ _______ _______ _____ _____    ______ ____
ROOT
ATOM      1  C   UNL     1       6.165   3.996  12.995  0.00  0.00    +0.000 A 
ATOM      2  N   UNL     1       7.219   4.288  12.207  0.00  0.00    +0.000 NA
ATOM      3  C   UNL     1       8.159   5.100  12.705  0.00  0.00    +0.000 A 
ATOM      4  N   UNL     1       8.176   5.623  13.932  0.00  0.00    +0.000 NA
ATOM      5  C   UNL     1       7.129   5.319  14.720  0.00  0.00    +0.000 A 
ATOM      6  C   UNL     1       6.069   4.514  14.292  0.00  0.00    +0.000 A 
ATOM      7  C   UNL     1       4.937   4.263  15.249  0.00  0.00    +0.000 C 
ATOM      8  C   UNL     1       5.348   3.355  16.405  0.00  0.00    +0.000 C 
ATOM      9  N   UNL     1       6.006   4.101  17.480  0.00  0.00    +0.000 N 
ATOM     10  C   UNL     1       5.452   4.306  18.743  0.00  0.00    +0.000 C 
ATOM     11  O   UNL     1       6.011   4.996  19.599  0.00  0.00    +0.000 OA
ATOM     12  C   UNL     1       7.300   4.724  17.162  0.00  0.00    +0.000 C 
ATOM     13  C   UNL     1       7.194   5.857  16.134  0.00  0.00    +0.000 C 
ENDROOT
BRANCH   1  14
ATOM     14  N   UNL     1       5.145   3.118  12.453  0.00  0.00    +0.000 N 
ATOM     15  C   UNL     1       5.877   2.063  11.696  0.00  0.00    +0.000 C 
BRANCH  14  17
ATOM     16  C   UNL     1       3.391   3.067  10.640  0.00  0.00    +0.000 C 
ATOM     17  C   UNL     1       4.296   3.932  11.515  0.00  0.00    +0.000 C 
ENDBRANCH  14  17
ENDBRANCH   1  14
BRANCH  10  18
ATOM     18  C   UNL     1       4.091   3.657  19.066  0.00  0.00    +0.000 C 
BRANCH  18  19
ATOM     19  O   UNL     1       4.103   2.322  19.551  0.00  0.00    +0.000 OA
ATOM     20  C   UNL     1       3.495   1.409  18.648  0.00  0.00    +0.000 C 
ENDBRANCH  18  19
ENDBRANCH  10  18
TORSDOF 4
ENDMDL
MODEL 5
REMARK VINA RESULT:      -5.9      2.992      5.803
REMARK  Name = 
REMARK  7 active torsions:
REMARK  status: ('A' for Active; 'I' for Inactive)
REMARK    1  A    between atoms: C_1  and  C_2
REMARK    2  A    between atoms: C_2  and  N_3
REMARK    3  A    between atoms: N_3  and  C_4
REMARK    4  A    between atoms: N_3  and  C_5
REMARK    5  A    between atoms: C_14  and  C_16
REMARK    6  A    between atoms: C_16  and  O_17
REMARK    7  A    between atoms: O_17  and  C_18
REMARK                            x       y       z     vdW  Elec       q    Type
REMARK                         _______ _______ _______ _____ _____    ______ ____
ROOT
ATOM      1  C   UNL     1       7.041   5.535  16.959  0.00  0.00    +0.000 A 
ATOM      2  N   UNL     1       7.423   5.473  15.668  0.00  0.00    +0.000 NA
ATOM      3  C   UNL     1       6.718   4.683  14.850  0.00  0.00    +0.000 A 
ATOM      4  N   UNL     1       5.639   3.972  15.181  0.00  0.00    +0.000 NA
ATOM      5  C   UNL     1       5.252   4.047  16.469  0.00  0.00    +0.000 A 
ATOM      6  C   UNL     1       5.937   4.808  17.420  0.00  0.00    +0.000 A 
ATOM      7  C   UNL     1       5.432   4.795  18.836  0.00  0.00    +0.000 C 
ATOM      8  C   UNL     1       4.108   5.539  18.985  0.00  0.00    +0.000 C 
ATOM      9  N   UNL     1       2.963   4.693  18.636  0.00  0.00    +0.000 N 
ATOM     10  C   UNL     1       2.019   4.237  19.555  0.00  0.00    +0.000 C 
ATOM     11  O   UNL     1       1.107   3.473  19.232  0.00  0.00    +0.000 OA
ATOM     12  C   UNL     1       2.862   4.253  17.236  0.00  0.00    +0.000 C 
ATOM     13  C   UNL     1       3.985   3.296  16.818  0.00  0.00    +0.000 C 
ENDROOT
BRANCH   1  14
ATOM     14  N   UNL     1       7.808   6.391  17.846  0.00  0.00    +0.000 N 
ATOM     15  C   UNL     1       7.757   5.739  19.185  0.00  0.00    +0.000 C 
BRANCH  14  17
ATOM     16  C   UNL     1       8.100   8.897  17.856  0.00  0.00    +0.000 C 
ATOM     17  C   UNL     1       7.119   7.727  17.895  0.00  0.00    +0.000 C 
ENDBRANCH  14  17
ENDBRANCH   1  14
BRANCH  10  18
ATOM     18  C   UNL     1       2.137   4.696  21.023  0.00  0.00    +0.000 C 
BRANCH  18  19
ATOM     19  O   UNL     1       2.194   3.685  22.019  0.00  0.00    +0.000 OA
ATOM     20  C   UNL     1       2.845   2.507  21.562  0.00  0.00    +0.000 C 
ENDBRANCH  18  19
ENDBRANCH  10  18
TORSDOF 4
ENDMDL
MODEL 6
REMARK VINA RESULT:      -5.7      3.010      5.949
REMARK  Name = 
REMARK  7 active torsions:
REMARK  status: ('A' for Active; 'I' for Inactive)
REMARK    1  A    between atoms: C_1  and  C_2
REMARK    2  A    between atoms: C_2  and  N_3
REMARK    3  A    between atoms: N_3  and  C_4
REMARK    4  A    between atoms: N_3  and  C_5
REMARK    5  A    between atoms: C_14  and  C_16
REMARK    6  A    between atoms: C_16  and  O_17
REMARK    7  A    between atoms: O_17  and  C_18
REMARK                            x       y       z     vdW  Elec       q    Type
REMARK                         _______ _______ _______ _____ _____    ______ ____
ROOT
ATOM      1  C   UNL     1       6.297   5.845  17.163  0.00  0.00    +0.000 A 
ATOM      2  N   UNL     1       6.992   5.677  16.021  0.00  0.00    +0.000 NA
ATOM      3  C   UNL     1       6.763   4.565  15.313  0.00  0.00    +0.000 A 
ATOM      4  N   UNL     1       5.877   3.613  15.610  0.00  0.00    +0.000 NA
ATOM      5  C   UNL     1       5.174   3.791  16.744  0.00  0.00    +0.000 A 
ATOM      6  C   UNL     1       5.358   4.894  17.582  0.00  0.00    +0.000 A 
ATOM      7  C   UNL     1       4.537   4.976  18.839  0.00  0.00    +0.000 C 
ATOM      8  C   UNL     1       3.066   5.260  18.551  0.00  0.00    +0.000 C 
ATOM      9  N   UNL     1       2.327   4.039  18.223  0.00  0.00    +0.000 N 
ATOM     10  C   UNL     1       1.347   3.475  19.039  0.00  0.00    +0.000 C 
ATOM     11  O   UNL     1       0.793   2.409  18.757  0.00  0.00    +0.000 OA
ATOM     12  C   UNL     1       2.707   3.341  16.985  0.00  0.00    +0.000 C 
ATOM     13  C   UNL     1       4.119   2.745  17.033  0.00  0.00    +0.000 C 
ENDROOT
BRANCH   1  14
ATOM     14  N   UNL     1       6.548   7.051  17.930  0.00  0.00    +0.000 N 
ATOM     15  C   UNL     1       5.659   8.096  17.348  0.00  0.00    +0.000 C 
BRANCH  14  17
ATOM     16  C   UNL     1       8.257   8.906  18.002  0.00  0.00    +0.000 C 
ATOM     17  C   UNL     1       7.990   7.428  17.727  0.00  0.00    +0.000 C 
ENDBRANCH  14  17
ENDBRANCH   1  14
BRANCH  10  18
ATOM     18  C   UNL     1       0.959   4.207  20.340  0.00  0.00    +0.000 C 
BRANCH  18  19
ATOM     19  O   UNL     1       1.888   4.163  21.414  0.00  0.00    +0.000 OA
ATOM     20  C   UNL     1       2.253   2.835  21.764  0.00  0.00    +0.000 C 
ENDBRANCH  18  19
ENDBRANCH  10  18
TORSDOF 4
ENDMDL
MODEL 7
REMARK VINA RESULT:      -5.5      2.298      3.411
REMARK  Name = 
REMARK  7 active torsions:
REMARK  status: ('A' for Active; 'I' for Inactive)
REMARK    1  A    between atoms: C_1  and  C_2
REMARK    2  A    between atoms: C_2  and  N_3
REMARK    3  A    between atoms: N_3  and  C_4
REMARK    4  A    between atoms: N_3  and  C_5
REMARK    5  A    between atoms: C_14  and  C_16
REMARK    6  A    between atoms: C_16  and  O_17
REMARK    7  A    between atoms: O_17  and  C_18
REMARK                            x       y       z     vdW  Elec       q    Type
REMARK                         _______ _______ _______ _____ _____    ______ ____
ROOT
ATOM      1  C   UNL     1       2.071   6.268  19.745  0.00  0.00    +0.000 A 
ATOM      2  N   UNL     1       1.337   5.631  20.679  0.00  0.00    +0.000 NA
ATOM      3  C   UNL     1       1.127   4.320  20.513  0.00  0.00    +0.000 A 
ATOM      4  N   UNL     1       1.609   3.565  19.526  0.00  0.00    +0.000 NA
ATOM      5  C   UNL     1       2.353   4.202  18.602  0.00  0.00    +0.000 A 
ATOM      6  C   UNL     1       2.605   5.576  18.651  0.00  0.00    +0.000 A 
ATOM      7  C   UNL     1       3.426   6.187  17.550  0.00  0.00    +0.000 C 
ATOM      8  C   UNL     1       4.892   5.771  17.624  0.00  0.00    +0.000 C 
ATOM      9  N   UNL     1       5.125   4.471  16.989  0.00  0.00    +0.000 N 
ATOM     10  C   UNL     1       5.848   4.294  15.810  0.00  0.00    +0.000 C 
ATOM     11  O   UNL     1       5.965   3.190  15.273  0.00  0.00    +0.000 OA
ATOM     12  C   UNL     1       4.488   3.301  17.614  0.00  0.00    +0.000 C 
ATOM     13  C   UNL     1       2.957   3.324  17.527  0.00  0.00    +0.000 C 
ENDROOT
BRANCH   1  14
ATOM     14  N   UNL     1       2.297   7.690  19.925  0.00  0.00    +0.000 N 
ATOM     15  C   UNL     1       1.459   8.092  21.090  0.00  0.00    +0.000 C 
BRANCH  14  17
ATOM     16  C   UNL     1       1.116   9.710  18.978  0.00  0.00    +0.000 C 
ATOM     17  C   UNL     1       1.818   8.387  18.680  0.00  0.00    +0.000 C 
ENDBRANCH  14  17
ENDBRANCH   1  14
BRANCH  10  18
ATOM     18  C   UNL     1       6.505   5.527  15.156  0.00  0.00    +0.000 C 
BRANCH  18  19
ATOM     19  O   UNL     1       7.810   5.362  14.619  0.00  0.00    +0.000 OA
ATOM     20  C   UNL     1       7.811   5.296  13.200  0.00  0.00    +0.000 C 
ENDBRANCH  18  19
ENDBRANCH  10  18
TORSDOF 4
ENDMDL
MODEL 8
REMARK VINA RESULT:      -5.5      2.958      5.574
REMARK  Name = 
REMARK  7 active torsions:
REMARK  status: ('A' for Active; 'I' for Inactive)
REMARK    1  A    between atoms: C_1  and  C_2
REMARK    2  A    between atoms: C_2  and  N_3
REMARK    3  A    between atoms: N_3  and  C_4
REMARK    4  A    between atoms: N_3  and  C_5
REMARK    5  A    between atoms: C_14  and  C_16
REMARK    6  A    between atoms: C_16  and  O_17
REMARK    7  A    between atoms: O_17  and  C_18
REMARK                            x       y       z     vdW  Elec       q    Type
REMARK                         _______ _______ _______ _____ _____    ______ ____
ROOT
ATOM      1  C   UNL     1       7.068   5.441  16.923  0.00  0.00    +0.000 A 
ATOM      2  N   UNL     1       7.496   5.112  15.688  0.00  0.00    +0.000 NA
ATOM      3  C   UNL     1       6.809   4.177  15.022  0.00  0.00    +0.000 A 
ATOM      4  N   UNL     1       5.707   3.558  15.448  0.00  0.00    +0.000 NA
ATOM      5  C   UNL     1       5.274   3.898  16.677  0.00  0.00    +0.000 A 
ATOM      6  C   UNL     1       5.935   4.833  17.479  0.00  0.00    +0.000 A 
ATOM      7  C   UNL     1       5.377   5.115  18.846  0.00  0.00    +0.000 C 
ATOM      8  C   UNL     1       4.061   5.885  18.786  0.00  0.00    +0.000 C 
ATOM      9  N   UNL     1       2.917   4.995  18.573  0.00  0.00    +0.000 N 
ATOM     10  C   UNL     1       1.932   4.745  19.527  0.00  0.00    +0.000 C 
ATOM     11  O   UNL     1       1.019   3.938  19.331  0.00  0.00    +0.000 OA
ATOM     12  C   UNL     1       2.861   4.277  17.290  0.00  0.00    +0.000 C 
ATOM     13  C   UNL     1       3.983   3.246  17.121  0.00  0.00    +0.000 C 
ENDROOT
BRANCH   1  14
ATOM     14  N   UNL     1       7.814   6.454  17.645  0.00  0.00    +0.000 N 
ATOM     15  C   UNL     1       7.820   6.017  19.070  0.00  0.00    +0.000 C 
BRANCH  14  17
ATOM     16  C   UNL     1       7.936   8.968  17.829  0.00  0.00    +0.000 C 
ATOM     17  C   UNL     1       7.069   7.753  17.506  0.00  0.00    +0.000 C 
ENDBRANCH  14  17
ENDBRANCH   1  14
BRANCH  10  18
ATOM     18  C   UNL     1       2.002   5.495  20.874  0.00  0.00    +0.000 C 
BRANCH  18  19
ATOM     19  O   UNL     1       1.081   6.557  21.077  0.00  0.00    +0.000 OA
ATOM     20  C   UNL     1       1.632   7.825  20.743  0.00  0.00    +0.000 C 
ENDBRANCH  18  19
ENDBRANCH  10  18
TORSDOF 4
ENDMDL
MODEL 9
REMARK VINA RESULT:      -5.5      2.163      4.043
REMARK  Name = 
REMARK  7 active torsions:
REMARK  status: ('A' for Active; 'I' for Inactive)
REMARK    1  A    between atoms: C_1  and  C_2
REMARK    2  A    between atoms: C_2  and  N_3
REMARK    3  A    between atoms: N_3  and  C_4
REMARK    4  A    between atoms: N_3  and  C_5
REMARK    5  A    between atoms: C_14  and  C_16
REMARK    6  A    between atoms: C_16  and  O_17
REMARK    7  A    between atoms: O_17  and  C_18
REMARK                            x       y       z     vdW  Elec       q    Type
REMARK                         _______ _______ _______ _____ _____    ______ ____
ROOT
ATOM      1  C   UNL     1       2.231   4.230  19.506  0.00  0.00    +0.000 A 
ATOM      2  N   UNL     1       1.515   5.097  20.248  0.00  0.00    +0.000 NA
ATOM      3  C   UNL     1       1.934   6.368  20.292  0.00  0.00    +0.000 A 
ATOM      4  N   UNL     1       2.978   6.874  19.635  0.00  0.00    +0.000 NA
ATOM      5  C   UNL     1       3.683   6.008  18.884  0.00  0.00    +0.000 A 
ATOM      6  C   UNL     1       3.362   4.650  18.795  0.00  0.00    +0.000 A 
ATOM      7  C   UNL     1       4.237   3.769  17.948  0.00  0.00    +0.000 C 
ATOM      8  C   UNL     1       4.071   4.051  16.458  0.00  0.00    +0.000 C 
ATOM      9  N   UNL     1       4.896   5.181  16.020  0.00  0.00    +0.000 N 
ATOM     10  C   UNL     1       5.997   5.063  15.173  0.00  0.00    +0.000 C 
ATOM     11  O   UNL     1       6.704   6.031  14.881  0.00  0.00    +0.000 OA
ATOM     12  C   UNL     1       4.565   6.502  16.577  0.00  0.00    +0.000 C 
ATOM     13  C   UNL     1       4.821   6.607  18.086  0.00  0.00    +0.000 C 
ENDROOT
BRANCH   1  14
ATOM     14  N   UNL     1       1.777   2.852  19.460  0.00  0.00    +0.000 N 
ATOM     15  C   UNL     1       0.577   2.847  18.577  0.00  0.00    +0.000 C 
BRANCH  14  17
ATOM     16  C   UNL     1       2.572   2.488  21.827  0.00  0.00    +0.000 C 
ATOM     17  C   UNL     1       1.392   2.454  20.859  0.00  0.00    +0.000 C 
ENDBRANCH  14  17
ENDBRANCH   1  14
BRANCH  10  18
ATOM     18  C   UNL     1       6.343   3.674  14.601  0.00  0.00    +0.000 C 
BRANCH  18  19
ATOM     19  O   UNL     1       5.791   3.334  13.337  0.00  0.00    +0.000 OA
ATOM     20  C   UNL     1       6.674   3.623  12.261  0.00  0.00    +0.000 C 
ENDBRANCH  18  19
ENDBRANCH  10  18
TORSDOF 4
ENDMDL
