MODEL 1
REMARK VINA RESULT:      -8.4      0.000      0.000
REMARK  Name = 
REMARK  6 active torsions:
REMARK  status: ('A' for Active; 'I' for Inactive)
REMARK    1  A    between atoms: C_1  and  C_2
REMARK    2  A    between atoms: C_2  and  C_3
REMARK    3  A    between atoms: C_5  and  N_6
REMARK    4  A    between atoms: C_7  and  C_9
REMARK    5  A    between atoms: C_22  and  C_23
REMARK    6  A    between atoms: C_22  and  C_24
REMARK                            x       y       z     vdW  Elec       q    Type
REMARK                         _______ _______ _______ _____ _____    ______ ____
ROOT
ATOM      1  C   UNL     1       2.704   6.034  19.185  0.00  0.00    +0.000 A 
ATOM      2  C   UNL     1       2.600   7.424  19.013  0.00  0.00    +0.000 A 
ATOM      3  C   UNL     1       1.799   8.228  19.834  0.00  0.00    +0.000 A 
ATOM      4  C   UNL     1       1.115   7.636  20.898  0.00  0.00    +0.000 A 
ATOM      5  C   UNL     1       1.201   6.254  21.097  0.00  0.00    +0.000 A 
ATOM      6  C   UNL     1       1.984   5.472  20.247  0.00  0.00    +0.000 A 
ATOM      7  F   UNL     1       2.022   4.150  20.464  0.00  0.00    +0.000 F 
ENDROOT
BRANCH   1   9
ATOM      8  C   UNL     1       2.861   3.893  17.752  0.00  0.00    +0.000 C 
ATOM      9  C   UNL     1       3.585   5.161  18.279  0.00  0.00    +0.000 C 
ATOM     10  C   UNL     1       4.822   4.650  19.071  0.00  0.00    +0.000 C 
ATOM     11  O   UNL     1       6.126   5.048  18.691  0.00  0.00    +0.000 OA
ATOM     12  C   UNL     1       6.313   5.625  17.405  0.00  0.00    +0.000 C 
ATOM     13  C   UNL     1       7.202   6.836  17.731  0.00  0.00    +0.000 C 
ATOM     14  C   UNL     1       5.073   6.151  16.671  0.00  0.00    +0.000 C 
ATOM     15  N   UNL     1       5.191   6.904  15.527  0.00  0.00    +0.000 N 
ATOM     16  N   UNL     1       3.866   5.934  17.059  0.00  0.00    +0.000 NA
ATOM     17  H   UNL     1       5.956   6.706  14.891  0.00  0.00    +0.000 HD
ATOM     18  H   UNL     1       4.299   7.003  15.049  0.00  0.00    +0.000 HD
BRANCH  12  19
ATOM     19  C   UNL     1       7.053   4.658  16.447  0.00  0.00    +0.000 C 
ATOM     20  F   UNL     1       6.253   3.671  15.979  0.00  0.00    +0.000 F 
ATOM     21  F   UNL     1       7.561   5.285  15.355  0.00  0.00    +0.000 F 
ATOM     22  F   UNL     1       8.108   4.054  17.052  0.00  0.00    +0.000 F 
ENDBRANCH  12  19
ENDBRANCH   1   9
BRANCH   3  23
ATOM     23  N   UNL     1       1.665   9.619  19.618  0.00  0.00    +0.000 N 
ATOM     24  C   UNL     1       0.822  10.217  18.702  0.00  0.00    +0.000 C 
ATOM     25  O   UNL     1       0.026   9.655  17.957  0.00  0.00    +0.000 OA
ATOM     26  H   UNL     1       2.176  10.254  20.229  0.00  0.00    +0.000 HD
BRANCH  24  27
ATOM     27  C   UNL     1       0.875  11.710  18.675  0.00  0.00    +0.000 A 
ATOM     28  C   UNL     1      -0.325  12.421  18.677  0.00  0.00    +0.000 A 
ATOM     29  C   UNL     1      -0.278  13.812  18.683  0.00  0.00    +0.000 A 
ATOM     30  C   UNL     1       0.961  14.440  18.674  0.00  0.00    +0.000 A 
ATOM     31 BR   UNL     1       1.068  16.322  18.694  0.00  0.00    +0.000 Br
ATOM     32  C   UNL     1       2.109  13.655  18.658  0.00  0.00    +0.000 A 
ATOM     33  N   UNL     1       2.104  12.296  18.663  0.00  0.00    +0.000 NA
ENDBRANCH  24  27
ENDBRANCH   3  23
TORSDOF 4
ENDMDL
MODEL 2
REMARK VINA RESULT:      -8.4      0.506      1.110
REMARK  Name = 
REMARK  6 active torsions:
REMARK  status: ('A' for Active; 'I' for Inactive)
REMARK    1  A    between atoms: C_1  and  C_2
REMARK    2  A    between atoms: C_2  and  C_3
REMARK    3  A    between atoms: C_5  and  N_6
REMARK    4  A    between atoms: C_7  and  C_9
REMARK    5  A    between atoms: C_22  and  C_23
REMARK    6  A    between atoms: C_22  and  C_24
REMARK                            x       y       z     vdW  Elec       q    Type
REMARK                         _______ _______ _______ _____ _____    ______ ____
ROOT
ATOM      1  C   UNL     1       2.709   5.989  19.183  0.00  0.00    +0.000 A 
ATOM      2  C   UNL     1       2.608   7.383  19.039  0.00  0.00    +0.000 A 
ATOM      3  C   UNL     1       1.807   8.172  19.876  0.00  0.00    +0.000 A 
ATOM      4  C   UNL     1       1.120   7.559  20.926  0.00  0.00    +0.000 A 
ATOM      5  C   UNL     1       1.204   6.174  21.096  0.00  0.00    +0.000 A 
ATOM      6  C   UNL     1       1.987   5.408  20.232  0.00  0.00    +0.000 A 
ATOM      7  F   UNL     1       2.021   4.081  20.422  0.00  0.00    +0.000 F 
ENDROOT
BRANCH   1   9
ATOM      8  C   UNL     1       2.867   3.872  17.715  0.00  0.00    +0.000 C 
ATOM      9  C   UNL     1       3.590   5.134  18.260  0.00  0.00    +0.000 C 
ATOM     10  C   UNL     1       4.831   4.613  19.040  0.00  0.00    +0.000 C 
ATOM     11  O   UNL     1       6.132   5.022  18.663  0.00  0.00    +0.000 OA
ATOM     12  C   UNL     1       6.313   5.619  17.386  0.00  0.00    +0.000 C 
ATOM     13  C   UNL     1       7.201   6.827  17.729  0.00  0.00    +0.000 C 
ATOM     14  C   UNL     1       5.070   6.154  16.664  0.00  0.00    +0.000 C 
ATOM     15  N   UNL     1       5.183   6.925  15.531  0.00  0.00    +0.000 N 
ATOM     16  N   UNL     1       3.865   5.927  17.052  0.00  0.00    +0.000 NA
ATOM     17  H   UNL     1       5.946   6.740  14.891  0.00  0.00    +0.000 HD
ATOM     18  H   UNL     1       4.289   7.029  15.059  0.00  0.00    +0.000 HD
BRANCH  12  19
ATOM     19  C   UNL     1       7.053   4.670  16.410  0.00  0.00    +0.000 C 
ATOM     20  F   UNL     1       7.522   5.308  15.313  0.00  0.00    +0.000 F 
ATOM     21  F   UNL     1       8.124   4.059  16.981  0.00  0.00    +0.000 F 
ATOM     22  F   UNL     1       6.249   3.670  15.968  0.00  0.00    +0.000 F 
ENDBRANCH  12  19
ENDBRANCH   1   9
BRANCH   3  23
ATOM     23  N   UNL     1       1.676   9.567  19.688  0.00  0.00    +0.000 N 
ATOM     24  C   UNL     1       0.921  10.184  18.710  0.00  0.00    +0.000 C 
ATOM     25  O   UNL     1       0.211   9.637  17.872  0.00  0.00    +0.000 OA
ATOM     26  H   UNL     1       2.115  10.189  20.366  0.00  0.00    +0.000 HD
BRANCH  24  27
ATOM     27  C   UNL     1       0.955  11.678  18.732  0.00  0.00    +0.000 A 
ATOM     28  C   UNL     1       2.144  12.323  18.394  0.00  0.00    +0.000 A 
ATOM     29  C   UNL     1       2.171  13.715  18.385  0.00  0.00    +0.000 A 
ATOM     30  C   UNL     1       1.015  14.408  18.725  0.00  0.00    +0.000 A 
ATOM     31 BR   UNL     1       1.006  16.293  18.713  0.00  0.00    +0.000 Br
ATOM     32  C   UNL     1      -0.124  13.686  19.063  0.00  0.00    +0.000 A 
ATOM     33  N   UNL     1      -0.191  12.328  19.073  0.00  0.00    +0.000 NA
ENDBRANCH  24  27
ENDBRANCH   3  23
TORSDOF 4
ENDMDL
MODEL 3
REMARK VINA RESULT:      -8.1      4.501      6.709
REMARK  Name = 
REMARK  6 active torsions:
REMARK  status: ('A' for Active; 'I' for Inactive)
REMARK    1  A    between atoms: C_1  and  C_2
REMARK    2  A    between atoms: C_2  and  C_3
REMARK    3  A    between atoms: C_5  and  N_6
REMARK    4  A    between atoms: C_7  and  C_9
REMARK    5  A    between atoms: C_22  and  C_23
REMARK    6  A    between atoms: C_22  and  C_24
REMARK                            x       y       z     vdW  Elec       q    Type
REMARK                         _______ _______ _______ _____ _____    ______ ____
ROOT
ATOM      1  C   UNL     1       4.679   5.513  17.446  0.00  0.00    +0.000 A 
ATOM      2  C   UNL     1       5.322   6.741  17.676  0.00  0.00    +0.000 A 
ATOM      3  C   UNL     1       6.528   7.090  17.053  0.00  0.00    +0.000 A 
ATOM      4  C   UNL     1       7.090   6.208  16.129  0.00  0.00    +0.000 A 
ATOM      5  C   UNL     1       6.471   4.980  15.875  0.00  0.00    +0.000 A 
ATOM      6  C   UNL     1       5.286   4.644  16.531  0.00  0.00    +0.000 A 
ATOM      7  F   UNL     1       4.739   3.448  16.271  0.00  0.00    +0.000 F 
ENDROOT
BRANCH   1   9
ATOM      8  C   UNL     1       2.142   5.953  17.614  0.00  0.00    +0.000 C 
ATOM      9  C   UNL     1       3.358   5.140  18.134  0.00  0.00    +0.000 C 
ATOM     10  C   UNL     1       3.450   5.434  19.659  0.00  0.00    +0.000 C 
ATOM     11  O   UNL     1       3.370   4.376  20.594  0.00  0.00    +0.000 OA
ATOM     12  C   UNL     1       2.872   3.118  20.157  0.00  0.00    +0.000 C 
ATOM     13  C   UNL     1       3.895   2.146  20.768  0.00  0.00    +0.000 C 
ATOM     14  C   UNL     1       2.831   2.851  18.647  0.00  0.00    +0.000 C 
ATOM     15  N   UNL     1       2.562   1.596  18.155  0.00  0.00    +0.000 N 
ATOM     16  N   UNL     1       3.038   3.755  17.756  0.00  0.00    +0.000 NA
ATOM     17  H   UNL     1       1.919   1.001  18.665  0.00  0.00    +0.000 HD
ATOM     18  H   UNL     1       2.369   1.619  17.157  0.00  0.00    +0.000 HD
BRANCH  12  19
ATOM     19  C   UNL     1       1.458   2.835  20.724  0.00  0.00    +0.000 C 
ATOM     20  F   UNL     1       0.777   3.967  21.021  0.00  0.00    +0.000 F 
ATOM     21  F   UNL     1       0.675   2.136  19.862  0.00  0.00    +0.000 F 
ATOM     22  F   UNL     1       1.507   2.097  21.862  0.00  0.00    +0.000 F 
ENDBRANCH  12  19
ENDBRANCH   1   9
BRANCH   3  23
ATOM     23  N   UNL     1       7.189   8.309  17.333  0.00  0.00    +0.000 N 
ATOM     24  C   UNL     1       8.171   8.495  18.286  0.00  0.00    +0.000 C 
ATOM     25  O   UNL     1       8.662   7.639  19.016  0.00  0.00    +0.000 OA
ATOM     26  H   UNL     1       6.986   9.114  16.744  0.00  0.00    +0.000 HD
BRANCH  24  27
ATOM     27  C   UNL     1       8.706   9.887  18.379  0.00  0.00    +0.000 A 
ATOM     28  C   UNL     1       9.715  10.155  19.304  0.00  0.00    +0.000 A 
ATOM     29  C   UNL     1      10.236  11.443  19.371  0.00  0.00    +0.000 A 
ATOM     30  C   UNL     1       9.723  12.417  18.523  0.00  0.00    +0.000 A 
ATOM     31 BR   UNL     1      10.411  14.172  18.574  0.00  0.00    +0.000 Br
ATOM     32  C   UNL     1       8.708  12.069  17.640  0.00  0.00    +0.000 A 
ATOM     33  N   UNL     1       8.181  10.820  17.537  0.00  0.00    +0.000 NA
ENDBRANCH  24  27
ENDBRANCH   3  23
TORSDOF 4
ENDMDL
MODEL 4
REMARK VINA RESULT:      -8.1      3.144      4.112
REMARK  Name = 
REMARK  6 active torsions:
REMARK  status: ('A' for Active; 'I' for Inactive)
REMARK    1  A    between atoms: C_1  and  C_2
REMARK    2  A    between atoms: C_2  and  C_3
REMARK    3  A    between atoms: C_5  and  N_6
REMARK    4  A    between atoms: C_7  and  C_9
REMARK    5  A    between atoms: C_22  and  C_23
REMARK    6  A    between atoms: C_22  and  C_24
REMARK                            x       y       z     vdW  Elec       q    Type
REMARK                         _______ _______ _______ _____ _____    ______ ____
ROOT
ATOM      1  C   UNL     1       2.228   7.169  19.188  0.00  0.00    +0.000 A 
ATOM      2  C   UNL     1       1.451   8.094  19.905  0.00  0.00    +0.000 A 
ATOM      3  C   UNL     1       1.274   9.418  19.483  0.00  0.00    +0.000 A 
ATOM      4  C   UNL     1       1.848   9.825  18.277  0.00  0.00    +0.000 A 
ATOM      5  C   UNL     1       2.624   8.926  17.539  0.00  0.00    +0.000 A 
ATOM      6  C   UNL     1       2.808   7.620  17.996  0.00  0.00    +0.000 A 
ATOM      7  F   UNL     1       3.576   6.799  17.265  0.00  0.00    +0.000 F 
ENDROOT
BRANCH   1   9
ATOM      8  C   UNL     1       1.714   5.415  21.010  0.00  0.00    +0.000 C 
ATOM      9  C   UNL     1       2.416   5.720  19.659  0.00  0.00    +0.000 C 
ATOM     10  C   UNL     1       3.927   5.425  19.885  0.00  0.00    +0.000 C 
ATOM     11  O   UNL     1       4.592   4.463  19.089  0.00  0.00    +0.000 OA
ATOM     12  C   UNL     1       3.809   3.545  18.336  0.00  0.00    +0.000 C 
ATOM     13  C   UNL     1       4.512   3.584  16.969  0.00  0.00    +0.000 C 
ATOM     14  C   UNL     1       2.332   3.889  18.103  0.00  0.00    +0.000 C 
ATOM     15  N   UNL     1       1.567   3.167  17.218  0.00  0.00    +0.000 N 
ATOM     16  N   UNL     1       1.719   4.848  18.700  0.00  0.00    +0.000 NA
ATOM     17  H   UNL     1       1.749   2.175  17.114  0.00  0.00    +0.000 HD
ATOM     18  H   UNL     1       0.577   3.376  17.323  0.00  0.00    +0.000 HD
BRANCH  12  19
ATOM     19  C   UNL     1       3.873   2.117  18.931  0.00  0.00    +0.000 C 
ATOM     20  F   UNL     1       4.930   1.940  19.758  0.00  0.00    +0.000 F 
ATOM     21  F   UNL     1       2.768   1.798  19.654  0.00  0.00    +0.000 F 
ATOM     22  F   UNL     1       3.969   1.168  17.965  0.00  0.00    +0.000 F 
ENDBRANCH  12  19
ENDBRANCH   1   9
BRANCH   3  23
ATOM     23  N   UNL     1       0.530  10.352  20.242  0.00  0.00    +0.000 N 
ATOM     24  C   UNL     1       0.554  10.478  21.617  0.00  0.00    +0.000 C 
ATOM     25  O   UNL     1       1.246   9.840  22.404  0.00  0.00    +0.000 OA
ATOM     26  H   UNL     1      -0.025  11.045  19.744  0.00  0.00    +0.000 HD
BRANCH  24  27
ATOM     27  C   UNL     1      -0.330  11.549  22.169  0.00  0.00    +0.000 A 
ATOM     28  C   UNL     1      -1.499  11.174  22.830  0.00  0.00    +0.000 A 
ATOM     29  C   UNL     1      -2.310  12.167  23.371  0.00  0.00    +0.000 A 
ATOM     30  C   UNL     1      -1.929  13.496  23.222  0.00  0.00    +0.000 A 
ATOM     31 BR   UNL     1      -2.993  14.871  23.951  0.00  0.00    +0.000 Br
ATOM     32  C   UNL     1      -0.754  13.783  22.536  0.00  0.00    +0.000 A 
ATOM     33  N   UNL     1       0.068  12.840  22.004  0.00  0.00    +0.000 NA
ENDBRANCH  24  27
ENDBRANCH   3  23
TORSDOF 4
ENDMDL
MODEL 5
REMARK VINA RESULT:      -8.1      4.292      6.628
REMARK  Name = 
REMARK  6 active torsions:
REMARK  status: ('A' for Active; 'I' for Inactive)
REMARK    1  A    between atoms: C_1  and  C_2
REMARK    2  A    between atoms: C_2  and  C_3
REMARK    3  A    between atoms: C_5  and  N_6
REMARK    4  A    between atoms: C_7  and  C_9
REMARK    5  A    between atoms: C_22  and  C_23
REMARK    6  A    between atoms: C_22  and  C_24
REMARK                            x       y       z     vdW  Elec       q    Type
REMARK                         _______ _______ _______ _____ _____    ______ ____
ROOT
ATOM      1  C   UNL     1       4.837   5.768  17.661  0.00  0.00    +0.000 A 
ATOM      2  C   UNL     1       5.436   7.038  17.707  0.00  0.00    +0.000 A 
ATOM      3  C   UNL     1       6.726   7.282  17.216  0.00  0.00    +0.000 A 
ATOM      4  C   UNL     1       7.426   6.237  16.611  0.00  0.00    +0.000 A 
ATOM      5  C   UNL     1       6.855   4.962  16.547  0.00  0.00    +0.000 A 
ATOM      6  C   UNL     1       5.580   4.739  17.069  0.00  0.00    +0.000 A 
ATOM      7  F   UNL     1       5.081   3.497  17.003  0.00  0.00    +0.000 F 
ENDROOT
BRANCH   1   9
ATOM      8  C   UNL     1       2.375   6.542  17.702  0.00  0.00    +0.000 C 
ATOM      9  C   UNL     1       3.423   5.511  18.202  0.00  0.00    +0.000 C 
ATOM     10  C   UNL     1       3.420   5.615  19.754  0.00  0.00    +0.000 C 
ATOM     11  O   UNL     1       3.119   4.479  20.543  0.00  0.00    +0.000 OA
ATOM     12  C   UNL     1       2.498   3.363  19.919  0.00  0.00    +0.000 C 
ATOM     13  C   UNL     1       3.326   2.193  20.475  0.00  0.00    +0.000 C 
ATOM     14  C   UNL     1       2.554   3.277  18.388  0.00  0.00    +0.000 C 
ATOM     15  N   UNL     1       2.165   2.137  17.726  0.00  0.00    +0.000 N 
ATOM     16  N   UNL     1       2.956   4.237  17.633  0.00  0.00    +0.000 NA
ATOM     17  H   UNL     1       1.407   1.585  18.112  0.00  0.00    +0.000 HD
ATOM     18  H   UNL     1       2.064   2.300  16.728  0.00  0.00    +0.000 HD
BRANCH  12  19
ATOM     19  C   UNL     1       1.015   3.222  20.345  0.00  0.00    +0.000 C 
ATOM     20  F   UNL     1       0.304   2.427  19.511  0.00  0.00    +0.000 F 
ATOM     21  F   UNL     1       0.872   2.692  21.587  0.00  0.00    +0.000 F 
ATOM     22  F   UNL     1       0.381   4.422  20.379  0.00  0.00    +0.000 F 
ENDBRANCH  12  19
ENDBRANCH   1   9
BRANCH   3  23
ATOM     23  N   UNL     1       7.336   8.554  17.314  0.00  0.00    +0.000 N 
ATOM     24  C   UNL     1       8.299   8.920  18.234  0.00  0.00    +0.000 C 
ATOM     25  O   UNL     1       8.815   8.203  19.085  0.00  0.00    +0.000 OA
ATOM     26  H   UNL     1       7.107   9.254  16.611  0.00  0.00    +0.000 HD
BRANCH  24  27
ATOM     27  C   UNL     1       8.778  10.331  18.121  0.00  0.00    +0.000 A 
ATOM     28  C   UNL     1       7.936  11.277  17.537  0.00  0.00    +0.000 A 
ATOM     29  C   UNL     1       8.367  12.597  17.457  0.00  0.00    +0.000 A 
ATOM     30  C   UNL     1       9.625  12.921  17.951  0.00  0.00    +0.000 A 
ATOM     31 BR   UNL     1      10.241  14.702  17.874  0.00  0.00    +0.000 Br
ATOM     32  C   UNL     1      10.406  11.914  18.505  0.00  0.00    +0.000 A 
ATOM     33  N   UNL     1      10.016  10.616  18.610  0.00  0.00    +0.000 NA
ENDBRANCH  24  27
ENDBRANCH   3  23
TORSDOF 4
ENDMDL
MODEL 6
REMARK VINA RESULT:      -8.1      1.046      1.055
REMARK  Name = 
REMARK  6 active torsions:
REMARK  status: ('A' for Active; 'I' for Inactive)
REMARK    1  A    between atoms: C_1  and  C_2
REMARK    2  A    between atoms: C_2  and  C_3
REMARK    3  A    between atoms: C_5  and  N_6
REMARK    4  A    between atoms: C_7  and  C_9
REMARK    5  A    between atoms: C_22  and  C_23
REMARK    6  A    between atoms: C_22  and  C_24
REMARK                            x       y       z     vdW  Elec       q    Type
REMARK                         _______ _______ _______ _____ _____    ______ ____
ROOT
ATOM      1  C   UNL     1       2.721   5.953  19.144  0.00  0.00    +0.000 A 
ATOM      2  C   UNL     1       2.505   7.329  18.969  0.00  0.00    +0.000 A 
ATOM      3  C   UNL     1       1.702   8.083  19.835  0.00  0.00    +0.000 A 
ATOM      4  C   UNL     1       1.134   7.456  20.945  0.00  0.00    +0.000 A 
ATOM      5  C   UNL     1       1.334   6.087  21.149  0.00  0.00    +0.000 A 
ATOM      6  C   UNL     1       2.115   5.354  20.255  0.00  0.00    +0.000 A 
ATOM      7  F   UNL     1       2.263   4.040  20.479  0.00  0.00    +0.000 F 
ENDROOT
BRANCH   1   9
ATOM      8  C   UNL     1       2.879   3.901  17.586  0.00  0.00    +0.000 C 
ATOM      9  C   UNL     1       3.603   5.136  18.188  0.00  0.00    +0.000 C 
ATOM     10  C   UNL     1       4.839   4.578  18.949  0.00  0.00    +0.000 C 
ATOM     11  O   UNL     1       6.143   4.998  18.595  0.00  0.00    +0.000 OA
ATOM     12  C   UNL     1       6.331   5.650  17.345  0.00  0.00    +0.000 C 
ATOM     13  C   UNL     1       7.220   6.840  17.743  0.00  0.00    +0.000 C 
ATOM     14  C   UNL     1       5.091   6.219  16.643  0.00  0.00    +0.000 C 
ATOM     15  N   UNL     1       5.211   7.039  15.545  0.00  0.00    +0.000 N 
ATOM     16  N   UNL     1       3.885   5.979  17.016  0.00  0.00    +0.000 NA
ATOM     17  H   UNL     1       5.976   6.878  14.899  0.00  0.00    +0.000 HD
ATOM     18  H   UNL     1       4.319   7.166  15.074  0.00  0.00    +0.000 HD
BRANCH  12  19
ATOM     19  C   UNL     1       7.071   4.742  16.332  0.00  0.00    +0.000 C 
ATOM     20  F   UNL     1       6.269   3.794  15.794  0.00  0.00    +0.000 F 
ATOM     21  F   UNL     1       7.593   5.435  15.287  0.00  0.00    +0.000 F 
ATOM     22  F   UNL     1       8.117   4.092  16.904  0.00  0.00    +0.000 F 
ENDBRANCH  12  19
ENDBRANCH   1   9
BRANCH   3  23
ATOM     23  N   UNL     1       1.452   9.458  19.618  0.00  0.00    +0.000 N 
ATOM     24  C   UNL     1       1.177  10.394  20.596  0.00  0.00    +0.000 C 
ATOM     25  O   UNL     1       1.143  10.205  21.808  0.00  0.00    +0.000 OA
ATOM     26  H   UNL     1       1.547   9.823  18.672  0.00  0.00    +0.000 HD
BRANCH  24  27
ATOM     27  C   UNL     1       0.950  11.783  20.096  0.00  0.00    +0.000 A 
ATOM     28  C   UNL     1       0.129  11.967  18.983  0.00  0.00    +0.000 A 
ATOM     29  C   UNL     1      -0.107  13.262  18.533  0.00  0.00    +0.000 A 
ATOM     30  C   UNL     1       0.492  14.323  19.202  0.00  0.00    +0.000 A 
ATOM     31 BR   UNL     1       0.186  16.094  18.631  0.00  0.00    +0.000 Br
ATOM     32  C   UNL     1       1.307  14.050  20.294  0.00  0.00    +0.000 A 
ATOM     33  N   UNL     1       1.554  12.801  20.769  0.00  0.00    +0.000 NA
ENDBRANCH  24  27
ENDBRANCH   3  23
TORSDOF 4
ENDMDL
MODEL 7
REMARK VINA RESULT:      -8.0      4.236      6.698
REMARK  Name = 
REMARK  6 active torsions:
REMARK  status: ('A' for Active; 'I' for Inactive)
REMARK    1  A    between atoms: C_1  and  C_2
REMARK    2  A    between atoms: C_2  and  C_3
REMARK    3  A    between atoms: C_5  and  N_6
REMARK    4  A    between atoms: C_7  and  C_9
REMARK    5  A    between atoms: C_22  and  C_23
REMARK    6  A    between atoms: C_22  and  C_24
REMARK                            x       y       z     vdW  Elec       q    Type
REMARK                         _______ _______ _______ _____ _____    ______ ____
ROOT
ATOM      1  C   UNL     1       4.980   5.977  18.011  0.00  0.00    +0.000 A 
ATOM      2  C   UNL     1       5.607   7.234  18.016  0.00  0.00    +0.000 A 
ATOM      3  C   UNL     1       6.787   7.492  17.306  0.00  0.00    +0.000 A 
ATOM      4  C   UNL     1       7.338   6.476  16.522  0.00  0.00    +0.000 A 
ATOM      5  C   UNL     1       6.734   5.215  16.493  0.00  0.00    +0.000 A 
ATOM      6  C   UNL     1       5.575   4.977  17.232  0.00  0.00    +0.000 A 
ATOM      7  F   UNL     1       5.043   3.747  17.190  0.00  0.00    +0.000 F 
ENDROOT
BRANCH   1   9
ATOM      8  C   UNL     1       3.046   6.988  19.389  0.00  0.00    +0.000 C 
ATOM      9  C   UNL     1       3.687   5.705  18.793  0.00  0.00    +0.000 C 
ATOM     10  C   UNL     1       3.981   4.772  20.002  0.00  0.00    +0.000 C 
ATOM     11  O   UNL     1       3.405   3.482  20.064  0.00  0.00    +0.000 OA
ATOM     12  C   UNL     1       2.309   3.185  19.207  0.00  0.00    +0.000 C 
ATOM     13  C   UNL     1       2.706   1.806  18.657  0.00  0.00    +0.000 C 
ATOM     14  C   UNL     1       2.073   4.108  18.004  0.00  0.00    +0.000 C 
ATOM     15  N   UNL     1       1.173   3.774  17.019  0.00  0.00    +0.000 N 
ATOM     16  N   UNL     1       2.680   5.228  17.832  0.00  0.00    +0.000 NA
ATOM     17  H   UNL     1       0.337   3.262  17.278  0.00  0.00    +0.000 HD
ATOM     18  H   UNL     1       0.978   4.563  16.408  0.00  0.00    +0.000 HD
BRANCH  12  19
ATOM     19  C   UNL     1       0.978   3.087  19.994  0.00  0.00    +0.000 C 
ATOM     20  F   UNL     1       0.031   2.379  19.334  0.00  0.00    +0.000 F 
ATOM     21  F   UNL     1       1.125   2.488  21.204  0.00  0.00    +0.000 F 
ATOM     22  F   UNL     1       0.448   4.310  20.248  0.00  0.00    +0.000 F 
ENDBRANCH  12  19
ENDBRANCH   1   9
BRANCH   3  23
ATOM     23  N   UNL     1       7.434   8.748  17.361  0.00  0.00    +0.000 N 
ATOM     24  C   UNL     1       8.407   9.117  18.269  0.00  0.00    +0.000 C 
ATOM     25  O   UNL     1       8.900   8.416  19.147  0.00  0.00    +0.000 OA
ATOM     26  H   UNL     1       7.228   9.429  16.632  0.00  0.00    +0.000 HD
BRANCH  24  27
ATOM     27  C   UNL     1       8.928  10.509  18.107  0.00  0.00    +0.000 A 
ATOM     28  C   UNL     1      10.252  10.771  18.456  0.00  0.00    +0.000 A 
ATOM     29  C   UNL     1      10.748  12.059  18.278  0.00  0.00    +0.000 A 
ATOM     30  C   UNL     1       9.902  13.037  17.770  0.00  0.00    +0.000 A 
ATOM     31 BR   UNL     1      10.539  14.792  17.502  0.00  0.00    +0.000 Br
ATOM     32  C   UNL     1       8.591  12.694  17.460  0.00  0.00    +0.000 A 
ATOM     33  N   UNL     1       8.074  11.446  17.611  0.00  0.00    +0.000 NA
ENDBRANCH  24  27
ENDBRANCH   3  23
TORSDOF 4
ENDMDL
MODEL 8
REMARK VINA RESULT:      -7.9      0.954      1.094
REMARK  Name = 
REMARK  6 active torsions:
REMARK  status: ('A' for Active; 'I' for Inactive)
REMARK    1  A    between atoms: C_1  and  C_2
REMARK    2  A    between atoms: C_2  and  C_3
REMARK    3  A    between atoms: C_5  and  N_6
REMARK    4  A    between atoms: C_7  and  C_9
REMARK    5  A    between atoms: C_22  and  C_23
REMARK    6  A    between atoms: C_22  and  C_24
REMARK                            x       y       z     vdW  Elec       q    Type
REMARK                         _______ _______ _______ _____ _____    ______ ____
ROOT
ATOM      1  C   UNL     1       2.731   5.881  19.105  0.00  0.00    +0.000 A 
ATOM      2  C   UNL     1       2.514   7.260  18.948  0.00  0.00    +0.000 A 
ATOM      3  C   UNL     1       1.717   8.004  19.828  0.00  0.00    +0.000 A 
ATOM      4  C   UNL     1       1.155   7.363  20.934  0.00  0.00    +0.000 A 
ATOM      5  C   UNL     1       1.355   5.992  21.119  0.00  0.00    +0.000 A 
ATOM      6  C   UNL     1       2.130   5.269  20.211  0.00  0.00    +0.000 A 
ATOM      7  F   UNL     1       2.278   3.952  20.418  0.00  0.00    +0.000 F 
ENDROOT
BRANCH   1   9
ATOM      8  C   UNL     1       2.878   3.847  17.523  0.00  0.00    +0.000 C 
ATOM      9  C   UNL     1       3.606   5.075  18.134  0.00  0.00    +0.000 C 
ATOM     10  C   UNL     1       4.848   4.509  18.879  0.00  0.00    +0.000 C 
ATOM     11  O   UNL     1       6.149   4.934  18.521  0.00  0.00    +0.000 OA
ATOM     12  C   UNL     1       6.327   5.601  17.277  0.00  0.00    +0.000 C 
ATOM     13  C   UNL     1       7.219   6.786  17.682  0.00  0.00    +0.000 C 
ATOM     14  C   UNL     1       5.083   6.177  16.590  0.00  0.00    +0.000 C 
ATOM     15  N   UNL     1       5.194   7.008  15.501  0.00  0.00    +0.000 N 
ATOM     16  N   UNL     1       3.879   5.932  16.969  0.00  0.00    +0.000 NA
ATOM     17  H   UNL     1       5.955   6.856  14.848  0.00  0.00    +0.000 HD
ATOM     18  H   UNL     1       4.299   7.140  15.038  0.00  0.00    +0.000 HD
BRANCH  12  19
ATOM     19  C   UNL     1       7.061   4.704  16.249  0.00  0.00    +0.000 C 
ATOM     20  F   UNL     1       6.247   3.782  15.682  0.00  0.00    +0.000 F 
ATOM     21  F   UNL     1       7.604   5.412  15.225  0.00  0.00    +0.000 F 
ATOM     22  F   UNL     1       8.091   4.022  16.814  0.00  0.00    +0.000 F 
ENDBRANCH  12  19
ENDBRANCH   1   9
BRANCH   3  23
ATOM     23  N   UNL     1       1.468   9.382  19.630  0.00  0.00    +0.000 N 
ATOM     24  C   UNL     1       0.353  10.072  20.065  0.00  0.00    +0.000 C 
ATOM     25  O   UNL     1      -0.580   9.625  20.724  0.00  0.00    +0.000 OA
ATOM     26  H   UNL     1       2.194   9.945  19.191  0.00  0.00    +0.000 HD
BRANCH  24  27
ATOM     27  C   UNL     1       0.337  11.526  19.721  0.00  0.00    +0.000 A 
ATOM     28  C   UNL     1       1.064  12.409  20.519  0.00  0.00    +0.000 A 
ATOM     29  C   UNL     1       1.075  13.759  20.184  0.00  0.00    +0.000 A 
ATOM     30  C   UNL     1       0.351  14.179  19.074  0.00  0.00    +0.000 A 
ATOM     31 BR   UNL     1       0.351  15.999  18.579  0.00  0.00    +0.000 Br
ATOM     32  C   UNL     1      -0.358  13.235  18.341  0.00  0.00    +0.000 A 
ATOM     33  N   UNL     1      -0.384  11.907  18.631  0.00  0.00    +0.000 NA
ENDBRANCH  24  27
ENDBRANCH   3  23
TORSDOF 4
ENDMDL
MODEL 9
REMARK VINA RESULT:      -7.9      2.955      3.949
REMARK  Name = 
REMARK  6 active torsions:
REMARK  status: ('A' for Active; 'I' for Inactive)
REMARK    1  A    between atoms: C_1  and  C_2
REMARK    2  A    between atoms: C_2  and  C_3
REMARK    3  A    between atoms: C_5  and  N_6
REMARK    4  A    between atoms: C_7  and  C_9
REMARK    5  A    between atoms: C_22  and  C_23
REMARK    6  A    between atoms: C_22  and  C_24
REMARK                            x       y       z     vdW  Elec       q    Type
REMARK                         _______ _______ _______ _____ _____    ______ ____
ROOT
ATOM      1  C   UNL     1       2.243   7.169  19.165  0.00  0.00    +0.000 A 
ATOM      2  C   UNL     1       1.469   8.101  19.876  0.00  0.00    +0.000 A 
ATOM      3  C   UNL     1       1.295   9.423  19.445  0.00  0.00    +0.000 A 
ATOM      4  C   UNL     1       1.870   9.820  18.236  0.00  0.00    +0.000 A 
ATOM      5  C   UNL     1       2.643   8.913  17.504  0.00  0.00    +0.000 A 
ATOM      6  C   UNL     1       2.824   7.611  17.970  0.00  0.00    +0.000 A 
ATOM      7  F   UNL     1       3.589   6.782  17.245  0.00  0.00    +0.000 F 
ENDROOT
BRANCH   1   9
ATOM      8  C   UNL     1       1.718   5.428  20.996  0.00  0.00    +0.000 C 
ATOM      9  C   UNL     1       2.427   5.723  19.647  0.00  0.00    +0.000 C 
ATOM     10  C   UNL     1       3.936   5.428  19.883  0.00  0.00    +0.000 C 
ATOM     11  O   UNL     1       4.605   4.460  19.096  0.00  0.00    +0.000 OA
ATOM     12  C   UNL     1       3.824   3.539  18.345  0.00  0.00    +0.000 C 
ATOM     13  C   UNL     1       4.534   3.568  16.981  0.00  0.00    +0.000 C 
ATOM     14  C   UNL     1       2.349   3.883  18.102  0.00  0.00    +0.000 C 
ATOM     15  N   UNL     1       1.587   3.156  17.218  0.00  0.00    +0.000 N 
ATOM     16  N   UNL     1       1.734   4.846  18.690  0.00  0.00    +0.000 NA
ATOM     17  H   UNL     1       1.769   2.163  17.121  0.00  0.00    +0.000 HD
ATOM     18  H   UNL     1       0.597   3.367  17.317  0.00  0.00    +0.000 HD
BRANCH  12  19
ATOM     19  C   UNL     1       3.883   2.114  18.950  0.00  0.00    +0.000 C 
ATOM     20  F   UNL     1       3.971   1.147  18.006  0.00  0.00    +0.000 F 
ATOM     21  F   UNL     1       4.947   1.936  19.775  0.00  0.00    +0.000 F 
ATOM     22  F   UNL     1       2.785   1.834  19.696  0.00  0.00    +0.000 F 
ENDBRANCH  12  19
ENDBRANCH   1   9
BRANCH   3  23
ATOM     23  N   UNL     1       0.555  10.365  20.197  0.00  0.00    +0.000 N 
ATOM     24  C   UNL     1      -0.725  10.800  19.912  0.00  0.00    +0.000 C 
ATOM     25  O   UNL     1      -1.445  10.420  18.995  0.00  0.00    +0.000 OA
ATOM     26  H   UNL     1       0.957  10.712  21.066  0.00  0.00    +0.000 HD
BRANCH  24  27
ATOM     27  C   UNL     1      -1.279  11.803  20.871  0.00  0.00    +0.000 A 
ATOM     28  C   UNL     1      -0.811  11.802  22.184  0.00  0.00    +0.000 A 
ATOM     29  C   UNL     1      -1.303  12.754  23.071  0.00  0.00    +0.000 A 
ATOM     30  C   UNL     1      -2.251  13.663  22.618  0.00  0.00    +0.000 A 
ATOM     31 BR   UNL     1      -2.934  14.978  23.785  0.00  0.00    +0.000 Br
ATOM     32  C   UNL     1      -2.674  13.586  21.296  0.00  0.00    +0.000 A 
ATOM     33  N   UNL     1      -2.209  12.678  20.398  0.00  0.00    +0.000 NA
ENDBRANCH  24  27
ENDBRANCH   3  23
TORSDOF 4
ENDMDL
