MODEL 1
REMARK VINA RESULT:      -6.5      0.000      0.000
REMARK  Name = 
REMARK  11 active torsions:
REMARK  status: ('A' for Active; 'I' for Inactive)
REMARK    1  A    between atoms: C_1  and  C_2
REMARK    2  A    between atoms: C_2  and  C_5
REMARK    3  A    between atoms: N_3  and  O_4
REMARK    4  A    between atoms: C_7  and  C_8
REMARK    5  A    between atoms: C_10  and  C_11
REMARK    6  A    between atoms: C_12  and  N_13
REMARK    7  A    between atoms: C_14  and  C_16
REMARK    8  A    between atoms: C_20  and  S_21
REMARK    9  A    between atoms: S_21  and  N_24
REMARK   10  A    between atoms: N_24  and  C_25
REMARK   11  A    between atoms: C_28  and  C_29
REMARK                            x       y       z     vdW  Elec       q    Type
REMARK                         _______ _______ _______ _____ _____    ______ ____
ROOT
ATOM      1  N   UNL     1       0.726  12.383  21.171  0.00  0.00    +0.000 N 
ATOM      2  C   UNL     1      -0.560  12.923  21.249  0.00  0.00    +0.000 C 
ATOM      3  O   UNL     1      -1.424  12.624  20.423  0.00  0.00    +0.000 OA
ATOM      4  H   UNL     1       1.459  13.089  21.248  0.00  0.00    +0.000 HD
ENDROOT
BRANCH   1  12
ATOM      5  C   UNL     1       0.847   9.979  20.579  0.00  0.00    +0.000 A 
ATOM      6  C   UNL     1       1.329   9.012  19.674  0.00  0.00    +0.000 A 
ATOM      7  C   UNL     1       1.843   9.360  18.421  0.00  0.00    +0.000 A 
ATOM      8  C   UNL     1       2.396   8.321  17.493  0.00  0.00    +0.000 C 
ATOM      9  C   UNL     1       1.844  10.697  18.039  0.00  0.00    +0.000 A 
ATOM     10  C   UNL     1       1.405  11.700  18.915  0.00  0.00    +0.000 A 
ATOM     11  C   UNL     1       1.371  13.114  18.381  0.00  0.00    +0.000 C 
ATOM     12  C   UNL     1       0.970  11.345  20.223  0.00  0.00    +0.000 A 
BRANCH   5  14
ATOM     13  C   UNL     1      -0.746   8.372  21.889  0.00  0.00    +0.000 C 
ATOM     14  C   UNL     1       0.282   9.506  21.905  0.00  0.00    +0.000 C 
ATOM     15  N   UNL     1       0.683  10.061  23.017  0.00  0.00    +0.000 NA
BRANCH  15  16
ATOM     16  O   UNL     1       0.080   9.463  24.133  0.00  0.00    +0.000 OA
ATOM     17  H   UNL     1      -0.013  10.198  24.764  0.00  0.00    +0.000 HD
ENDBRANCH  15  16
ENDBRANCH   5  14
ENDBRANCH   1  12
BRANCH   2  18
ATOM     18  C   UNL     1      -0.852  13.840  22.348  0.00  0.00    +0.000 A 
ATOM     19  S   UNL     1       0.077  15.253  22.630  0.00  0.00    +0.000 S 
ATOM     20  C   UNL     1      -0.850  15.681  24.004  0.00  0.00    +0.000 A 
ATOM     21  C   UNL     1      -1.856  14.775  24.256  0.00  0.00    +0.000 A 
ATOM     22  C   UNL     1      -1.860  13.715  23.301  0.00  0.00    +0.000 A 
BRANCH  22  23
ATOM     23  S   UNL     1      -2.976  12.386  23.347  0.00  0.00    +0.000 S 
ATOM     24  O   UNL     1      -2.140  11.207  23.359  0.00  0.00    +0.000 OA
ATOM     25  O   UNL     1      -3.902  12.722  24.406  0.00  0.00    +0.000 OA
BRANCH  23  26
ATOM     26  N   UNL     1      -3.840  12.244  21.885  0.00  0.00    +0.000 N 
ATOM     27  H   UNL     1      -3.928  11.230  21.777  0.00  0.00    +0.000 HD
BRANCH  26  28
ATOM     28  C   UNL     1      -5.121  12.873  21.943  0.00  0.00    +0.000 A 
ATOM     29  O   UNL     1      -6.272  12.218  22.257  0.00  0.00    +0.000 OA
ATOM     30  N   UNL     1      -7.318  13.123  22.330  0.00  0.00    +0.000 NA
ATOM     31  C   UNL     1      -6.788  14.318  22.031  0.00  0.00    +0.000 A 
ATOM     32  C   UNL     1      -7.644  15.527  21.997  0.00  0.00    +0.000 C 
ATOM     33  C   UNL     1      -5.399  14.210  21.782  0.00  0.00    +0.000 A 
ATOM     34 CL   UNL     1      -4.346  15.468  21.353  0.00  0.00    +0.000 Cl
ENDBRANCH  26  28
ENDBRANCH  23  26
ENDBRANCH  22  23
ENDBRANCH   2  18
TORSDOF 7
ENDMDL
MODEL 2
REMARK VINA RESULT:      -6.4      2.592      3.834
REMARK  Name = 
REMARK  11 active torsions:
REMARK  status: ('A' for Active; 'I' for Inactive)
REMARK    1  A    between atoms: C_1  and  C_2
REMARK    2  A    between atoms: C_2  and  C_5
REMARK    3  A    between atoms: N_3  and  O_4
REMARK    4  A    between atoms: C_7  and  C_8
REMARK    5  A    between atoms: C_10  and  C_11
REMARK    6  A    between atoms: C_12  and  N_13
REMARK    7  A    between atoms: C_14  and  C_16
REMARK    8  A    between atoms: C_20  and  S_21
REMARK    9  A    between atoms: S_21  and  N_24
REMARK   10  A    between atoms: N_24  and  C_25
REMARK   11  A    between atoms: C_28  and  C_29
REMARK                            x       y       z     vdW  Elec       q    Type
REMARK                         _______ _______ _______ _____ _____    ______ ____
ROOT
ATOM      1  N   UNL     1       2.083   9.714  19.328  0.00  0.00    +0.000 N 
ATOM      2  C   UNL     1       1.012  10.366  18.711  0.00  0.00    +0.000 C 
ATOM      3  O   UNL     1       0.092   9.727  18.198  0.00  0.00    +0.000 OA
ATOM      4  H   UNL     1       2.991  10.068  19.026  0.00  0.00    +0.000 HD
ENDROOT
BRANCH   1  12
ATOM      5  C   UNL     1       1.418   7.739  20.669  0.00  0.00    +0.000 A 
ATOM      6  C   UNL     1       1.586   6.358  20.894  0.00  0.00    +0.000 A 
ATOM      7  C   UNL     1       2.235   5.530  19.972  0.00  0.00    +0.000 A 
ATOM      8  C   UNL     1       2.447   4.072  20.253  0.00  0.00    +0.000 C 
ATOM      9  C   UNL     1       2.698   6.077  18.781  0.00  0.00    +0.000 A 
ATOM     10  C   UNL     1       2.584   7.451  18.524  0.00  0.00    +0.000 A 
ATOM     11  C   UNL     1       3.045   7.938  17.170  0.00  0.00    +0.000 C 
ATOM     12  C   UNL     1       2.004   8.301  19.507  0.00  0.00    +0.000 A 
BRANCH   5  14
ATOM     13  C   UNL     1      -0.830   8.331  21.863  0.00  0.00    +0.000 C 
ATOM     14  C   UNL     1       0.676   8.553  21.713  0.00  0.00    +0.000 C 
ATOM     15  N   UNL     1       1.329   9.407  22.454  0.00  0.00    +0.000 NA
BRANCH  15  16
ATOM     16  O   UNL     1       0.480  10.030  23.381  0.00  0.00    +0.000 OA
ATOM     17  H   UNL     1       0.860  10.922  23.475  0.00  0.00    +0.000 HD
ENDBRANCH  15  16
ENDBRANCH   5  14
ENDBRANCH   1  12
BRANCH   2  18
ATOM     18  C   UNL     1       1.011  11.827  18.707  0.00  0.00    +0.000 A 
ATOM     19  S   UNL     1       2.376  12.740  18.215  0.00  0.00    +0.000 S 
ATOM     20  C   UNL     1       1.589  14.228  18.526  0.00  0.00    +0.000 A 
ATOM     21  C   UNL     1       0.305  14.050  18.993  0.00  0.00    +0.000 A 
ATOM     22  C   UNL     1      -0.029  12.667  19.096  0.00  0.00    +0.000 A 
BRANCH  22  23
ATOM     23  S   UNL     1      -1.558  12.091  19.684  0.00  0.00    +0.000 S 
ATOM     24  O   UNL     1      -2.166  11.439  18.547  0.00  0.00    +0.000 OA
ATOM     25  O   UNL     1      -1.241  11.413  20.922  0.00  0.00    +0.000 OA
BRANCH  23  26
ATOM     26  N   UNL     1      -2.623  13.378  20.019  0.00  0.00    +0.000 N 
ATOM     27  H   UNL     1      -2.841  13.734  19.084  0.00  0.00    +0.000 HD
BRANCH  26  28
ATOM     28  C   UNL     1      -3.804  12.949  20.698  0.00  0.00    +0.000 A 
ATOM     29  O   UNL     1      -3.925  12.905  22.053  0.00  0.00    +0.000 OA
ATOM     30  N   UNL     1      -5.219  12.547  22.394  0.00  0.00    +0.000 NA
ATOM     31  C   UNL     1      -5.861  12.352  21.234  0.00  0.00    +0.000 A 
ATOM     32  C   UNL     1      -7.283  11.933  21.228  0.00  0.00    +0.000 C 
ATOM     33  C   UNL     1      -5.007  12.597  20.132  0.00  0.00    +0.000 A 
ATOM     34 CL   UNL     1      -5.405  12.451  18.490  0.00  0.00    +0.000 Cl
ENDBRANCH  26  28
ENDBRANCH  23  26
ENDBRANCH  22  23
ENDBRANCH   2  18
TORSDOF 7
ENDMDL
MODEL 3
REMARK VINA RESULT:      -6.3      3.586      6.308
REMARK  Name = 
REMARK  11 active torsions:
REMARK  status: ('A' for Active; 'I' for Inactive)
REMARK    1  A    between atoms: C_1  and  C_2
REMARK    2  A    between atoms: C_2  and  C_5
REMARK    3  A    between atoms: N_3  and  O_4
REMARK    4  A    between atoms: C_7  and  C_8
REMARK    5  A    between atoms: C_10  and  C_11
REMARK    6  A    between atoms: C_12  and  N_13
REMARK    7  A    between atoms: C_14  and  C_16
REMARK    8  A    between atoms: C_20  and  S_21
REMARK    9  A    between atoms: S_21  and  N_24
REMARK   10  A    between atoms: N_24  and  C_25
REMARK   11  A    between atoms: C_28  and  C_29
REMARK                            x       y       z     vdW  Elec       q    Type
REMARK                         _______ _______ _______ _____ _____    ______ ____
ROOT
ATOM      1  N   UNL     1      -2.100  12.171  20.635  0.00  0.00    +0.000 N 
ATOM      2  C   UNL     1      -1.570  13.464  20.598  0.00  0.00    +0.000 C 
ATOM      3  O   UNL     1      -1.191  13.963  19.537  0.00  0.00    +0.000 OA
ATOM      4  H   UNL     1      -1.686  11.593  21.367  0.00  0.00    +0.000 HD
ENDROOT
BRANCH   1  12
ATOM      5  C   UNL     1      -1.394  10.644  18.815  0.00  0.00    +0.000 A 
ATOM      6  C   UNL     1      -1.608  10.213  17.491  0.00  0.00    +0.000 A 
ATOM      7  C   UNL     1      -2.766  10.547  16.780  0.00  0.00    +0.000 A 
ATOM      8  C   UNL     1      -2.951  10.119  15.355  0.00  0.00    +0.000 C 
ATOM      9  C   UNL     1      -3.754  11.294  17.411  0.00  0.00    +0.000 A 
ATOM     10  C   UNL     1      -3.575  11.773  18.716  0.00  0.00    +0.000 A 
ATOM     11  C   UNL     1      -4.737  12.509  19.344  0.00  0.00    +0.000 C 
ATOM     12  C   UNL     1      -2.355  11.507  19.398  0.00  0.00    +0.000 A 
BRANCH   5  14
ATOM     13  C   UNL     1       1.139  10.017  18.669  0.00  0.00    +0.000 C 
ATOM     14  C   UNL     1      -0.120  10.211  19.516  0.00  0.00    +0.000 C 
ATOM     15  N   UNL     1      -0.122  10.022  20.808  0.00  0.00    +0.000 NA
BRANCH  15  16
ATOM     16  O   UNL     1       1.152   9.664  21.273  0.00  0.00    +0.000 OA
ATOM     17  H   UNL     1       1.187   8.702  21.126  0.00  0.00    +0.000 HD
ENDBRANCH  15  16
ENDBRANCH   5  14
ENDBRANCH   1  12
BRANCH   2  18
ATOM     18  C   UNL     1      -1.496  14.209  21.852  0.00  0.00    +0.000 A 
ATOM     19  S   UNL     1      -2.878  14.505  22.822  0.00  0.00    +0.000 S 
ATOM     20  C   UNL     1      -1.974  15.389  23.976  0.00  0.00    +0.000 A 
ATOM     21  C   UNL     1      -0.639  15.464  23.645  0.00  0.00    +0.000 A 
ATOM     22  C   UNL     1      -0.362  14.782  22.422  0.00  0.00    +0.000 A 
BRANCH  22  23
ATOM     23  S   UNL     1       1.215  14.712  21.699  0.00  0.00    +0.000 S 
ATOM     24  O   UNL     1       2.051  15.510  22.567  0.00  0.00    +0.000 OA
ATOM     25  O   UNL     1       1.437  13.306  21.442  0.00  0.00    +0.000 OA
BRANCH  23  26
ATOM     26  N   UNL     1       1.262  15.556  20.219  0.00  0.00    +0.000 N 
ATOM     27  H   UNL     1       0.915  16.483  20.482  0.00  0.00    +0.000 HD
BRANCH  26  28
ATOM     28  C   UNL     1       2.579  15.631  19.674  0.00  0.00    +0.000 A 
ATOM     29  O   UNL     1       3.473  16.609  19.985  0.00  0.00    +0.000 OA
ATOM     30  N   UNL     1       4.688  16.341  19.375  0.00  0.00    +0.000 NA
ATOM     31  C   UNL     1       4.504  15.212  18.676  0.00  0.00    +0.000 A 
ATOM     32  C   UNL     1       5.612  14.641  17.875  0.00  0.00    +0.000 C 
ATOM     33  C   UNL     1       3.186  14.723  18.837  0.00  0.00    +0.000 A 
ATOM     34 CL   UNL     1       2.525  13.337  18.119  0.00  0.00    +0.000 Cl
ENDBRANCH  26  28
ENDBRANCH  23  26
ENDBRANCH  22  23
ENDBRANCH   2  18
TORSDOF 7
ENDMDL
MODEL 4
REMARK VINA RESULT:      -6.3      3.734      7.222
REMARK  Name = 
REMARK  11 active torsions:
REMARK  status: ('A' for Active; 'I' for Inactive)
REMARK    1  A    between atoms: C_1  and  C_2
REMARK    2  A    between atoms: C_2  and  C_5
REMARK    3  A    between atoms: N_3  and  O_4
REMARK    4  A    between atoms: C_7  and  C_8
REMARK    5  A    between atoms: C_10  and  C_11
REMARK    6  A    between atoms: C_12  and  N_13
REMARK    7  A    between atoms: C_14  and  C_16
REMARK    8  A    between atoms: C_20  and  S_21
REMARK    9  A    between atoms: S_21  and  N_24
REMARK   10  A    between atoms: N_24  and  C_25
REMARK   11  A    between atoms: C_28  and  C_29
REMARK                            x       y       z     vdW  Elec       q    Type
REMARK                         _______ _______ _______ _____ _____    ______ ____
ROOT
ATOM      1  N   UNL     1       0.564  15.150  20.589  0.00  0.00    +0.000 N 
ATOM      2  C   UNL     1       0.117  13.940  21.126  0.00  0.00    +0.000 C 
ATOM      3  O   UNL     1       0.871  13.223  21.787  0.00  0.00    +0.000 OA
ATOM      4  H   UNL     1       0.328  15.258  19.602  0.00  0.00    +0.000 HD
ENDROOT
BRANCH   1  12
ATOM      5  C   UNL     1       3.007  15.311  20.201  0.00  0.00    +0.000 A 
ATOM      6  C   UNL     1       4.269  15.605  20.754  0.00  0.00    +0.000 A 
ATOM      7  C   UNL     1       4.408  16.260  21.982  0.00  0.00    +0.000 A 
ATOM      8  C   UNL     1       5.760  16.519  22.575  0.00  0.00    +0.000 C 
ATOM      9  C   UNL     1       3.266  16.668  22.662  0.00  0.00    +0.000 A 
ATOM     10  C   UNL     1       1.987  16.372  22.170  0.00  0.00    +0.000 A 
ATOM     11  C   UNL     1       0.809  16.925  22.939  0.00  0.00    +0.000 C 
ATOM     12  C   UNL     1       1.856  15.624  20.967  0.00  0.00    +0.000 A 
BRANCH   5  14
ATOM     13  C   UNL     1       3.267  15.452  17.604  0.00  0.00    +0.000 C 
ATOM     14  C   UNL     1       2.955  14.622  18.851  0.00  0.00    +0.000 C 
ATOM     15  N   UNL     1       2.656  13.352  18.781  0.00  0.00    +0.000 NA
BRANCH  15  16
ATOM     16  O   UNL     1       2.698  12.891  17.457  0.00  0.00    +0.000 OA
ATOM     17  H   UNL     1       1.950  13.348  17.032  0.00  0.00    +0.000 HD
ENDBRANCH  15  16
ENDBRANCH   5  14
ENDBRANCH   1  12
BRANCH   2  18
ATOM     18  C   UNL     1      -1.274  13.559  20.893  0.00  0.00    +0.000 A 
ATOM     19  S   UNL     1      -2.562  14.187  21.834  0.00  0.00    +0.000 S 
ATOM     20  C   UNL     1      -3.732  13.271  20.982  0.00  0.00    +0.000 A 
ATOM     21  C   UNL     1      -3.167  12.498  19.991  0.00  0.00    +0.000 A 
ATOM     22  C   UNL     1      -1.751  12.666  19.938  0.00  0.00    +0.000 A 
BRANCH  22  23
ATOM     23  S   UNL     1      -0.726  11.811  18.827  0.00  0.00    +0.000 S 
ATOM     24  O   UNL     1      -1.445  10.593  18.530  0.00  0.00    +0.000 OA
ATOM     25  O   UNL     1      -0.367  12.794  17.829  0.00  0.00    +0.000 OA
BRANCH  23  26
ATOM     26  N   UNL     1       0.695  11.256  19.589  0.00  0.00    +0.000 N 
ATOM     27  H   UNL     1       0.366  11.029  20.531  0.00  0.00    +0.000 HD
BRANCH  26  28
ATOM     28  C   UNL     1       1.250  10.110  18.943  0.00  0.00    +0.000 A 
ATOM     29  O   UNL     1       1.728  10.115  17.669  0.00  0.00    +0.000 OA
ATOM     30  N   UNL     1       2.290   8.883  17.376  0.00  0.00    +0.000 NA
ATOM     31  C   UNL     1       2.119   8.135  18.476  0.00  0.00    +0.000 A 
ATOM     32  C   UNL     1       2.593   6.731  18.503  0.00  0.00    +0.000 C 
ATOM     33  C   UNL     1       1.468   8.869  19.495  0.00  0.00    +0.000 A 
ATOM     34 CL   UNL     1       1.041   8.304  21.036  0.00  0.00    +0.000 Cl
ENDBRANCH  26  28
ENDBRANCH  23  26
ENDBRANCH  22  23
ENDBRANCH   2  18
TORSDOF 7
ENDMDL
MODEL 5
REMARK VINA RESULT:      -6.2      2.398      2.940
REMARK  Name = 
REMARK  11 active torsions:
REMARK  status: ('A' for Active; 'I' for Inactive)
REMARK    1  A    between atoms: C_1  and  C_2
REMARK    2  A    between atoms: C_2  and  C_5
REMARK    3  A    between atoms: N_3  and  O_4
REMARK    4  A    between atoms: C_7  and  C_8
REMARK    5  A    between atoms: C_10  and  C_11
REMARK    6  A    between atoms: C_12  and  N_13
REMARK    7  A    between atoms: C_14  and  C_16
REMARK    8  A    between atoms: C_20  and  S_21
REMARK    9  A    between atoms: S_21  and  N_24
REMARK   10  A    between atoms: N_24  and  C_25
REMARK   11  A    between atoms: C_28  and  C_29
REMARK                            x       y       z     vdW  Elec       q    Type
REMARK                         _______ _______ _______ _____ _____    ______ ____
ROOT
ATOM      1  N   UNL     1      -0.144  13.749  19.260  0.00  0.00    +0.000 N 
ATOM      2  C   UNL     1       0.021  14.020  20.621  0.00  0.00    +0.000 C 
ATOM      3  O   UNL     1       0.392  13.141  21.401  0.00  0.00    +0.000 OA
ATOM      4  H   UNL     1      -1.038  14.081  18.894  0.00  0.00    +0.000 HD
ENDROOT
BRANCH   1  12
ATOM      5  C   UNL     1      -0.623  11.422  18.554  0.00  0.00    +0.000 A 
ATOM      6  C   UNL     1      -0.099  10.140  18.292  0.00  0.00    +0.000 A 
ATOM      7  C   UNL     1       1.274   9.913  18.155  0.00  0.00    +0.000 A 
ATOM      8  C   UNL     1       1.813   8.533  17.926  0.00  0.00    +0.000 C 
ATOM      9  C   UNL     1       2.148  10.991  18.242  0.00  0.00    +0.000 A 
ATOM     10  C   UNL     1       1.680  12.280  18.533  0.00  0.00    +0.000 A 
ATOM     11  C   UNL     1       2.698  13.398  18.529  0.00  0.00    +0.000 C 
ATOM     12  C   UNL     1       0.291  12.485  18.762  0.00  0.00    +0.000 A 
BRANCH   5  14
ATOM     13  C   UNL     1      -2.999  10.924  17.584  0.00  0.00    +0.000 C 
ATOM     14  C   UNL     1      -2.128  11.577  18.660  0.00  0.00    +0.000 C 
ATOM     15  N   UNL     1      -2.644  12.247  19.655  0.00  0.00    +0.000 NA
BRANCH  15  16
ATOM     16  O   UNL     1      -4.045  12.245  19.600  0.00  0.00    +0.000 OA
ATOM     17  H   UNL     1      -4.298  12.983  20.183  0.00  0.00    +0.000 HD
ENDBRANCH  15  16
ENDBRANCH   5  14
ENDBRANCH   1  12
BRANCH   2  18
ATOM     18  C   UNL     1      -0.243  15.380  21.085  0.00  0.00    +0.000 A 
ATOM     19  S   UNL     1       0.420  16.755  20.307  0.00  0.00    +0.000 S 
ATOM     20  C   UNL     1      -0.308  17.832  21.422  0.00  0.00    +0.000 A 
ATOM     21  C   UNL     1      -1.050  17.171  22.375  0.00  0.00    +0.000 A 
ATOM     22  C   UNL     1      -1.015  15.757  22.180  0.00  0.00    +0.000 A 
BRANCH  22  23
ATOM     23  S   UNL     1      -1.816  14.625  23.226  0.00  0.00    +0.000 S 
ATOM     24  O   UNL     1      -0.745  13.867  23.831  0.00  0.00    +0.000 OA
ATOM     25  O   UNL     1      -2.757  15.424  23.978  0.00  0.00    +0.000 OA
BRANCH  23  26
ATOM     26  N   UNL     1      -2.676  13.454  22.335  0.00  0.00    +0.000 N 
ATOM     27  H   UNL     1      -1.999  12.690  22.261  0.00  0.00    +0.000 HD
BRANCH  26  28
ATOM     28  C   UNL     1      -3.867  13.028  22.999  0.00  0.00    +0.000 A 
ATOM     29  O   UNL     1      -3.880  12.153  24.042  0.00  0.00    +0.000 OA
ATOM     30  N   UNL     1      -5.171  12.026  24.528  0.00  0.00    +0.000 NA
ATOM     31  C   UNL     1      -5.931  12.811  23.751  0.00  0.00    +0.000 A 
ATOM     32  C   UNL     1      -7.393  12.900  23.983  0.00  0.00    +0.000 C 
ATOM     33  C   UNL     1      -5.150  13.468  22.771  0.00  0.00    +0.000 A 
ATOM     34 CL   UNL     1      -5.708  14.534  21.577  0.00  0.00    +0.000 Cl
ENDBRANCH  26  28
ENDBRANCH  23  26
ENDBRANCH  22  23
ENDBRANCH   2  18
TORSDOF 7
ENDMDL
MODEL 6
REMARK VINA RESULT:      -6.2      8.133     11.919
REMARK  Name = 
REMARK  11 active torsions:
REMARK  status: ('A' for Active; 'I' for Inactive)
REMARK    1  A    between atoms: C_1  and  C_2
REMARK    2  A    between atoms: C_2  and  C_5
REMARK    3  A    between atoms: N_3  and  O_4
REMARK    4  A    between atoms: C_7  and  C_8
REMARK    5  A    between atoms: C_10  and  C_11
REMARK    6  A    between atoms: C_12  and  N_13
REMARK    7  A    between atoms: C_14  and  C_16
REMARK    8  A    between atoms: C_20  and  S_21
REMARK    9  A    between atoms: S_21  and  N_24
REMARK   10  A    between atoms: N_24  and  C_25
REMARK   11  A    between atoms: C_28  and  C_29
REMARK                            x       y       z     vdW  Elec       q    Type
REMARK                         _______ _______ _______ _____ _____    ______ ____
ROOT
ATOM      1  N   UNL     1       3.791   4.608  17.662  0.00  0.00    +0.000 N 
ATOM      2  C   UNL     1       5.179   4.518  17.801  0.00  0.00    +0.000 C 
ATOM      3  O   UNL     1       5.688   4.180  18.871  0.00  0.00    +0.000 OA
ATOM      4  H   UNL     1       3.491   5.484  17.233  0.00  0.00    +0.000 HD
ENDROOT
BRANCH   1  12
ATOM      5  C   UNL     1       2.331   5.029  19.619  0.00  0.00    +0.000 A 
ATOM      6  C   UNL     1       1.737   4.497  20.781  0.00  0.00    +0.000 A 
ATOM      7  C   UNL     1       1.696   3.121  21.030  0.00  0.00    +0.000 A 
ATOM      8  C   UNL     1       1.104   2.579  22.296  0.00  0.00    +0.000 C 
ATOM      9  C   UNL     1       2.223   2.248  20.085  0.00  0.00    +0.000 A 
ATOM     10  C   UNL     1       2.853   2.729  18.928  0.00  0.00    +0.000 A 
ATOM     11  C   UNL     1       3.324   1.702  17.924  0.00  0.00    +0.000 C 
ATOM     12  C   UNL     1       2.971   4.132  18.728  0.00  0.00    +0.000 A 
BRANCH   5  14
ATOM     13  C   UNL     1       1.890   7.409  20.606  0.00  0.00    +0.000 C 
ATOM     14  C   UNL     1       2.304   6.533  19.421  0.00  0.00    +0.000 C 
ATOM     15  N   UNL     1       2.635   7.042  18.266  0.00  0.00    +0.000 NA
BRANCH  15  16
ATOM     16  O   UNL     1       2.586   8.443  18.293  0.00  0.00    +0.000 OA
ATOM     17  H   UNL     1       3.315   8.686  18.891  0.00  0.00    +0.000 HD
ENDBRANCH  15  16
ENDBRANCH   5  14
ENDBRANCH   1  12
BRANCH   2  18
ATOM     18  C   UNL     1       6.005   4.822  16.634  0.00  0.00    +0.000 A 
ATOM     19  S   UNL     1       6.060   3.796  15.262  0.00  0.00    +0.000 S 
ATOM     20  C   UNL     1       7.193   4.800  14.462  0.00  0.00    +0.000 A 
ATOM     21  C   UNL     1       7.531   5.904  15.212  0.00  0.00    +0.000 A 
ATOM     22  C   UNL     1       6.845   5.919  16.463  0.00  0.00    +0.000 A 
BRANCH  22  23
ATOM     23  S   UNL     1       7.068   7.153  17.664  0.00  0.00    +0.000 S 
ATOM     24  O   UNL     1       5.735   7.641  17.938  0.00  0.00    +0.000 OA
ATOM     25  O   UNL     1       7.919   6.544  18.662  0.00  0.00    +0.000 OA
BRANCH  23  26
ATOM     26  N   UNL     1       7.863   8.516  17.020  0.00  0.00    +0.000 N 
ATOM     27  H   UNL     1       7.118   8.979  16.493  0.00  0.00    +0.000 HD
BRANCH  26  28
ATOM     28  C   UNL     1       8.390   9.372  18.034  0.00  0.00    +0.000 A 
ATOM     29  O   UNL     1       9.075   8.925  19.122  0.00  0.00    +0.000 OA
ATOM     30  N   UNL     1       9.540  10.004  19.856  0.00  0.00    +0.000 NA
ATOM     31  C   UNL     1       9.106  11.097  19.212  0.00  0.00    +0.000 A 
ATOM     32  C   UNL     1       9.411  12.447  19.743  0.00  0.00    +0.000 C 
ATOM     33  C   UNL     1       8.376  10.747  18.052  0.00  0.00    +0.000 A 
ATOM     34 CL   UNL     1       7.636  11.814  16.961  0.00  0.00    +0.000 Cl
ENDBRANCH  26  28
ENDBRANCH  23  26
ENDBRANCH  22  23
ENDBRANCH   2  18
TORSDOF 7
ENDMDL
MODEL 7
REMARK VINA RESULT:      -6.1      2.328      3.511
REMARK  Name = 
REMARK  11 active torsions:
REMARK  status: ('A' for Active; 'I' for Inactive)
REMARK    1  A    between atoms: C_1  and  C_2
REMARK    2  A    between atoms: C_2  and  C_5
REMARK    3  A    between atoms: N_3  and  O_4
REMARK    4  A    between atoms: C_7  and  C_8
REMARK    5  A    between atoms: C_10  and  C_11
REMARK    6  A    between atoms: C_12  and  N_13
REMARK    7  A    between atoms: C_14  and  C_16
REMARK    8  A    between atoms: C_20  and  S_21
REMARK    9  A    between atoms: S_21  and  N_24
REMARK   10  A    between atoms: N_24  and  C_25
REMARK   11  A    between atoms: C_28  and  C_29
REMARK                            x       y       z     vdW  Elec       q    Type
REMARK                         _______ _______ _______ _____ _____    ______ ____
ROOT
ATOM      1  N   UNL     1       1.784  10.183  19.404  0.00  0.00    +0.000 N 
ATOM      2  C   UNL     1       0.697  10.788  18.769  0.00  0.00    +0.000 C 
ATOM      3  O   UNL     1      -0.201  10.110  18.266  0.00  0.00    +0.000 OA
ATOM      4  H   UNL     1       2.683  10.558  19.098  0.00  0.00    +0.000 HD
ENDROOT
BRANCH   1  12
ATOM      5  C   UNL     1       1.182   8.217  20.789  0.00  0.00    +0.000 A 
ATOM      6  C   UNL     1       1.391   6.847  21.042  0.00  0.00    +0.000 A 
ATOM      7  C   UNL     1       2.063   6.019  20.136  0.00  0.00    +0.000 A 
ATOM      8  C   UNL     1       2.318   4.575  20.447  0.00  0.00    +0.000 C 
ATOM      9  C   UNL     1       2.506   6.555  18.932  0.00  0.00    +0.000 A 
ATOM     10  C   UNL     1       2.351   7.919  18.647  0.00  0.00    +0.000 A 
ATOM     11  C   UNL     1       2.794   8.391  17.281  0.00  0.00    +0.000 C 
ATOM     12  C   UNL     1       1.748   8.772  19.614  0.00  0.00    +0.000 A 
BRANCH   5  14
ATOM     13  C   UNL     1      -0.957   8.526  22.260  0.00  0.00    +0.000 C 
ATOM     14  C   UNL     1       0.418   9.030  21.817  0.00  0.00    +0.000 C 
ATOM     15  N   UNL     1       0.944  10.123  22.301  0.00  0.00    +0.000 NA
BRANCH  15  16
ATOM     16  O   UNL     1       0.107  10.709  23.262  0.00  0.00    +0.000 OA
ATOM     17  H   UNL     1      -0.721  10.204  23.182  0.00  0.00    +0.000 HD
ENDBRANCH  15  16
ENDBRANCH   5  14
ENDBRANCH   1  12
BRANCH   2  18
ATOM     18  C   UNL     1       0.651  12.248  18.734  0.00  0.00    +0.000 A 
ATOM     19  S   UNL     1       1.995  13.192  18.245  0.00  0.00    +0.000 S 
ATOM     20  C   UNL     1       1.157  14.661  18.511  0.00  0.00    +0.000 A 
ATOM     21  C   UNL     1      -0.128  14.454  18.961  0.00  0.00    +0.000 A 
ATOM     22  C   UNL     1      -0.421  13.063  19.087  0.00  0.00    +0.000 A 
BRANCH  22  23
ATOM     23  S   UNL     1      -1.941  12.452  19.663  0.00  0.00    +0.000 S 
ATOM     24  O   UNL     1      -2.548  11.832  18.506  0.00  0.00    +0.000 OA
ATOM     25  O   UNL     1      -1.613  11.736  20.876  0.00  0.00    +0.000 OA
BRANCH  23  26
ATOM     26  N   UNL     1      -3.018  13.716  20.045  0.00  0.00    +0.000 N 
ATOM     27  H   UNL     1      -3.391  13.974  19.127  0.00  0.00    +0.000 HD
BRANCH  26  28
ATOM     28  C   UNL     1      -4.060  13.300  20.929  0.00  0.00    +0.000 A 
ATOM     29  O   UNL     1      -5.038  12.419  20.584  0.00  0.00    +0.000 OA
ATOM     30  N   UNL     1      -5.828  12.143  21.689  0.00  0.00    +0.000 NA
ATOM     31  C   UNL     1      -5.330  12.887  22.687  0.00  0.00    +0.000 A 
ATOM     32  C   UNL     1      -5.957  12.851  24.029  0.00  0.00    +0.000 C 
ATOM     33  C   UNL     1      -4.208  13.634  22.255  0.00  0.00    +0.000 A 
ATOM     34 CL   UNL     1      -3.291  14.714  23.186  0.00  0.00    +0.000 Cl
ENDBRANCH  26  28
ENDBRANCH  23  26
ENDBRANCH  22  23
ENDBRANCH   2  18
TORSDOF 7
ENDMDL
MODEL 8
REMARK VINA RESULT:      -6.0      2.714      3.769
REMARK  Name = 
REMARK  11 active torsions:
REMARK  status: ('A' for Active; 'I' for Inactive)
REMARK    1  A    between atoms: C_1  and  C_2
REMARK    2  A    between atoms: C_2  and  C_5
REMARK    3  A    between atoms: N_3  and  O_4
REMARK    4  A    between atoms: C_7  and  C_8
REMARK    5  A    between atoms: C_10  and  C_11
REMARK    6  A    between atoms: C_12  and  N_13
REMARK    7  A    between atoms: C_14  and  C_16
REMARK    8  A    between atoms: C_20  and  S_21
REMARK    9  A    between atoms: S_21  and  N_24
REMARK   10  A    between atoms: N_24  and  C_25
REMARK   11  A    between atoms: C_28  and  C_29
REMARK                            x       y       z     vdW  Elec       q    Type
REMARK                         _______ _______ _______ _____ _____    ______ ____
ROOT
ATOM      1  N   UNL     1       1.999   9.769  19.389  0.00  0.00    +0.000 N 
ATOM      2  C   UNL     1       0.913  10.417  18.794  0.00  0.00    +0.000 C 
ATOM      3  O   UNL     1      -0.018   9.775  18.305  0.00  0.00    +0.000 OA
ATOM      4  H   UNL     1       2.899  10.124  19.065  0.00  0.00    +0.000 HD
ENDROOT
BRANCH   1  12
ATOM      5  C   UNL     1       1.351   7.797  20.744  0.00  0.00    +0.000 A 
ATOM      6  C   UNL     1       1.525   6.417  20.972  0.00  0.00    +0.000 A 
ATOM      7  C   UNL     1       2.171   5.588  20.050  0.00  0.00    +0.000 A 
ATOM      8  C   UNL     1       2.389   4.132  20.335  0.00  0.00    +0.000 C 
ATOM      9  C   UNL     1       2.622   6.133  18.853  0.00  0.00    +0.000 A 
ATOM     10  C   UNL     1       2.502   7.505  18.591  0.00  0.00    +0.000 A 
ATOM     11  C   UNL     1       2.951   7.988  17.231  0.00  0.00    +0.000 C 
ATOM     12  C   UNL     1       1.926   8.356  19.575  0.00  0.00    +0.000 A 
BRANCH   5  14
ATOM     13  C   UNL     1      -0.900   8.429  21.912  0.00  0.00    +0.000 C 
ATOM     14  C   UNL     1       0.614   8.613  21.789  0.00  0.00    +0.000 C 
ATOM     15  N   UNL     1       1.276   9.437  22.556  0.00  0.00    +0.000 NA
BRANCH  15  16
ATOM     16  O   UNL     1       0.429  10.066  23.479  0.00  0.00    +0.000 OA
ATOM     17  H   UNL     1       1.034  10.624  24.000  0.00  0.00    +0.000 HD
ENDBRANCH  15  16
ENDBRANCH   5  14
ENDBRANCH   1  12
BRANCH   2  18
ATOM     18  C   UNL     1       0.910  11.878  18.785  0.00  0.00    +0.000 A 
ATOM     19  S   UNL     1       2.262  12.792  18.260  0.00  0.00    +0.000 S 
ATOM     20  C   UNL     1       1.479  14.280  18.583  0.00  0.00    +0.000 A 
ATOM     21  C   UNL     1       0.206  14.101  19.080  0.00  0.00    +0.000 A 
ATOM     22  C   UNL     1      -0.124  12.717  19.194  0.00  0.00    +0.000 A 
BRANCH  22  23
ATOM     23  S   UNL     1      -1.637  12.141  19.819  0.00  0.00    +0.000 S 
ATOM     24  O   UNL     1      -2.249  11.445  18.710  0.00  0.00    +0.000 OA
ATOM     25  O   UNL     1      -1.298  11.508  21.074  0.00  0.00    +0.000 OA
BRANCH  23  26
ATOM     26  N   UNL     1      -2.717  13.425  20.124  0.00  0.00    +0.000 N 
ATOM     27  H   UNL     1      -2.571  14.034  19.314  0.00  0.00    +0.000 HD
BRANCH  26  28
ATOM     28  C   UNL     1      -4.074  12.990  20.207  0.00  0.00    +0.000 A 
ATOM     29  O   UNL     1      -4.853  12.727  19.123  0.00  0.00    +0.000 OA
ATOM     30  N   UNL     1      -6.077  12.228  19.537  0.00  0.00    +0.000 NA
ATOM     31  C   UNL     1      -6.032  12.219  20.877  0.00  0.00    +0.000 A 
ATOM     32  C   UNL     1      -7.201  11.755  21.660  0.00  0.00    +0.000 C 
ATOM     33  C   UNL     1      -4.783  12.690  21.347  0.00  0.00    +0.000 A 
ATOM     34 CL   UNL     1      -4.309  12.861  22.966  0.00  0.00    +0.000 Cl
ENDBRANCH  26  28
ENDBRANCH  23  26
ENDBRANCH  22  23
ENDBRANCH   2  18
TORSDOF 7
ENDMDL
MODEL 9
REMARK VINA RESULT:      -6.0      3.384      4.249
REMARK  Name = 
REMARK  11 active torsions:
REMARK  status: ('A' for Active; 'I' for Inactive)
REMARK    1  A    between atoms: C_1  and  C_2
REMARK    2  A    between atoms: C_2  and  C_5
REMARK    3  A    between atoms: N_3  and  O_4
REMARK    4  A    between atoms: C_7  and  C_8
REMARK    5  A    between atoms: C_10  and  C_11
REMARK    6  A    between atoms: C_12  and  N_13
REMARK    7  A    between atoms: C_14  and  C_16
REMARK    8  A    between atoms: C_20  and  S_21
REMARK    9  A    between atoms: S_21  and  N_24
REMARK   10  A    between atoms: N_24  and  C_25
REMARK   11  A    between atoms: C_28  and  C_29
REMARK                            x       y       z     vdW  Elec       q    Type
REMARK                         _______ _______ _______ _____ _____    ______ ____
ROOT
ATOM      1  N   UNL     1       2.144   9.680  19.341  0.00  0.00    +0.000 N 
ATOM      2  C   UNL     1       1.107  10.400  18.741  0.00  0.00    +0.000 C 
ATOM      3  O   UNL     1       0.142   9.821  18.239  0.00  0.00    +0.000 OA
ATOM      4  H   UNL     1       3.068   9.979  19.029  0.00  0.00    +0.000 HD
ENDROOT
BRANCH   1  12
ATOM      5  C   UNL     1       1.376   7.743  20.683  0.00  0.00    +0.000 A 
ATOM      6  C   UNL     1       1.460   6.353  20.900  0.00  0.00    +0.000 A 
ATOM      7  C   UNL     1       2.046   5.491  19.967  0.00  0.00    +0.000 A 
ATOM      8  C   UNL     1       2.170   4.022  20.239  0.00  0.00    +0.000 C 
ATOM      9  C   UNL     1       2.526   6.015  18.771  0.00  0.00    +0.000 A 
ATOM     10  C   UNL     1       2.494   7.395  18.522  0.00  0.00    +0.000 A 
ATOM     11  C   UNL     1       2.966   7.859  17.164  0.00  0.00    +0.000 C 
ATOM     12  C   UNL     1       1.980   8.273  19.516  0.00  0.00    +0.000 A 
BRANCH   5  14
ATOM     13  C   UNL     1      -0.805   8.415  21.958  0.00  0.00    +0.000 C 
ATOM     14  C   UNL     1       0.699   8.596  21.740  0.00  0.00    +0.000 C 
ATOM     15  N   UNL     1       1.402   9.448  22.435  0.00  0.00    +0.000 NA
BRANCH  15  16
ATOM     16  O   UNL     1       0.609  10.110  23.383  0.00  0.00    +0.000 OA
ATOM     17  H   UNL     1       0.026   9.409  23.724  0.00  0.00    +0.000 HD
ENDBRANCH  15  16
ENDBRANCH   5  14
ENDBRANCH   1  12
BRANCH   2  18
ATOM     18  C   UNL     1       1.196  11.858  18.744  0.00  0.00    +0.000 A 
ATOM     19  S   UNL     1       2.586  12.689  18.181  0.00  0.00    +0.000 S 
ATOM     20  C   UNL     1       1.910  14.220  18.541  0.00  0.00    +0.000 A 
ATOM     21  C   UNL     1       0.645  14.118  19.078  0.00  0.00    +0.000 A 
ATOM     22  C   UNL     1       0.232  12.757  19.193  0.00  0.00    +0.000 A 
BRANCH  22  23
ATOM     23  S   UNL     1      -1.294  12.272  19.862  0.00  0.00    +0.000 S 
ATOM     24  O   UNL     1      -0.952  11.354  20.925  0.00  0.00    +0.000 OA
ATOM     25  O   UNL     1      -2.012  13.509  20.073  0.00  0.00    +0.000 OA
BRANCH  23  26
ATOM     26  N   UNL     1      -2.176  11.304  18.771  0.00  0.00    +0.000 N 
ATOM     27  H   UNL     1      -2.051  10.364  19.158  0.00  0.00    +0.000 HD
BRANCH  26  28
ATOM     28  C   UNL     1      -3.557  11.662  18.715  0.00  0.00    +0.000 A 
ATOM     29  O   UNL     1      -4.262  12.130  19.780  0.00  0.00    +0.000 OA
ATOM     30  N   UNL     1      -5.540  12.483  19.376  0.00  0.00    +0.000 NA
ATOM     31  C   UNL     1      -5.599  12.197  18.067  0.00  0.00    +0.000 A 
ATOM     32  C   UNL     1      -6.849  12.436  17.307  0.00  0.00    +0.000 C 
ATOM     33  C   UNL     1      -4.367  11.678  17.603  0.00  0.00    +0.000 A 
ATOM     34 CL   UNL     1      -4.012  11.171  16.025  0.00  0.00    +0.000 Cl
ENDBRANCH  26  28
ENDBRANCH  23  26
ENDBRANCH  22  23
ENDBRANCH   2  18
TORSDOF 7
ENDMDL
