MODEL 1
REMARK VINA RESULT:      -8.3      0.000      0.000
REMARK  Name = 
REMARK  13 active torsions:
REMARK  status: ('A' for Active; 'I' for Inactive)
REMARK    1  A    between atoms: C_1  and  O_2
REMARK    2  A    between atoms: O_2  and  C_3
REMARK    3  A    between atoms: C_6  and  C_7
REMARK    4  A    between atoms: C_8  and  C_9
REMARK    5  A    between atoms: C_11  and  O_12
REMARK    6  A    between atoms: O_12  and  C_13
REMARK    7  A    between atoms: C_15  and  O_16
REMARK    8  A    between atoms: O_16  and  C_17
REMARK    9  A    between atoms: C_18  and  C_19
REMARK   10  A    between atoms: C_20  and  C_21
REMARK   11  A    between atoms: C_21  and  C_23
REMARK   12  A    between atoms: C_24  and  C_25
REMARK   13  A    between atoms: C_31  and  C_32
REMARK                            x       y       z     vdW  Elec       q    Type
REMARK                         _______ _______ _______ _____ _____    ______ ____
ROOT
ATOM      1  C   UNL     1       5.695   4.018  15.026  0.00  0.00    +0.000 A 
ATOM      2  C   UNL     1       5.241   3.416  13.835  0.00  0.00    +0.000 A 
ATOM      3  C   UNL     1       5.900   3.607  12.628  0.00  0.00    +0.000 A 
ATOM      4  C   UNL     1       7.019   4.428  12.603  0.00  0.00    +0.000 A 
ATOM      5  C   UNL     1       7.490   5.063  13.771  0.00  0.00    +0.000 A 
ATOM      6  C   UNL     1       6.848   4.844  15.020  0.00  0.00    +0.000 A 
ENDROOT
BRANCH   1   8
ATOM      7  C   UNL     1       4.196   4.666  16.868  0.00  0.00    +0.000 C 
ATOM      8  C   UNL     1       4.870   3.709  16.209  0.00  0.00    +0.000 C 
BRANCH   7  12
ATOM      9  C   UNL     1       2.379   4.070  20.720  0.00  0.00    +0.000 A 
ATOM     10  C   UNL     1       2.833   2.998  19.953  0.00  0.00    +0.000 A 
ATOM     11  C   UNL     1       3.463   3.216  18.724  0.00  0.00    +0.000 A 
ATOM     12  C   UNL     1       3.630   4.514  18.222  0.00  0.00    +0.000 A 
ATOM     13  C   UNL     1       3.195   5.587  19.012  0.00  0.00    +0.000 A 
ATOM     14  C   UNL     1       2.565   5.367  20.249  0.00  0.00    +0.000 A 
BRANCH   9  16
ATOM     15  C   UNL     1       1.458   2.337  22.044  0.00  0.00    +0.000 C 
ATOM     16  O   UNL     1       1.742   3.720  21.878  0.00  0.00    +0.000 OA
ENDBRANCH   9  16
ENDBRANCH   7  12
ENDBRANCH   1   8
BRANCH   3  17
ATOM     17  O   UNL     1       5.358   2.949  11.559  0.00  0.00    +0.000 OA
ATOM     18  C   UNL     1       3.993   3.219  11.257  0.00  0.00    +0.000 C 
ENDBRANCH   3  17
BRANCH   5  19
ATOM     19  O   UNL     1       8.584   5.900  13.737  0.00  0.00    +0.000 OA
ATOM     20  C   UNL     1       9.055   6.293  12.449  0.00  0.00    +0.000 C 
ENDBRANCH   5  19
BRANCH   6  21
ATOM     21  C   UNL     1       7.264   5.502  16.288  0.00  0.00    +0.000 C 
ATOM     22  C   UNL     1       7.191   6.809  16.589  0.00  0.00    +0.000 C 
BRANCH  22  23
ATOM     23  C   UNL     1       7.694   7.298  17.909  0.00  0.00    +0.000 C 
ATOM     24  O   UNL     1       7.721   6.593  18.909  0.00  0.00    +0.000 OA
BRANCH  23  25
ATOM     25  C   UNL     1       8.159   8.717  17.915  0.00  0.00    +0.000 C 
ATOM     26  C   UNL     1       8.908   9.180  18.928  0.00  0.00    +0.000 C 
BRANCH  26  27
ATOM     27  C   UNL     1       9.353  10.579  18.981  0.00  0.00    +0.000 A 
ATOM     28  C   UNL     1       9.758  11.183  17.783  0.00  0.00    +0.000 A 
ATOM     29  C   UNL     1      10.187  12.506  17.781  0.00  0.00    +0.000 A 
ATOM     30  F   UNL     1      10.577  13.071  16.631  0.00  0.00    +0.000 F 
ATOM     31  C   UNL     1      10.216  13.252  18.951  0.00  0.00    +0.000 A 
ATOM     32  C   UNL     1       9.814  12.662  20.148  0.00  0.00    +0.000 A 
ATOM     33  C   UNL     1       9.387  11.320  20.182  0.00  0.00    +0.000 A 
ATOM     34  C   UNL     1       8.956  10.728  21.495  0.00  0.00    +0.000 C 
ENDBRANCH  26  27
ENDBRANCH  23  25
ENDBRANCH  22  23
ENDBRANCH   6  21
TORSDOF 9
ENDMDL
MODEL 2
REMARK VINA RESULT:      -8.2      3.794      5.602
REMARK  Name = 
REMARK  13 active torsions:
REMARK  status: ('A' for Active; 'I' for Inactive)
REMARK    1  A    between atoms: C_1  and  O_2
REMARK    2  A    between atoms: O_2  and  C_3
REMARK    3  A    between atoms: C_6  and  C_7
REMARK    4  A    between atoms: C_8  and  C_9
REMARK    5  A    between atoms: C_11  and  O_12
REMARK    6  A    between atoms: O_12  and  C_13
REMARK    7  A    between atoms: C_15  and  O_16
REMARK    8  A    between atoms: O_16  and  C_17
REMARK    9  A    between atoms: C_18  and  C_19
REMARK   10  A    between atoms: C_20  and  C_21
REMARK   11  A    between atoms: C_21  and  C_23
REMARK   12  A    between atoms: C_24  and  C_25
REMARK   13  A    between atoms: C_31  and  C_32
REMARK                            x       y       z     vdW  Elec       q    Type
REMARK                         _______ _______ _______ _____ _____    ______ ____
ROOT
ATOM      1  C   UNL     1       3.317   6.173  17.827  0.00  0.00    +0.000 A 
ATOM      2  C   UNL     1       2.188   5.352  18.025  0.00  0.00    +0.000 A 
ATOM      3  C   UNL     1       2.216   3.996  17.729  0.00  0.00    +0.000 A 
ATOM      4  C   UNL     1       3.382   3.452  17.209  0.00  0.00    +0.000 A 
ATOM      5  C   UNL     1       4.524   4.247  16.979  0.00  0.00    +0.000 A 
ATOM      6  C   UNL     1       4.521   5.628  17.315  0.00  0.00    +0.000 A 
ENDROOT
BRANCH   1   8
ATOM      7  C   UNL     1       1.875   8.074  18.431  0.00  0.00    +0.000 C 
ATOM      8  C   UNL     1       3.103   7.587  18.191  0.00  0.00    +0.000 C 
BRANCH   7  12
ATOM      9  C   UNL     1       1.098  12.298  18.654  0.00  0.00    +0.000 A 
ATOM     10  C   UNL     1       2.243  11.799  18.036  0.00  0.00    +0.000 A 
ATOM     11  C   UNL     1       2.454  10.421  17.932  0.00  0.00    +0.000 A 
ATOM     12  C   UNL     1       1.534   9.510  18.471  0.00  0.00    +0.000 A 
ATOM     13  C   UNL     1       0.373  10.020  19.066  0.00  0.00    +0.000 A 
ATOM     14  C   UNL     1       0.160  11.406  19.166  0.00  0.00    +0.000 A 
BRANCH   9  16
ATOM     15  C   UNL     1       2.252  14.361  18.510  0.00  0.00    +0.000 C 
ATOM     16  O   UNL     1       1.033  13.662  18.729  0.00  0.00    +0.000 OA
ENDBRANCH   9  16
ENDBRANCH   7  12
ENDBRANCH   1   8
BRANCH   3  17
ATOM     17  O   UNL     1       1.055   3.321  17.985  0.00  0.00    +0.000 OA
ATOM     18  C   UNL     1       0.818   2.929  19.333  0.00  0.00    +0.000 C 
ENDBRANCH   3  17
BRANCH   5  19
ATOM     19  O   UNL     1       5.672   3.709  16.437  0.00  0.00    +0.000 OA
ATOM     20  C   UNL     1       5.825   3.811  15.022  0.00  0.00    +0.000 C 
ENDBRANCH   5  19
BRANCH   6  21
ATOM     21  C   UNL     1       5.674   6.538  17.074  0.00  0.00    +0.000 C 
ATOM     22  C   UNL     1       6.735   6.737  17.875  0.00  0.00    +0.000 C 
BRANCH  22  23
ATOM     23  C   UNL     1       7.786   7.725  17.484  0.00  0.00    +0.000 C 
ATOM     24  O   UNL     1       8.322   7.720  16.384  0.00  0.00    +0.000 OA
BRANCH  23  25
ATOM     25  C   UNL     1       8.136   8.718  18.543  0.00  0.00    +0.000 C 
ATOM     26  C   UNL     1       9.030   9.688  18.293  0.00  0.00    +0.000 C 
BRANCH  26  27
ATOM     27  C   UNL     1       9.422  10.659  19.323  0.00  0.00    +0.000 A 
ATOM     28  C   UNL     1       8.778  10.591  20.566  0.00  0.00    +0.000 A 
ATOM     29  C   UNL     1       9.114  11.488  21.574  0.00  0.00    +0.000 A 
ATOM     30  F   UNL     1       8.488  11.416  22.756  0.00  0.00    +0.000 F 
ATOM     31  C   UNL     1      10.089  12.455  21.377  0.00  0.00    +0.000 A 
ATOM     32  C   UNL     1      10.736  12.532  20.145  0.00  0.00    +0.000 A 
ATOM     33  C   UNL     1      10.407  11.645  19.102  0.00  0.00    +0.000 A 
ATOM     34  C   UNL     1      11.137  11.761  17.792  0.00  0.00    +0.000 C 
ENDBRANCH  26  27
ENDBRANCH  23  25
ENDBRANCH  22  23
ENDBRANCH   6  21
TORSDOF 9
ENDMDL
MODEL 3
REMARK VINA RESULT:      -7.9      3.869      5.538
REMARK  Name = 
REMARK  13 active torsions:
REMARK  status: ('A' for Active; 'I' for Inactive)
REMARK    1  A    between atoms: C_1  and  O_2
REMARK    2  A    between atoms: O_2  and  C_3
REMARK    3  A    between atoms: C_6  and  C_7
REMARK    4  A    between atoms: C_8  and  C_9
REMARK    5  A    between atoms: C_11  and  O_12
REMARK    6  A    between atoms: O_12  and  C_13
REMARK    7  A    between atoms: C_15  and  O_16
REMARK    8  A    between atoms: O_16  and  C_17
REMARK    9  A    between atoms: C_18  and  C_19
REMARK   10  A    between atoms: C_20  and  C_21
REMARK   11  A    between atoms: C_21  and  C_23
REMARK   12  A    between atoms: C_24  and  C_25
REMARK   13  A    between atoms: C_31  and  C_32
REMARK                            x       y       z     vdW  Elec       q    Type
REMARK                         _______ _______ _______ _____ _____    ______ ____
ROOT
ATOM      1  C   UNL     1       3.253   6.280  17.759  0.00  0.00    +0.000 A 
ATOM      2  C   UNL     1       2.108   5.490  17.987  0.00  0.00    +0.000 A 
ATOM      3  C   UNL     1       2.102   4.128  17.718  0.00  0.00    +0.000 A 
ATOM      4  C   UNL     1       3.248   3.547  17.194  0.00  0.00    +0.000 A 
ATOM      5  C   UNL     1       4.405   4.311  16.935  0.00  0.00    +0.000 A 
ATOM      6  C   UNL     1       4.438   5.698  17.242  0.00  0.00    +0.000 A 
ENDROOT
BRANCH   1   8
ATOM      7  C   UNL     1       2.003   8.140  18.778  0.00  0.00    +0.000 C 
ATOM      8  C   UNL     1       3.076   7.706  18.097  0.00  0.00    +0.000 C 
BRANCH   7  12
ATOM      9  C   UNL     1       1.007  12.313  19.081  0.00  0.00    +0.000 A 
ATOM     10  C   UNL     1       1.960  11.854  18.174  0.00  0.00    +0.000 A 
ATOM     11  C   UNL     1       2.235  10.489  18.058  0.00  0.00    +0.000 A 
ATOM     12  C   UNL     1       1.581   9.551  18.869  0.00  0.00    +0.000 A 
ATOM     13  C   UNL     1       0.605  10.019  19.760  0.00  0.00    +0.000 A 
ATOM     14  C   UNL     1       0.326  11.392  19.873  0.00  0.00    +0.000 A 
BRANCH   9  16
ATOM     15  C   UNL     1      -0.404  14.183  18.734  0.00  0.00    +0.000 C 
ATOM     16  O   UNL     1       0.864  13.672  19.128  0.00  0.00    +0.000 OA
ENDBRANCH   9  16
ENDBRANCH   7  12
ENDBRANCH   1   8
BRANCH   3  17
ATOM     17  O   UNL     1       0.929   3.485  18.003  0.00  0.00    +0.000 OA
ATOM     18  C   UNL     1       1.008   2.329  18.830  0.00  0.00    +0.000 C 
ENDBRANCH   3  17
BRANCH   5  19
ATOM     19  O   UNL     1       5.532   3.736  16.388  0.00  0.00    +0.000 OA
ATOM     20  C   UNL     1       5.691   3.846  14.975  0.00  0.00    +0.000 C 
ENDBRANCH   5  19
BRANCH   6  21
ATOM     21  C   UNL     1       5.607   6.576  16.969  0.00  0.00    +0.000 C 
ATOM     22  C   UNL     1       6.621   6.865  17.803  0.00  0.00    +0.000 C 
BRANCH  22  23
ATOM     23  C   UNL     1       7.699   7.804  17.366  0.00  0.00    +0.000 C 
ATOM     24  O   UNL     1       8.450   7.560  16.432  0.00  0.00    +0.000 OA
BRANCH  23  25
ATOM     25  C   UNL     1       7.792   9.063  18.162  0.00  0.00    +0.000 C 
ATOM     26  C   UNL     1       8.820   9.907  17.978  0.00  0.00    +0.000 C 
BRANCH  26  27
ATOM     27  C   UNL     1       8.959  11.136  18.768  0.00  0.00    +0.000 A 
ATOM     28  C   UNL     1       9.565  11.040  20.029  0.00  0.00    +0.000 A 
ATOM     29  C   UNL     1       9.721  12.176  20.815  0.00  0.00    +0.000 A 
ATOM     30  F   UNL     1      10.297  12.070  22.020  0.00  0.00    +0.000 F 
ATOM     31  C   UNL     1       9.292  13.418  20.372  0.00  0.00    +0.000 A 
ATOM     32  C   UNL     1       8.689  13.527  19.120  0.00  0.00    +0.000 A 
ATOM     33  C   UNL     1       8.507  12.392  18.308  0.00  0.00    +0.000 A 
ATOM     34  C   UNL     1       7.858  12.558  16.962  0.00  0.00    +0.000 C 
ENDBRANCH  26  27
ENDBRANCH  23  25
ENDBRANCH  22  23
ENDBRANCH   6  21
TORSDOF 9
ENDMDL
MODEL 4
REMARK VINA RESULT:      -7.8      7.474     10.306
REMARK  Name = 
REMARK  13 active torsions:
REMARK  status: ('A' for Active; 'I' for Inactive)
REMARK    1  A    between atoms: C_1  and  O_2
REMARK    2  A    between atoms: O_2  and  C_3
REMARK    3  A    between atoms: C_6  and  C_7
REMARK    4  A    between atoms: C_8  and  C_9
REMARK    5  A    between atoms: C_11  and  O_12
REMARK    6  A    between atoms: O_12  and  C_13
REMARK    7  A    between atoms: C_15  and  O_16
REMARK    8  A    between atoms: O_16  and  C_17
REMARK    9  A    between atoms: C_18  and  C_19
REMARK   10  A    between atoms: C_20  and  C_21
REMARK   11  A    between atoms: C_21  and  C_23
REMARK   12  A    between atoms: C_24  and  C_25
REMARK   13  A    between atoms: C_31  and  C_32
REMARK                            x       y       z     vdW  Elec       q    Type
REMARK                         _______ _______ _______ _____ _____    ______ ____
ROOT
ATOM      1  C   UNL     1       2.038   8.542  18.611  0.00  0.00    +0.000 A 
ATOM      2  C   UNL     1       2.879   8.002  17.617  0.00  0.00    +0.000 A 
ATOM      3  C   UNL     1       3.462   6.751  17.760  0.00  0.00    +0.000 A 
ATOM      4  C   UNL     1       3.220   6.033  18.923  0.00  0.00    +0.000 A 
ATOM      5  C   UNL     1       2.400   6.550  19.947  0.00  0.00    +0.000 A 
ATOM      6  C   UNL     1       1.766   7.812  19.796  0.00  0.00    +0.000 A 
ENDROOT
BRANCH   1   8
ATOM      7  C   UNL     1       2.220  10.996  18.546  0.00  0.00    +0.000 C 
ATOM      8  C   UNL     1       1.513   9.883  18.291  0.00  0.00    +0.000 C 
BRANCH   7  12
ATOM      9  C   UNL     1       0.751  15.031  18.789  0.00  0.00    +0.000 A 
ATOM     10  C   UNL     1       2.088  14.757  18.511  0.00  0.00    +0.000 A 
ATOM     11  C   UNL     1       2.536  13.438  18.389  0.00  0.00    +0.000 A 
ATOM     12  C   UNL     1       1.659  12.360  18.572  0.00  0.00    +0.000 A 
ATOM     13  C   UNL     1       0.310  12.645  18.824  0.00  0.00    +0.000 A 
ATOM     14  C   UNL     1      -0.140  13.971  18.941  0.00  0.00    +0.000 A 
BRANCH   9  16
ATOM     15  C   UNL     1       1.263  17.094  19.831  0.00  0.00    +0.000 C 
ATOM     16  O   UNL     1       0.451  16.358  18.925  0.00  0.00    +0.000 OA
ENDBRANCH   9  16
ENDBRANCH   7  12
ENDBRANCH   1   8
BRANCH   3  17
ATOM     17  O   UNL     1       4.241   6.348  16.711  0.00  0.00    +0.000 OA
ATOM     18  C   UNL     1       5.634   6.626  16.794  0.00  0.00    +0.000 C 
ENDBRANCH   3  17
BRANCH   5  19
ATOM     19  O   UNL     1       2.184   5.846  21.113  0.00  0.00    +0.000 OA
ATOM     20  C   UNL     1       1.998   4.437  20.989  0.00  0.00    +0.000 C 
ENDBRANCH   5  19
BRANCH   6  21
ATOM     21  C   UNL     1       0.913   8.439  20.843  0.00  0.00    +0.000 C 
ATOM     22  C   UNL     1       1.318   9.206  21.870  0.00  0.00    +0.000 C 
BRANCH  22  23
ATOM     23  C   UNL     1       0.316   9.723  22.851  0.00  0.00    +0.000 C 
ATOM     24  O   UNL     1       0.356   9.449  24.043  0.00  0.00    +0.000 OA
BRANCH  23  25
ATOM     25  C   UNL     1      -0.742  10.596  22.263  0.00  0.00    +0.000 C 
ATOM     26  C   UNL     1      -0.837  11.885  22.629  0.00  0.00    +0.000 C 
BRANCH  26  27
ATOM     27  C   UNL     1      -1.887  12.762  22.096  0.00  0.00    +0.000 A 
ATOM     28  C   UNL     1      -2.649  12.291  21.019  0.00  0.00    +0.000 A 
ATOM     29  C   UNL     1      -3.656  13.084  20.479  0.00  0.00    +0.000 A 
ATOM     30  F   UNL     1      -4.375  12.625  19.446  0.00  0.00    +0.000 F 
ATOM     31  C   UNL     1      -3.930  14.343  20.993  0.00  0.00    +0.000 A 
ATOM     32  C   UNL     1      -3.179  14.822  22.065  0.00  0.00    +0.000 A 
ATOM     33  C   UNL     1      -2.145  14.046  22.624  0.00  0.00    +0.000 A 
ATOM     34  C   UNL     1      -1.366  14.601  23.784  0.00  0.00    +0.000 C 
ENDBRANCH  26  27
ENDBRANCH  23  25
ENDBRANCH  22  23
ENDBRANCH   6  21
TORSDOF 9
ENDMDL
MODEL 5
REMARK VINA RESULT:      -7.7      8.762     11.877
REMARK  Name = 
REMARK  13 active torsions:
REMARK  status: ('A' for Active; 'I' for Inactive)
REMARK    1  A    between atoms: C_1  and  O_2
REMARK    2  A    between atoms: O_2  and  C_3
REMARK    3  A    between atoms: C_6  and  C_7
REMARK    4  A    between atoms: C_8  and  C_9
REMARK    5  A    between atoms: C_11  and  O_12
REMARK    6  A    between atoms: O_12  and  C_13
REMARK    7  A    between atoms: C_15  and  O_16
REMARK    8  A    between atoms: O_16  and  C_17
REMARK    9  A    between atoms: C_18  and  C_19
REMARK   10  A    between atoms: C_20  and  C_21
REMARK   11  A    between atoms: C_21  and  C_23
REMARK   12  A    between atoms: C_24  and  C_25
REMARK   13  A    between atoms: C_31  and  C_32
REMARK                            x       y       z     vdW  Elec       q    Type
REMARK                         _______ _______ _______ _____ _____    ______ ____
ROOT
ATOM      1  C   UNL     1      -3.539  12.176  19.408  0.00  0.00    +0.000 A 
ATOM      2  C   UNL     1      -4.942  12.306  19.432  0.00  0.00    +0.000 A 
ATOM      3  C   UNL     1      -5.743  11.703  18.471  0.00  0.00    +0.000 A 
ATOM      4  C   UNL     1      -5.135  10.976  17.458  0.00  0.00    +0.000 A 
ATOM      5  C   UNL     1      -3.733  10.841  17.391  0.00  0.00    +0.000 A 
ATOM      6  C   UNL     1      -2.904  11.419  18.390  0.00  0.00    +0.000 A 
ENDROOT
BRANCH   1   8
ATOM      7  C   UNL     1      -3.208  12.719  21.786  0.00  0.00    +0.000 C 
ATOM      8  C   UNL     1      -2.851  12.887  20.502  0.00  0.00    +0.000 C 
BRANCH   7  12
ATOM      9  C   UNL     1      -2.177  15.509  24.892  0.00  0.00    +0.000 A 
ATOM     10  C   UNL     1      -3.498  15.312  24.498  0.00  0.00    +0.000 A 
ATOM     11  C   UNL     1      -3.818  14.366  23.519  0.00  0.00    +0.000 A 
ATOM     12  C   UNL     1      -2.815  13.614  22.891  0.00  0.00    +0.000 A 
ATOM     13  C   UNL     1      -1.492  13.799  23.313  0.00  0.00    +0.000 A 
ATOM     14  C   UNL     1      -1.172  14.747  24.300  0.00  0.00    +0.000 A 
BRANCH   9  16
ATOM     15  C   UNL     1      -0.855  17.325  25.644  0.00  0.00    +0.000 C 
ATOM     16  O   UNL     1      -1.994  16.493  25.824  0.00  0.00    +0.000 OA
ENDBRANCH   9  16
ENDBRANCH   7  12
ENDBRANCH   1   8
BRANCH   3  17
ATOM     17  O   UNL     1      -7.087  11.901  18.628  0.00  0.00    +0.000 OA
ATOM     18  C   UNL     1      -7.510  12.571  19.810  0.00  0.00    +0.000 C 
ENDBRANCH   3  17
BRANCH   5  19
ATOM     19  O   UNL     1      -3.130  10.141  16.368  0.00  0.00    +0.000 OA
ATOM     20  C   UNL     1      -3.183  10.726  15.068  0.00  0.00    +0.000 C 
ENDBRANCH   5  19
BRANCH   6  21
ATOM     21  C   UNL     1      -1.417  11.349  18.372  0.00  0.00    +0.000 C 
ATOM     22  C   UNL     1      -0.649  10.293  18.691  0.00  0.00    +0.000 C 
BRANCH  22  23
ATOM     23  C   UNL     1       0.840  10.418  18.650  0.00  0.00    +0.000 C 
ATOM     24  O   UNL     1       1.427  11.440  18.977  0.00  0.00    +0.000 OA
BRANCH  23  25
ATOM     25  C   UNL     1       1.557   9.198  18.173  0.00  0.00    +0.000 C 
ATOM     26  C   UNL     1       2.052   8.315  19.055  0.00  0.00    +0.000 C 
BRANCH  26  27
ATOM     27  C   UNL     1       2.791   7.123  18.621  0.00  0.00    +0.000 A 
ATOM     28  C   UNL     1       3.653   7.251  17.523  0.00  0.00    +0.000 A 
ATOM     29  C   UNL     1       4.376   6.152  17.074  0.00  0.00    +0.000 A 
ATOM     30  F   UNL     1       5.193   6.285  16.020  0.00  0.00    +0.000 F 
ATOM     31  C   UNL     1       4.267   4.918  17.700  0.00  0.00    +0.000 A 
ATOM     32  C   UNL     1       3.414   4.779  18.793  0.00  0.00    +0.000 A 
ATOM     33  C   UNL     1       2.660   5.872  19.261  0.00  0.00    +0.000 A 
ATOM     34  C   UNL     1       1.757   5.677  20.448  0.00  0.00    +0.000 C 
ENDBRANCH  26  27
ENDBRANCH  23  25
ENDBRANCH  22  23
ENDBRANCH   6  21
TORSDOF 9
ENDMDL
MODEL 6
REMARK VINA RESULT:      -7.7      3.823      5.445
REMARK  Name = 
REMARK  13 active torsions:
REMARK  status: ('A' for Active; 'I' for Inactive)
REMARK    1  A    between atoms: C_1  and  O_2
REMARK    2  A    between atoms: O_2  and  C_3
REMARK    3  A    between atoms: C_6  and  C_7
REMARK    4  A    between atoms: C_8  and  C_9
REMARK    5  A    between atoms: C_11  and  O_12
REMARK    6  A    between atoms: O_12  and  C_13
REMARK    7  A    between atoms: C_15  and  O_16
REMARK    8  A    between atoms: O_16  and  C_17
REMARK    9  A    between atoms: C_18  and  C_19
REMARK   10  A    between atoms: C_20  and  C_21
REMARK   11  A    between atoms: C_21  and  C_23
REMARK   12  A    between atoms: C_24  and  C_25
REMARK   13  A    between atoms: C_31  and  C_32
REMARK                            x       y       z     vdW  Elec       q    Type
REMARK                         _______ _______ _______ _____ _____    ______ ____
ROOT
ATOM      1  C   UNL     1       3.387   6.180  17.814  0.00  0.00    +0.000 A 
ATOM      2  C   UNL     1       2.242   5.381  18.005  0.00  0.00    +0.000 A 
ATOM      3  C   UNL     1       2.222   4.043  17.638  0.00  0.00    +0.000 A 
ATOM      4  C   UNL     1       3.354   3.496  17.050  0.00  0.00    +0.000 A 
ATOM      5  C   UNL     1       4.511   4.271  16.825  0.00  0.00    +0.000 A 
ATOM      6  C   UNL     1       4.558   5.631  17.233  0.00  0.00    +0.000 A 
ENDROOT
BRANCH   1   8
ATOM      7  C   UNL     1       2.075   8.020  18.790  0.00  0.00    +0.000 C 
ATOM      8  C   UNL     1       3.226   7.578  18.259  0.00  0.00    +0.000 C 
BRANCH   7  12
ATOM      9  C   UNL     1       0.791  12.097  19.258  0.00  0.00    +0.000 A 
ATOM     10  C   UNL     1       0.388  11.100  20.143  0.00  0.00    +0.000 A 
ATOM     11  C   UNL     1       0.854   9.789  20.001  0.00  0.00    +0.000 A 
ATOM     12  C   UNL     1       1.715   9.442  18.951  0.00  0.00    +0.000 A 
ATOM     13  C   UNL     1       2.137  10.457  18.082  0.00  0.00    +0.000 A 
ATOM     14  C   UNL     1       1.671  11.775  18.227  0.00  0.00    +0.000 A 
BRANCH   9  16
ATOM     15  C   UNL     1      -1.173  13.340  19.712  0.00  0.00    +0.000 C 
ATOM     16  O   UNL     1       0.230  13.325  19.479  0.00  0.00    +0.000 OA
ENDBRANCH   9  16
ENDBRANCH   7  12
ENDBRANCH   1   8
BRANCH   3  17
ATOM     17  O   UNL     1       1.050   3.387  17.897  0.00  0.00    +0.000 OA
ATOM     18  C   UNL     1       0.920   2.775  19.175  0.00  0.00    +0.000 C 
ENDBRANCH   3  17
BRANCH   5  19
ATOM     19  O   UNL     1       5.624   3.732  16.216  0.00  0.00    +0.000 OA
ATOM     20  C   UNL     1       5.728   3.895  14.802  0.00  0.00    +0.000 C 
ENDBRANCH   5  19
BRANCH   6  21
ATOM     21  C   UNL     1       5.729   6.522  17.002  0.00  0.00    +0.000 C 
ATOM     22  C   UNL     1       6.646   6.911  17.904  0.00  0.00    +0.000 C 
BRANCH  22  23
ATOM     23  C   UNL     1       7.740   7.845  17.497  0.00  0.00    +0.000 C 
ATOM     24  O   UNL     1       8.463   7.636  16.533  0.00  0.00    +0.000 OA
BRANCH  23  25
ATOM     25  C   UNL     1       7.885   9.053  18.362  0.00  0.00    +0.000 C 
ATOM     26  C   UNL     1       9.104   9.513  18.684  0.00  0.00    +0.000 C 
BRANCH  26  27
ATOM     27  C   UNL     1       9.282  10.677  19.560  0.00  0.00    +0.000 A 
ATOM     28  C   UNL     1       8.826  10.578  20.882  0.00  0.00    +0.000 A 
ATOM     29  C   UNL     1       8.972  11.653  21.751  0.00  0.00    +0.000 A 
ATOM     30  F   UNL     1       8.527  11.548  23.011  0.00  0.00    +0.000 F 
ATOM     31  C   UNL     1       9.574  12.833  21.338  0.00  0.00    +0.000 A 
ATOM     32  C   UNL     1      10.032  12.943  20.026  0.00  0.00    +0.000 A 
ATOM     33  C   UNL     1       9.886  11.875  19.120  0.00  0.00    +0.000 A 
ATOM     34  C   UNL     1      10.402  12.037  17.717  0.00  0.00    +0.000 C 
ENDBRANCH  26  27
ENDBRANCH  23  25
ENDBRANCH  22  23
ENDBRANCH   6  21
TORSDOF 9
ENDMDL
MODEL 7
REMARK VINA RESULT:      -7.7      4.158      7.798
REMARK  Name = 
REMARK  13 active torsions:
REMARK  status: ('A' for Active; 'I' for Inactive)
REMARK    1  A    between atoms: C_1  and  O_2
REMARK    2  A    between atoms: O_2  and  C_3
REMARK    3  A    between atoms: C_6  and  C_7
REMARK    4  A    between atoms: C_8  and  C_9
REMARK    5  A    between atoms: C_11  and  O_12
REMARK    6  A    between atoms: O_12  and  C_13
REMARK    7  A    between atoms: C_15  and  O_16
REMARK    8  A    between atoms: O_16  and  C_17
REMARK    9  A    between atoms: C_18  and  C_19
REMARK   10  A    between atoms: C_20  and  C_21
REMARK   11  A    between atoms: C_21  and  C_23
REMARK   12  A    between atoms: C_24  and  C_25
REMARK   13  A    between atoms: C_31  and  C_32
REMARK                            x       y       z     vdW  Elec       q    Type
REMARK                         _______ _______ _______ _____ _____    ______ ____
ROOT
ATOM      1  C   UNL     1       5.753   6.329  17.116  0.00  0.00    +0.000 A 
ATOM      2  C   UNL     1       6.570   5.815  16.088  0.00  0.00    +0.000 A 
ATOM      3  C   UNL     1       6.257   4.630  15.437  0.00  0.00    +0.000 A 
ATOM      4  C   UNL     1       5.123   3.932  15.830  0.00  0.00    +0.000 A 
ATOM      5  C   UNL     1       4.294   4.406  16.868  0.00  0.00    +0.000 A 
ATOM      6  C   UNL     1       4.581   5.638  17.515  0.00  0.00    +0.000 A 
ENDROOT
BRANCH   1   8
ATOM      7  C   UNL     1       7.346   8.202  17.231  0.00  0.00    +0.000 C 
ATOM      8  C   UNL     1       6.242   7.594  17.696  0.00  0.00    +0.000 C 
BRANCH   7  12
ATOM      9  C   UNL     1       9.603  11.352  19.097  0.00  0.00    +0.000 A 
ATOM     10  C   UNL     1       8.796  11.591  17.987  0.00  0.00    +0.000 A 
ATOM     11  C   UNL     1       8.034  10.564  17.423  0.00  0.00    +0.000 A 
ATOM     12  C   UNL     1       8.083   9.263  17.944  0.00  0.00    +0.000 A 
ATOM     13  C   UNL     1       8.876   9.037  19.077  0.00  0.00    +0.000 A 
ATOM     14  C   UNL     1       9.639  10.072  19.645  0.00  0.00    +0.000 A 
BRANCH   9  16
ATOM     15  C   UNL     1      11.545  12.135  20.204  0.00  0.00    +0.000 C 
ATOM     16  O   UNL     1      10.331  12.428  19.523  0.00  0.00    +0.000 OA
ENDBRANCH   9  16
ENDBRANCH   7  12
ENDBRANCH   1   8
BRANCH   3  17
ATOM     17  O   UNL     1       7.129   4.261  14.451  0.00  0.00    +0.000 OA
ATOM     18  C   UNL     1       6.567   3.857  13.207  0.00  0.00    +0.000 C 
ENDBRANCH   3  17
BRANCH   5  19
ATOM     19  O   UNL     1       3.184   3.698  17.275  0.00  0.00    +0.000 OA
ATOM     20  C   UNL     1       3.417   2.526  18.055  0.00  0.00    +0.000 C 
ENDBRANCH   5  19
BRANCH   6  21
ATOM     21  C   UNL     1       3.774   6.188  18.639  0.00  0.00    +0.000 C 
ATOM     22  C   UNL     1       2.681   6.966  18.551  0.00  0.00    +0.000 C 
BRANCH  22  23
ATOM     23  C   UNL     1       2.017   7.458  19.797  0.00  0.00    +0.000 C 
ATOM     24  O   UNL     1       1.832   6.745  20.773  0.00  0.00    +0.000 OA
BRANCH  23  25
ATOM     25  C   UNL     1       1.592   8.888  19.755  0.00  0.00    +0.000 C 
ATOM     26  C   UNL     1       0.992   9.385  18.661  0.00  0.00    +0.000 C 
BRANCH  26  27
ATOM     27  C   UNL     1       0.592  10.795  18.574  0.00  0.00    +0.000 A 
ATOM     28  C   UNL     1       1.596  11.768  18.674  0.00  0.00    +0.000 A 
ATOM     29  C   UNL     1       1.268  13.117  18.597  0.00  0.00    +0.000 A 
ATOM     30  F   UNL     1       2.236  14.038  18.698  0.00  0.00    +0.000 F 
ATOM     31  C   UNL     1      -0.045  13.526  18.414  0.00  0.00    +0.000 A 
ATOM     32  C   UNL     1      -1.052  12.567  18.313  0.00  0.00    +0.000 A 
ATOM     33  C   UNL     1      -0.750  11.195  18.400  0.00  0.00    +0.000 A 
ATOM     34  C   UNL     1      -1.869  10.196  18.278  0.00  0.00    +0.000 C 
ENDBRANCH  26  27
ENDBRANCH  23  25
ENDBRANCH  22  23
ENDBRANCH   6  21
TORSDOF 9
ENDMDL
MODEL 8
REMARK VINA RESULT:      -7.7      3.868      5.436
REMARK  Name = 
REMARK  13 active torsions:
REMARK  status: ('A' for Active; 'I' for Inactive)
REMARK    1  A    between atoms: C_1  and  O_2
REMARK    2  A    between atoms: O_2  and  C_3
REMARK    3  A    between atoms: C_6  and  C_7
REMARK    4  A    between atoms: C_8  and  C_9
REMARK    5  A    between atoms: C_11  and  O_12
REMARK    6  A    between atoms: O_12  and  C_13
REMARK    7  A    between atoms: C_15  and  O_16
REMARK    8  A    between atoms: O_16  and  C_17
REMARK    9  A    between atoms: C_18  and  C_19
REMARK   10  A    between atoms: C_20  and  C_21
REMARK   11  A    between atoms: C_21  and  C_23
REMARK   12  A    between atoms: C_24  and  C_25
REMARK   13  A    between atoms: C_31  and  C_32
REMARK                            x       y       z     vdW  Elec       q    Type
REMARK                         _______ _______ _______ _____ _____    ______ ____
ROOT
ATOM      1  C   UNL     1       3.268   6.288  17.655  0.00  0.00    +0.000 A 
ATOM      2  C   UNL     1       2.123   5.503  17.898  0.00  0.00    +0.000 A 
ATOM      3  C   UNL     1       2.125   4.131  17.683  0.00  0.00    +0.000 A 
ATOM      4  C   UNL     1       3.281   3.535  17.199  0.00  0.00    +0.000 A 
ATOM      5  C   UNL     1       4.439   4.293  16.926  0.00  0.00    +0.000 A 
ATOM      6  C   UNL     1       4.462   5.691  17.180  0.00  0.00    +0.000 A 
ENDROOT
BRANCH   1   8
ATOM      7  C   UNL     1       1.943   8.196  18.471  0.00  0.00    +0.000 C 
ATOM      8  C   UNL     1       3.081   7.725  17.934  0.00  0.00    +0.000 C 
BRANCH   7  12
ATOM      9  C   UNL     1       0.982  12.386  18.601  0.00  0.00    +0.000 A 
ATOM     10  C   UNL     1       2.176  11.928  18.047  0.00  0.00    +0.000 A 
ATOM     11  C   UNL     1       2.448  10.559  17.972  0.00  0.00    +0.000 A 
ATOM     12  C   UNL     1       1.542   9.616  18.476  0.00  0.00    +0.000 A 
ATOM     13  C   UNL     1       0.332  10.084  19.006  0.00  0.00    +0.000 A 
ATOM     14  C   UNL     1       0.057  11.461  19.078  0.00  0.00    +0.000 A 
BRANCH   9  16
ATOM     15  C   UNL     1      -0.333  14.244  19.254  0.00  0.00    +0.000 C 
ATOM     16  O   UNL     1       0.857  13.747  18.655  0.00  0.00    +0.000 OA
ENDBRANCH   9  16
ENDBRANCH   7  12
ENDBRANCH   1   8
BRANCH   3  17
ATOM     17  O   UNL     1       0.951   3.495  17.975  0.00  0.00    +0.000 OA
ATOM     18  C   UNL     1       1.008   2.432  18.921  0.00  0.00    +0.000 C 
ENDBRANCH   3  17
BRANCH   5  19
ATOM     19  O   UNL     1       5.577   3.702  16.420  0.00  0.00    +0.000 OA
ATOM     20  C   UNL     1       5.765   3.771  15.007  0.00  0.00    +0.000 C 
ENDBRANCH   5  19
BRANCH   6  21
ATOM     21  C   UNL     1       5.633   6.563  16.888  0.00  0.00    +0.000 C 
ATOM     22  C   UNL     1       6.565   6.990  17.757  0.00  0.00    +0.000 C 
BRANCH  22  23
ATOM     23  C   UNL     1       7.657   7.898  17.289  0.00  0.00    +0.000 C 
ATOM     24  O   UNL     1       8.537   7.533  16.522  0.00  0.00    +0.000 OA
BRANCH  23  25
ATOM     25  C   UNL     1       7.593   9.286  17.835  0.00  0.00    +0.000 C 
ATOM     26  C   UNL     1       8.649  10.107  17.723  0.00  0.00    +0.000 C 
BRANCH  26  27
ATOM     27  C   UNL     1       8.631  11.466  18.279  0.00  0.00    +0.000 A 
ATOM     28  C   UNL     1       8.042  12.480  17.510  0.00  0.00    +0.000 A 
ATOM     29  C   UNL     1       7.999  13.783  17.993  0.00  0.00    +0.000 A 
ATOM     30  F   UNL     1       7.439  14.745  17.247  0.00  0.00    +0.000 F 
ATOM     31  C   UNL     1       8.526  14.105  19.235  0.00  0.00    +0.000 A 
ATOM     32  C   UNL     1       9.113  13.105  20.009  0.00  0.00    +0.000 A 
ATOM     33  C   UNL     1       9.182  11.779  19.540  0.00  0.00    +0.000 A 
ATOM     34  C   UNL     1       9.818  10.732  20.412  0.00  0.00    +0.000 C 
ENDBRANCH  26  27
ENDBRANCH  23  25
ENDBRANCH  22  23
ENDBRANCH   6  21
TORSDOF 9
ENDMDL
MODEL 9
REMARK VINA RESULT:      -7.6      6.572     11.546
REMARK  Name = 
REMARK  13 active torsions:
REMARK  status: ('A' for Active; 'I' for Inactive)
REMARK    1  A    between atoms: C_1  and  O_2
REMARK    2  A    between atoms: O_2  and  C_3
REMARK    3  A    between atoms: C_6  and  C_7
REMARK    4  A    between atoms: C_8  and  C_9
REMARK    5  A    between atoms: C_11  and  O_12
REMARK    6  A    between atoms: O_12  and  C_13
REMARK    7  A    between atoms: C_15  and  O_16
REMARK    8  A    between atoms: O_16  and  C_17
REMARK    9  A    between atoms: C_18  and  C_19
REMARK   10  A    between atoms: C_20  and  C_21
REMARK   11  A    between atoms: C_21  and  C_23
REMARK   12  A    between atoms: C_24  and  C_25
REMARK   13  A    between atoms: C_31  and  C_32
REMARK                            x       y       z     vdW  Elec       q    Type
REMARK                         _______ _______ _______ _____ _____    ______ ____
ROOT
ATOM      1  C   UNL     1       0.220  12.424  19.582  0.00  0.00    +0.000 A 
ATOM      2  C   UNL     1      -0.675  13.370  20.120  0.00  0.00    +0.000 A 
ATOM      3  C   UNL     1      -2.049  13.181  20.068  0.00  0.00    +0.000 A 
ATOM      4  C   UNL     1      -2.542  12.040  19.450  0.00  0.00    +0.000 A 
ATOM      5  C   UNL     1      -1.676  11.081  18.883  0.00  0.00    +0.000 A 
ATOM      6  C   UNL     1      -0.267  11.243  18.965  0.00  0.00    +0.000 A 
ENDROOT
BRANCH   1   8
ATOM      7  C   UNL     1       2.050  14.069  19.636  0.00  0.00    +0.000 C 
ATOM      8  C   UNL     1       1.642  12.792  19.723  0.00  0.00    +0.000 C 
BRANCH   7  12
ATOM      9  C   UNL     1       6.166  15.092  18.923  0.00  0.00    +0.000 A 
ATOM     10  C   UNL     1       5.299  14.786  17.877  0.00  0.00    +0.000 A 
ATOM     11  C   UNL     1       3.953  14.502  18.126  0.00  0.00    +0.000 A 
ATOM     12  C   UNL     1       3.450  14.491  19.434  0.00  0.00    +0.000 A 
ATOM     13  C   UNL     1       4.323  14.827  20.478  0.00  0.00    +0.000 A 
ATOM     14  C   UNL     1       5.675  15.116  20.226  0.00  0.00    +0.000 A 
BRANCH   9  16
ATOM     15  C   UNL     1       8.176  14.171  18.074  0.00  0.00    +0.000 C 
ATOM     16  O   UNL     1       7.464  15.306  18.551  0.00  0.00    +0.000 OA
ENDBRANCH   9  16
ENDBRANCH   7  12
ENDBRANCH   1   8
BRANCH   3  17
ATOM     17  O   UNL     1      -2.795  14.172  20.643  0.00  0.00    +0.000 OA
ATOM     18  C   UNL     1      -2.304  14.730  21.857  0.00  0.00    +0.000 C 
ENDBRANCH   3  17
BRANCH   5  19
ATOM     19  O   UNL     1      -2.169   9.962  18.246  0.00  0.00    +0.000 OA
ATOM     20  C   UNL     1      -2.815  10.167  16.991  0.00  0.00    +0.000 C 
ENDBRANCH   5  19
BRANCH   6  21
ATOM     21  C   UNL     1       0.709  10.294  18.364  0.00  0.00    +0.000 C 
ATOM     22  C   UNL     1       1.250   9.208  18.943  0.00  0.00    +0.000 C 
BRANCH  22  23
ATOM     23  C   UNL     1       2.249   8.386  18.194  0.00  0.00    +0.000 C 
ATOM     24  O   UNL     1       2.850   8.806  17.215  0.00  0.00    +0.000 OA
BRANCH  23  25
ATOM     25  C   UNL     1       2.454   7.008  18.732  0.00  0.00    +0.000 C 
ATOM     26  C   UNL     1       2.252   5.938  17.946  0.00  0.00    +0.000 C 
BRANCH  26  27
ATOM     27  C   UNL     1       2.411   4.569  18.452  0.00  0.00    +0.000 A 
ATOM     28  C   UNL     1       1.589   4.164  19.513  0.00  0.00    +0.000 A 
ATOM     29  C   UNL     1       1.701   2.877  20.028  0.00  0.00    +0.000 A 
ATOM     30  F   UNL     1       0.914   2.503  21.046  0.00  0.00    +0.000 F 
ATOM     31  C   UNL     1       2.613   1.972  19.504  0.00  0.00    +0.000 A 
ATOM     32  C   UNL     1       3.434   2.363  18.448  0.00  0.00    +0.000 A 
ATOM     33  C   UNL     1       3.352   3.664  17.916  0.00  0.00    +0.000 A 
ATOM     34  C   UNL     1       4.254   4.040  16.772  0.00  0.00    +0.000 C 
ENDBRANCH  26  27
ENDBRANCH  23  25
ENDBRANCH  22  23
ENDBRANCH   6  21
TORSDOF 9
ENDMDL
