MODEL 1
REMARK VINA RESULT:      -8.3      0.000      0.000
REMARK  Name = 
REMARK  8 active torsions:
REMARK  status: ('A' for Active; 'I' for Inactive)
REMARK    1  A    between atoms: C_1  and  O_2
REMARK    2  A    between atoms: O_2  and  C_3
REMARK    3  A    between atoms: C_3  and  C_4
REMARK    4  A    between atoms: C_4  and  N_5
REMARK    5  A    between atoms: C_6  and  N_7
REMARK    6  A    between atoms: C_8  and  C_9
REMARK    7  A    between atoms: N_11  and  C_12
REMARK    8  A    between atoms: C_12  and  C_13
REMARK                            x       y       z     vdW  Elec       q    Type
REMARK                         _______ _______ _______ _____ _____    ______ ____
ROOT
ATOM      1  N   UNL     1       5.760   4.745  16.186  0.00  0.00    +0.000 N 
ATOM      2  C   UNL     1       6.155   6.060  16.442  0.00  0.00    +0.000 A 
ATOM      3  C   UNL     1       6.357   5.982  17.811  0.00  0.00    +0.000 A 
ATOM      4  C   UNL     1       5.212   5.296  18.227  0.00  0.00    +0.000 A 
ATOM      5  N   UNL     1       4.579   5.362  19.407  0.00  0.00    +0.000 NA
ATOM      6  C   UNL     1       3.427   4.720  19.433  0.00  0.00    +0.000 A 
ATOM      7  C   UNL     1       2.628   5.055  20.515  0.00  0.00    +0.000 A 
ATOM      8  C   UNL     1       1.382   4.484  20.666  0.00  0.00    +0.000 A 
ATOM      9  C   UNL     1       0.959   3.554  19.730  0.00  0.00    +0.000 A 
ATOM     10  C   UNL     1       1.771   3.232  18.625  0.00  0.00    +0.000 A 
ATOM     11  C   UNL     1       3.021   3.831  18.400  0.00  0.00    +0.000 A 
ATOM     12  N   UNL     1       3.766   3.610  17.255  0.00  0.00    +0.000 NA
ATOM     13  C   UNL     1       4.836   4.448  17.185  0.00  0.00    +0.000 A 
ENDROOT
BRANCH   3  14
ATOM     14  C   UNL     1       7.561   6.145  18.607  0.00  0.00    +0.000 C 
ATOM     15  O   UNL     1       7.939   5.263  19.366  0.00  0.00    +0.000 OA
ATOM     16  N   UNL     1       8.195   7.356  18.580  0.00  0.00    +0.000 N 
ATOM     17  H   UNL     1       8.837   7.492  19.348  0.00  0.00    +0.000 HD
BRANCH  16  18
ATOM     18  C   UNL     1       7.848   8.504  17.771  0.00  0.00    +0.000 C 
BRANCH  18  19
ATOM     19  C   UNL     1       8.506   9.696  18.339  0.00  0.00    +0.000 A 
ATOM     20  C   UNL     1       9.325   9.763  19.440  0.00  0.00    +0.000 A 
ATOM     21  C   UNL     1       9.807  11.082  19.677  0.00  0.00    +0.000 A 
ATOM     22  C   UNL     1       9.343  11.974  18.734  0.00  0.00    +0.000 A 
ATOM     23  S   UNL     1       8.324  11.229  17.587  0.00  0.00    +0.000 S 
ENDBRANCH  18  19
ENDBRANCH  16  18
ENDBRANCH   3  14
BRANCH   2  24
ATOM     24  N   UNL     1       5.455   7.011  15.750  0.00  0.00    +0.000 N 
ATOM     25  H   UNL     1       4.551   7.297  16.143  0.00  0.00    +0.000 HD
ATOM     26  H   UNL     1       5.972   7.899  15.646  0.00  0.00    +0.000 HD
ENDBRANCH   2  24
BRANCH   1  27
ATOM     27  C   UNL     1       6.473   3.985  15.174  0.00  0.00    +0.000 C 
BRANCH  27  28
ATOM     28  C   UNL     1       5.794   3.917  13.802  0.00  0.00    +0.000 C 
BRANCH  28  30
ATOM     29  C   UNL     1       6.632   2.897  11.829  0.00  0.00    +0.000 C 
ATOM     30  O   UNL     1       6.791   3.953  12.772  0.00  0.00    +0.000 OA
ENDBRANCH  28  30
ENDBRANCH  27  28
ENDBRANCH   1  27
TORSDOF 7
ENDMDL
MODEL 2
REMARK VINA RESULT:      -7.8      3.954      6.037
REMARK  Name = 
REMARK  8 active torsions:
REMARK  status: ('A' for Active; 'I' for Inactive)
REMARK    1  A    between atoms: C_1  and  O_2
REMARK    2  A    between atoms: O_2  and  C_3
REMARK    3  A    between atoms: C_3  and  C_4
REMARK    4  A    between atoms: C_4  and  N_5
REMARK    5  A    between atoms: C_6  and  N_7
REMARK    6  A    between atoms: C_8  and  C_9
REMARK    7  A    between atoms: N_11  and  C_12
REMARK    8  A    between atoms: C_12  and  C_13
REMARK                            x       y       z     vdW  Elec       q    Type
REMARK                         _______ _______ _______ _____ _____    ______ ____
ROOT
ATOM      1  N   UNL     1       3.505   3.415  19.791  0.00  0.00    +0.000 N 
ATOM      2  C   UNL     1       3.835   3.033  18.489  0.00  0.00    +0.000 A 
ATOM      3  C   UNL     1       4.659   4.090  18.136  0.00  0.00    +0.000 A 
ATOM      4  C   UNL     1       3.918   5.188  18.585  0.00  0.00    +0.000 A 
ATOM      5  N   UNL     1       3.906   6.440  18.107  0.00  0.00    +0.000 NA
ATOM      6  C   UNL     1       2.972   7.207  18.638  0.00  0.00    +0.000 A 
ATOM      7  C   UNL     1       2.741   8.375  17.928  0.00  0.00    +0.000 A 
ATOM      8  C   UNL     1       1.776   9.266  18.346  0.00  0.00    +0.000 A 
ATOM      9  C   UNL     1       1.064   8.982  19.501  0.00  0.00    +0.000 A 
ATOM     10  C   UNL     1       1.295   7.785  20.206  0.00  0.00    +0.000 A 
ATOM     11  C   UNL     1       2.226   6.822  19.786  0.00  0.00    +0.000 A 
ATOM     12  N   UNL     1       2.369   5.593  20.405  0.00  0.00    +0.000 NA
ATOM     13  C   UNL     1       3.189   4.769  19.698  0.00  0.00    +0.000 A 
ENDROOT
BRANCH   3  14
ATOM     14  C   UNL     1       6.071   4.125  17.798  0.00  0.00    +0.000 C 
ATOM     15  O   UNL     1       6.922   4.293  18.661  0.00  0.00    +0.000 OA
ATOM     16  N   UNL     1       6.421   4.088  16.476  0.00  0.00    +0.000 N 
ATOM     17  H   UNL     1       7.366   4.394  16.301  0.00  0.00    +0.000 HD
BRANCH  16  18
ATOM     18  C   UNL     1       5.534   3.934  15.344  0.00  0.00    +0.000 C 
BRANCH  18  19
ATOM     19  C   UNL     1       6.286   4.238  14.113  0.00  0.00    +0.000 A 
ATOM     20  C   UNL     1       7.284   5.166  13.941  0.00  0.00    +0.000 A 
ATOM     21  C   UNL     1       7.806   5.162  12.616  0.00  0.00    +0.000 A 
ATOM     22  C   UNL     1       7.191   4.216  11.825  0.00  0.00    +0.000 A 
ATOM     23  S   UNL     1       5.984   3.355  12.670  0.00  0.00    +0.000 S 
ENDBRANCH  18  19
ENDBRANCH  16  18
ENDBRANCH   3  14
BRANCH   2  24
ATOM     24  N   UNL     1       2.799   2.501  17.771  0.00  0.00    +0.000 N 
ATOM     25  H   UNL     1       2.411   1.611  18.107  0.00  0.00    +0.000 HD
ATOM     26  H   UNL     1       1.976   3.124  17.721  0.00  0.00    +0.000 HD
ENDBRANCH   2  24
BRANCH   1  27
ATOM     27  C   UNL     1       3.737   2.477  20.875  0.00  0.00    +0.000 C 
BRANCH  27  28
ATOM     28  C   UNL     1       4.852   1.456  20.635  0.00  0.00    +0.000 C 
BRANCH  28  30
ATOM     29  C   UNL     1       6.113   0.025  22.050  0.00  0.00    +0.000 C 
ATOM     30  O   UNL     1       5.673   1.358  21.807  0.00  0.00    +0.000 OA
ENDBRANCH  28  30
ENDBRANCH  27  28
ENDBRANCH   1  27
TORSDOF 7
ENDMDL
MODEL 3
REMARK VINA RESULT:      -7.7      2.723      4.967
REMARK  Name = 
REMARK  8 active torsions:
REMARK  status: ('A' for Active; 'I' for Inactive)
REMARK    1  A    between atoms: C_1  and  O_2
REMARK    2  A    between atoms: O_2  and  C_3
REMARK    3  A    between atoms: C_3  and  C_4
REMARK    4  A    between atoms: C_4  and  N_5
REMARK    5  A    between atoms: C_6  and  N_7
REMARK    6  A    between atoms: C_8  and  C_9
REMARK    7  A    between atoms: N_11  and  C_12
REMARK    8  A    between atoms: C_12  and  C_13
REMARK                            x       y       z     vdW  Elec       q    Type
REMARK                         _______ _______ _______ _____ _____    ______ ____
ROOT
ATOM      1  N   UNL     1       3.742   3.549  18.981  0.00  0.00    +0.000 N 
ATOM      2  C   UNL     1       3.513   3.162  17.659  0.00  0.00    +0.000 A 
ATOM      3  C   UNL     1       4.098   4.230  16.997  0.00  0.00    +0.000 A 
ATOM      4  C   UNL     1       3.589   5.319  17.711  0.00  0.00    +0.000 A 
ATOM      5  N   UNL     1       3.357   6.567  17.281  0.00  0.00    +0.000 NA
ATOM      6  C   UNL     1       2.712   7.322  18.150  0.00  0.00    +0.000 A 
ATOM      7  C   UNL     1       2.187   8.480  17.599  0.00  0.00    +0.000 A 
ATOM      8  C   UNL     1       1.465   9.359  18.378  0.00  0.00    +0.000 A 
ATOM      9  C   UNL     1       1.298   9.072  19.724  0.00  0.00    +0.000 A 
ATOM     10  C   UNL     1       1.822   7.884  20.271  0.00  0.00    +0.000 A 
ATOM     11  C   UNL     1       2.514   6.933  19.504  0.00  0.00    +0.000 A 
ATOM     12  N   UNL     1       2.922   5.712  20.009  0.00  0.00    +0.000 NA
ATOM     13  C   UNL     1       3.392   4.896  19.026  0.00  0.00    +0.000 A 
ENDROOT
BRANCH   3  14
ATOM     14  C   UNL     1       5.244   4.286  16.105  0.00  0.00    +0.000 C 
ATOM     15  O   UNL     1       5.129   4.024  14.916  0.00  0.00    +0.000 OA
ATOM     16  N   UNL     1       6.476   4.519  16.650  0.00  0.00    +0.000 N 
ATOM     17  H   UNL     1       7.240   4.269  16.039  0.00  0.00    +0.000 HD
BRANCH  16  18
ATOM     18  C   UNL     1       6.777   4.803  18.035  0.00  0.00    +0.000 C 
BRANCH  18  19
ATOM     19  C   UNL     1       7.312   6.175  18.128  0.00  0.00    +0.000 A 
ATOM     20  C   UNL     1       8.238   6.660  19.020  0.00  0.00    +0.000 A 
ATOM     21  C   UNL     1       8.540   8.033  18.792  0.00  0.00    +0.000 A 
ATOM     22  C   UNL     1       7.838   8.543  17.721  0.00  0.00    +0.000 A 
ATOM     23  S   UNL     1       6.812   7.380  17.010  0.00  0.00    +0.000 S 
ENDBRANCH  18  19
ENDBRANCH  16  18
ENDBRANCH   3  14
BRANCH   2  24
ATOM     24  N   UNL     1       2.282   2.607  17.433  0.00  0.00    +0.000 N 
ATOM     25  H   UNL     1       1.565   2.765  18.150  0.00  0.00    +0.000 HD
ATOM     26  H   UNL     1       1.839   2.943  16.562  0.00  0.00    +0.000 HD
ENDBRANCH   2  24
BRANCH   1  27
ATOM     27  C   UNL     1       4.419   2.623  19.873  0.00  0.00    +0.000 C 
BRANCH  27  28
ATOM     28  C   UNL     1       3.566   2.072  21.020  0.00  0.00    +0.000 C 
BRANCH  28  30
ATOM     29  C   UNL     1       1.395   2.826  21.616  0.00  0.00    +0.000 C 
ATOM     30  O   UNL     1       2.180   2.127  20.655  0.00  0.00    +0.000 OA
ENDBRANCH  28  30
ENDBRANCH  27  28
ENDBRANCH   1  27
TORSDOF 7
ENDMDL
MODEL 4
REMARK VINA RESULT:      -7.5      2.584      6.583
REMARK  Name = 
REMARK  8 active torsions:
REMARK  status: ('A' for Active; 'I' for Inactive)
REMARK    1  A    between atoms: C_1  and  O_2
REMARK    2  A    between atoms: O_2  and  C_3
REMARK    3  A    between atoms: C_3  and  C_4
REMARK    4  A    between atoms: C_4  and  N_5
REMARK    5  A    between atoms: C_6  and  N_7
REMARK    6  A    between atoms: C_8  and  C_9
REMARK    7  A    between atoms: N_11  and  C_12
REMARK    8  A    between atoms: C_12  and  C_13
REMARK                            x       y       z     vdW  Elec       q    Type
REMARK                         _______ _______ _______ _____ _____    ______ ____
ROOT
ATOM      1  N   UNL     1       6.873   6.530  17.247  0.00  0.00    +0.000 N 
ATOM      2  C   UNL     1       5.539   6.559  17.657  0.00  0.00    +0.000 A 
ATOM      3  C   UNL     1       5.232   5.211  17.557  0.00  0.00    +0.000 A 
ATOM      4  C   UNL     1       5.777   4.889  16.310  0.00  0.00    +0.000 A 
ATOM      5  N   UNL     1       5.386   3.943  15.445  0.00  0.00    +0.000 NA
ATOM      6  C   UNL     1       5.997   3.999  14.277  0.00  0.00    +0.000 A 
ATOM      7  C   UNL     1       5.375   3.253  13.288  0.00  0.00    +0.000 A 
ATOM      8  C   UNL     1       5.883   3.233  12.006  0.00  0.00    +0.000 A 
ATOM      9  C   UNL     1       7.038   3.951  11.737  0.00  0.00    +0.000 A 
ATOM     10  C   UNL     1       7.653   4.719  12.746  0.00  0.00    +0.000 A 
ATOM     11  C   UNL     1       7.139   4.815  14.049  0.00  0.00    +0.000 A 
ATOM     12  N   UNL     1       7.669   5.662  15.005  0.00  0.00    +0.000 NA
ATOM     13  C   UNL     1       6.882   5.718  16.114  0.00  0.00    +0.000 A 
ENDROOT
BRANCH   3  14
ATOM     14  C   UNL     1       4.852   4.244  18.571  0.00  0.00    +0.000 C 
ATOM     15  O   UNL     1       5.692   3.542  19.118  0.00  0.00    +0.000 OA
ATOM     16  N   UNL     1       3.521   4.048  18.812  0.00  0.00    +0.000 N 
ATOM     17  H   UNL     1       3.322   3.189  19.304  0.00  0.00    +0.000 HD
BRANCH  16  18
ATOM     18  C   UNL     1       2.413   4.765  18.219  0.00  0.00    +0.000 C 
BRANCH  18  19
ATOM     19  C   UNL     1       2.125   5.952  19.046  0.00  0.00    +0.000 A 
ATOM     20  C   UNL     1       2.081   7.266  18.649  0.00  0.00    +0.000 A 
ATOM     21  C   UNL     1       1.740   8.144  19.717  0.00  0.00    +0.000 A 
ATOM     22  C   UNL     1       1.525   7.460  20.894  0.00  0.00    +0.000 A 
ATOM     23  S   UNL     1       1.749   5.778  20.714  0.00  0.00    +0.000 S 
ENDBRANCH  18  19
ENDBRANCH  16  18
ENDBRANCH   3  14
BRANCH   2  24
ATOM     24  N   UNL     1       4.819   7.621  17.179  0.00  0.00    +0.000 N 
ATOM     25  H   UNL     1       3.796   7.557  17.251  0.00  0.00    +0.000 HD
ATOM     26  H   UNL     1       5.043   8.511  17.654  0.00  0.00    +0.000 HD
ENDBRANCH   2  24
BRANCH   1  27
ATOM     27  C   UNL     1       7.884   7.114  18.111  0.00  0.00    +0.000 C 
BRANCH  27  28
ATOM     28  C   UNL     1       8.142   8.609  17.906  0.00  0.00    +0.000 C 
BRANCH  28  30
ATOM     29  C   UNL     1       9.234  10.497  18.844  0.00  0.00    +0.000 C 
ATOM     30  O   UNL     1       8.959   9.106  18.975  0.00  0.00    +0.000 OA
ENDBRANCH  28  30
ENDBRANCH  27  28
ENDBRANCH   1  27
TORSDOF 7
ENDMDL
MODEL 5
REMARK VINA RESULT:      -7.5      3.806      6.099
REMARK  Name = 
REMARK  8 active torsions:
REMARK  status: ('A' for Active; 'I' for Inactive)
REMARK    1  A    between atoms: C_1  and  O_2
REMARK    2  A    between atoms: O_2  and  C_3
REMARK    3  A    between atoms: C_3  and  C_4
REMARK    4  A    between atoms: C_4  and  N_5
REMARK    5  A    between atoms: C_6  and  N_7
REMARK    6  A    between atoms: C_8  and  C_9
REMARK    7  A    between atoms: N_11  and  C_12
REMARK    8  A    between atoms: C_12  and  C_13
REMARK                            x       y       z     vdW  Elec       q    Type
REMARK                         _______ _______ _______ _____ _____    ______ ____
ROOT
ATOM      1  N   UNL     1       3.582   3.790  19.641  0.00  0.00    +0.000 N 
ATOM      2  C   UNL     1       3.964   3.348  18.373  0.00  0.00    +0.000 A 
ATOM      3  C   UNL     1       4.811   4.383  18.009  0.00  0.00    +0.000 A 
ATOM      4  C   UNL     1       4.061   5.504  18.376  0.00  0.00    +0.000 A 
ATOM      5  N   UNL     1       4.079   6.734  17.843  0.00  0.00    +0.000 NA
ATOM      6  C   UNL     1       3.131   7.530  18.300  0.00  0.00    +0.000 A 
ATOM      7  C   UNL     1       2.939   8.666  17.529  0.00  0.00    +0.000 A 
ATOM      8  C   UNL     1       1.965   9.582  17.867  0.00  0.00    +0.000 A 
ATOM      9  C   UNL     1       1.203   9.354  19.002  0.00  0.00    +0.000 A 
ATOM     10  C   UNL     1       1.394   8.188  19.769  0.00  0.00    +0.000 A 
ATOM     11  C   UNL     1       2.334   7.201  19.431  0.00  0.00    +0.000 A 
ATOM     12  N   UNL     1       2.440   6.001  20.110  0.00  0.00    +0.000 NA
ATOM     13  C   UNL     1       3.282   5.140  19.475  0.00  0.00    +0.000 A 
ENDROOT
BRANCH   3  14
ATOM     14  C   UNL     1       6.236   4.393  17.729  0.00  0.00    +0.000 C 
ATOM     15  O   UNL     1       7.041   4.756  18.575  0.00  0.00    +0.000 OA
ATOM     16  N   UNL     1       6.648   4.104  16.457  0.00  0.00    +0.000 N 
ATOM     17  H   UNL     1       7.594   4.399  16.264  0.00  0.00    +0.000 HD
BRANCH  16  18
ATOM     18  C   UNL     1       5.818   3.701  15.344  0.00  0.00    +0.000 C 
BRANCH  18  19
ATOM     19  C   UNL     1       6.461   4.147  14.093  0.00  0.00    +0.000 A 
ATOM     20  C   UNL     1       7.406   5.132  13.935  0.00  0.00    +0.000 A 
ATOM     21  C   UNL     1       7.823   5.270  12.581  0.00  0.00    +0.000 A 
ATOM     22  C   UNL     1       7.186   4.371  11.753  0.00  0.00    +0.000 A 
ATOM     23  S   UNL     1       6.083   3.383  12.601  0.00  0.00    +0.000 S 
ENDBRANCH  18  19
ENDBRANCH  16  18
ENDBRANCH   3  14
BRANCH   2  24
ATOM     24  N   UNL     1       2.954   2.791  17.636  0.00  0.00    +0.000 N 
ATOM     25  H   UNL     1       3.137   1.868  17.224  0.00  0.00    +0.000 HD
ATOM     26  H   UNL     1       2.085   2.652  18.177  0.00  0.00    +0.000 HD
ENDBRANCH   2  24
BRANCH   1  27
ATOM     27  C   UNL     1       3.761   2.900  20.775  0.00  0.00    +0.000 C 
BRANCH  27  28
ATOM     28  C   UNL     1       2.473   2.473  21.486  0.00  0.00    +0.000 C 
BRANCH  28  30
ATOM     29  C   UNL     1       0.498   3.062  20.307  0.00  0.00    +0.000 C 
ATOM     30  O   UNL     1       1.499   2.070  20.513  0.00  0.00    +0.000 OA
ENDBRANCH  28  30
ENDBRANCH  27  28
ENDBRANCH   1  27
TORSDOF 7
ENDMDL
MODEL 6
REMARK VINA RESULT:      -7.2      2.901      4.841
REMARK  Name = 
REMARK  8 active torsions:
REMARK  status: ('A' for Active; 'I' for Inactive)
REMARK    1  A    between atoms: C_1  and  O_2
REMARK    2  A    between atoms: O_2  and  C_3
REMARK    3  A    between atoms: C_3  and  C_4
REMARK    4  A    between atoms: C_4  and  N_5
REMARK    5  A    between atoms: C_6  and  N_7
REMARK    6  A    between atoms: C_8  and  C_9
REMARK    7  A    between atoms: N_11  and  C_12
REMARK    8  A    between atoms: C_12  and  C_13
REMARK                            x       y       z     vdW  Elec       q    Type
REMARK                         _______ _______ _______ _____ _____    ______ ____
ROOT
ATOM      1  N   UNL     1       6.375   4.492  17.854  0.00  0.00    +0.000 N 
ATOM      2  C   UNL     1       5.999   4.568  16.512  0.00  0.00    +0.000 A 
ATOM      3  C   UNL     1       4.873   5.367  16.628  0.00  0.00    +0.000 A 
ATOM      4  C   UNL     1       4.214   4.773  17.709  0.00  0.00    +0.000 A 
ATOM      5  N   UNL     1       2.900   4.738  17.971  0.00  0.00    +0.000 NA
ATOM      6  C   UNL     1       2.577   3.952  18.981  0.00  0.00    +0.000 A 
ATOM      7  C   UNL     1       1.224   3.656  19.044  0.00  0.00    +0.000 A 
ATOM      8  C   UNL     1       0.736   2.826  20.031  0.00  0.00    +0.000 A 
ATOM      9  C   UNL     1       1.621   2.316  20.968  0.00  0.00    +0.000 A 
ATOM     10  C   UNL     1       2.997   2.609  20.885  0.00  0.00    +0.000 A 
ATOM     11  C   UNL     1       3.545   3.403  19.865  0.00  0.00    +0.000 A 
ATOM     12  N   UNL     1       4.907   3.592  19.710  0.00  0.00    +0.000 NA
ATOM     13  C   UNL     1       5.193   4.232  18.543  0.00  0.00    +0.000 A 
ENDROOT
BRANCH   3  14
ATOM     14  C   UNL     1       4.592   6.697  16.115  0.00  0.00    +0.000 C 
ATOM     15  O   UNL     1       5.011   7.052  15.022  0.00  0.00    +0.000 OA
ATOM     16  N   UNL     1       3.952   7.585  16.935  0.00  0.00    +0.000 N 
ATOM     17  H   UNL     1       4.040   8.545  16.636  0.00  0.00    +0.000 HD
BRANCH  16  18
ATOM     18  C   UNL     1       3.436   7.329  18.262  0.00  0.00    +0.000 C 
BRANCH  18  19
ATOM     19  C   UNL     1       2.379   8.317  18.553  0.00  0.00    +0.000 A 
ATOM     20  C   UNL     1       1.838   9.249  17.702  0.00  0.00    +0.000 A 
ATOM     21  C   UNL     1       0.812  10.018  18.322  0.00  0.00    +0.000 A 
ATOM     22  C   UNL     1       0.601   9.632  19.628  0.00  0.00    +0.000 A 
ATOM     23  S   UNL     1       1.642   8.368  20.104  0.00  0.00    +0.000 S 
ENDBRANCH  18  19
ENDBRANCH  16  18
ENDBRANCH   3  14
BRANCH   2  24
ATOM     24  N   UNL     1       6.127   3.395  15.817  0.00  0.00    +0.000 N 
ATOM     25  H   UNL     1       6.023   3.449  14.796  0.00  0.00    +0.000 HD
ATOM     26  H   UNL     1       7.048   2.945  15.947  0.00  0.00    +0.000 HD
ENDBRANCH   2  24
BRANCH   1  27
ATOM     27  C   UNL     1       7.730   4.866  18.223  0.00  0.00    +0.000 C 
BRANCH  27  28
ATOM     28  C   UNL     1       7.843   5.965  19.284  0.00  0.00    +0.000 C 
BRANCH  28  30
ATOM     29  C   UNL     1       7.667   7.719  17.693  0.00  0.00    +0.000 C 
ATOM     30  O   UNL     1       8.467   7.123  18.710  0.00  0.00    +0.000 OA
ENDBRANCH  28  30
ENDBRANCH  27  28
ENDBRANCH   1  27
TORSDOF 7
ENDMDL
MODEL 7
REMARK VINA RESULT:      -7.2      3.602      6.254
REMARK  Name = 
REMARK  8 active torsions:
REMARK  status: ('A' for Active; 'I' for Inactive)
REMARK    1  A    between atoms: C_1  and  O_2
REMARK    2  A    between atoms: O_2  and  C_3
REMARK    3  A    between atoms: C_3  and  C_4
REMARK    4  A    between atoms: C_4  and  N_5
REMARK    5  A    between atoms: C_6  and  N_7
REMARK    6  A    between atoms: C_8  and  C_9
REMARK    7  A    between atoms: N_11  and  C_12
REMARK    8  A    between atoms: C_12  and  C_13
REMARK                            x       y       z     vdW  Elec       q    Type
REMARK                         _______ _______ _______ _____ _____    ______ ____
ROOT
ATOM      1  N   UNL     1       3.445   3.851  19.311  0.00  0.00    +0.000 N 
ATOM      2  C   UNL     1       3.808   3.509  18.007  0.00  0.00    +0.000 A 
ATOM      3  C   UNL     1       4.661   4.562  17.717  0.00  0.00    +0.000 A 
ATOM      4  C   UNL     1       3.927   5.657  18.183  0.00  0.00    +0.000 A 
ATOM      5  N   UNL     1       3.951   6.926  17.750  0.00  0.00    +0.000 NA
ATOM      6  C   UNL     1       3.016   7.691  18.281  0.00  0.00    +0.000 A 
ATOM      7  C   UNL     1       2.827   8.887  17.607  0.00  0.00    +0.000 A 
ATOM      8  C   UNL     1       1.866   9.781  18.028  0.00  0.00    +0.000 A 
ATOM      9  C   UNL     1       1.114   9.470  19.150  0.00  0.00    +0.000 A 
ATOM     10  C   UNL     1       1.302   8.244  19.819  0.00  0.00    +0.000 A 
ATOM     11  C   UNL     1       2.228   7.279  19.391  0.00  0.00    +0.000 A 
ATOM     12  N   UNL     1       2.330   6.027  19.970  0.00  0.00    +0.000 NA
ATOM     13  C   UNL     1       3.157   5.213  19.258  0.00  0.00    +0.000 A 
ENDROOT
BRANCH   3  14
ATOM     14  C   UNL     1       6.083   4.582  17.423  0.00  0.00    +0.000 C 
ATOM     15  O   UNL     1       6.908   4.301  18.281  0.00  0.00    +0.000 OA
ATOM     16  N   UNL     1       6.483   5.042  16.198  0.00  0.00    +0.000 N 
ATOM     17  H   UNL     1       7.461   5.292  16.163  0.00  0.00    +0.000 HD
BRANCH  16  18
ATOM     18  C   UNL     1       5.635   5.448  15.100  0.00  0.00    +0.000 C 
BRANCH  18  19
ATOM     19  C   UNL     1       5.983   4.643  13.914  0.00  0.00    +0.000 A 
ATOM     20  C   UNL     1       5.222   3.682  13.294  0.00  0.00    +0.000 A 
ATOM     21  C   UNL     1       5.871   3.131  12.153  0.00  0.00    +0.000 A 
ATOM     22  C   UNL     1       7.105   3.704  11.937  0.00  0.00    +0.000 A 
ATOM     23  S   UNL     1       7.483   4.883  13.112  0.00  0.00    +0.000 S 
ENDBRANCH  18  19
ENDBRANCH  16  18
ENDBRANCH   3  14
BRANCH   2  24
ATOM     24  N   UNL     1       2.785   3.022  17.240  0.00  0.00    +0.000 N 
ATOM     25  H   UNL     1       2.887   2.063  16.887  0.00  0.00    +0.000 HD
ATOM     26  H   UNL     1       1.878   3.008  17.734  0.00  0.00    +0.000 HD
ENDBRANCH   2  24
BRANCH   1  27
ATOM     27  C   UNL     1       3.627   2.870  20.368  0.00  0.00    +0.000 C 
BRANCH  27  28
ATOM     28  C   UNL     1       2.656   2.985  21.547  0.00  0.00    +0.000 C 
BRANCH  28  30
ATOM     29  C   UNL     1       0.668   2.831  20.257  0.00  0.00    +0.000 C 
ATOM     30  O   UNL     1       1.471   2.227  21.266  0.00  0.00    +0.000 OA
ENDBRANCH  28  30
ENDBRANCH  27  28
ENDBRANCH   1  27
TORSDOF 7
ENDMDL
MODEL 8
REMARK VINA RESULT:      -7.0      3.958      6.901
REMARK  Name = 
REMARK  8 active torsions:
REMARK  status: ('A' for Active; 'I' for Inactive)
REMARK    1  A    between atoms: C_1  and  O_2
REMARK    2  A    between atoms: O_2  and  C_3
REMARK    3  A    between atoms: C_3  and  C_4
REMARK    4  A    between atoms: C_4  and  N_5
REMARK    5  A    between atoms: C_6  and  N_7
REMARK    6  A    between atoms: C_8  and  C_9
REMARK    7  A    between atoms: N_11  and  C_12
REMARK    8  A    between atoms: C_12  and  C_13
REMARK                            x       y       z     vdW  Elec       q    Type
REMARK                         _______ _______ _______ _____ _____    ______ ____
ROOT
ATOM      1  N   UNL     1       2.121   4.768  18.691  0.00  0.00    +0.000 N 
ATOM      2  C   UNL     1       2.418   5.811  19.570  0.00  0.00    +0.000 A 
ATOM      3  C   UNL     1       2.703   6.814  18.656  0.00  0.00    +0.000 A 
ATOM      4  C   UNL     1       3.532   6.144  17.751  0.00  0.00    +0.000 A 
ATOM      5  N   UNL     1       4.510   6.645  16.984  0.00  0.00    +0.000 NA
ATOM      6  C   UNL     1       5.225   5.728  16.360  0.00  0.00    +0.000 A 
ATOM      7  C   UNL     1       6.418   6.209  15.844  0.00  0.00    +0.000 A 
ATOM      8  C   UNL     1       7.284   5.362  15.185  0.00  0.00    +0.000 A 
ATOM      9  C   UNL     1       6.926   4.032  15.031  0.00  0.00    +0.000 A 
ATOM     10  C   UNL     1       5.719   3.549  15.575  0.00  0.00    +0.000 A 
ATOM     11  C   UNL     1       4.834   4.362  16.301  0.00  0.00    +0.000 A 
ATOM     12  N   UNL     1       3.712   3.866  16.940  0.00  0.00    +0.000 NA
ATOM     13  C   UNL     1       3.131   4.808  17.732  0.00  0.00    +0.000 A 
ENDROOT
BRANCH   3  14
ATOM     14  C   UNL     1       2.041   8.080  18.394  0.00  0.00    +0.000 C 
ATOM     15  O   UNL     1       2.073   8.589  17.282  0.00  0.00    +0.000 OA
ATOM     16  N   UNL     1       1.484   8.749  19.448  0.00  0.00    +0.000 N 
ATOM     17  H   UNL     1       1.299   9.722  19.255  0.00  0.00    +0.000 HD
BRANCH  16  18
ATOM     18  C   UNL     1       1.403   8.300  20.821  0.00  0.00    +0.000 C 
BRANCH  18  19
ATOM     19  C   UNL     1       0.566   9.250  21.578  0.00  0.00    +0.000 A 
ATOM     20  C   UNL     1      -0.215   8.994  22.679  0.00  0.00    +0.000 A 
ATOM     21  C   UNL     1      -0.863  10.165  23.166  0.00  0.00    +0.000 A 
ATOM     22  C   UNL     1      -0.541  11.278  22.420  0.00  0.00    +0.000 A 
ATOM     23  S   UNL     1       0.519  10.909  21.135  0.00  0.00    +0.000 S 
ENDBRANCH  18  19
ENDBRANCH  16  18
ENDBRANCH   3  14
BRANCH   2  24
ATOM     24  N   UNL     1       3.149   5.442  20.666  0.00  0.00    +0.000 N 
ATOM     25  H   UNL     1       3.541   4.493  20.663  0.00  0.00    +0.000 HD
ATOM     26  H   UNL     1       3.971   6.047  20.828  0.00  0.00    +0.000 HD
ENDBRANCH   2  24
BRANCH   1  27
ATOM     27  C   UNL     1       0.851   4.076  18.831  0.00  0.00    +0.000 C 
BRANCH  27  28
ATOM     28  C   UNL     1       0.947   2.583  19.160  0.00  0.00    +0.000 C 
BRANCH  28  30
ATOM     29  C   UNL     1       1.334   2.642  21.502  0.00  0.00    +0.000 C 
ATOM     30  O   UNL     1       1.896   2.386  20.218  0.00  0.00    +0.000 OA
ENDBRANCH  28  30
ENDBRANCH  27  28
ENDBRANCH   1  27
TORSDOF 7
ENDMDL
MODEL 9
REMARK VINA RESULT:      -7.0      3.339      5.760
REMARK  Name = 
REMARK  8 active torsions:
REMARK  status: ('A' for Active; 'I' for Inactive)
REMARK    1  A    between atoms: C_1  and  O_2
REMARK    2  A    between atoms: O_2  and  C_3
REMARK    3  A    between atoms: C_3  and  C_4
REMARK    4  A    between atoms: C_4  and  N_5
REMARK    5  A    between atoms: C_6  and  N_7
REMARK    6  A    between atoms: C_8  and  C_9
REMARK    7  A    between atoms: N_11  and  C_12
REMARK    8  A    between atoms: C_12  and  C_13
REMARK                            x       y       z     vdW  Elec       q    Type
REMARK                         _______ _______ _______ _____ _____    ______ ____
ROOT
ATOM      1  N   UNL     1       1.943   4.097  20.614  0.00  0.00    +0.000 N 
ATOM      2  C   UNL     1       1.615   3.392  19.455  0.00  0.00    +0.000 A 
ATOM      3  C   UNL     1       2.484   3.995  18.559  0.00  0.00    +0.000 A 
ATOM      4  C   UNL     1       2.308   5.349  18.863  0.00  0.00    +0.000 A 
ATOM      5  N   UNL     1       2.446   6.411  18.057  0.00  0.00    +0.000 NA
ATOM      6  C   UNL     1       2.044   7.547  18.595  0.00  0.00    +0.000 A 
ATOM      7  C   UNL     1       1.875   8.569  17.674  0.00  0.00    +0.000 A 
ATOM      8  C   UNL     1       1.435   9.811  18.083  0.00  0.00    +0.000 A 
ATOM      9  C   UNL     1       1.189  10.018  19.431  0.00  0.00    +0.000 A 
ATOM     10  C   UNL     1       1.348   8.968  20.357  0.00  0.00    +0.000 A 
ATOM     11  C   UNL     1       1.739   7.674  19.978  0.00  0.00    +0.000 A 
ATOM     12  N   UNL     1       1.778   6.611  20.863  0.00  0.00    +0.000 NA
ATOM     13  C   UNL     1       1.995   5.432  20.219  0.00  0.00    +0.000 A 
ENDROOT
BRANCH   3  14
ATOM     14  C   UNL     1       3.599   3.453  17.802  0.00  0.00    +0.000 C 
ATOM     15  O   UNL     1       3.414   2.668  16.883  0.00  0.00    +0.000 OA
ATOM     16  N   UNL     1       4.868   3.745  18.220  0.00  0.00    +0.000 N 
ATOM     17  H   UNL     1       5.570   3.128  17.840  0.00  0.00    +0.000 HD
BRANCH  16  18
ATOM     18  C   UNL     1       5.247   4.618  19.309  0.00  0.00    +0.000 C 
BRANCH  18  19
ATOM     19  C   UNL     1       6.239   5.589  18.810  0.00  0.00    +0.000 A 
ATOM     20  C   UNL     1       7.482   5.866  19.326  0.00  0.00    +0.000 A 
ATOM     21  C   UNL     1       8.179   6.845  18.562  0.00  0.00    +0.000 A 
ATOM     22  C   UNL     1       7.442   7.272  17.479  0.00  0.00    +0.000 A 
ATOM     23  S   UNL     1       5.917   6.510  17.396  0.00  0.00    +0.000 S 
ENDBRANCH  18  19
ENDBRANCH  16  18
ENDBRANCH   3  14
BRANCH   2  24
ATOM     24  N   UNL     1       0.278   3.151  19.293  0.00  0.00    +0.000 N 
ATOM     25  H   UNL     1      -0.365   3.697  19.880  0.00  0.00    +0.000 HD
ATOM     26  H   UNL     1      -0.054   3.331  18.332  0.00  0.00    +0.000 HD
ENDBRANCH   2  24
BRANCH   1  27
ATOM     27  C   UNL     1       2.323   3.352  21.802  0.00  0.00    +0.000 C 
BRANCH  27  28
ATOM     28  C   UNL     1       3.024   2.015  21.545  0.00  0.00    +0.000 C 
BRANCH  28  30
ATOM     29  C   UNL     1       5.181   1.097  21.164  0.00  0.00    +0.000 C 
ATOM     30  O   UNL     1       4.358   2.256  21.074  0.00  0.00    +0.000 OA
ENDBRANCH  28  30
ENDBRANCH  27  28
ENDBRANCH   1  27
TORSDOF 7
ENDMDL
