MODEL 1
REMARK VINA RESULT:      -8.8      0.000      0.000
REMARK  Name = 
REMARK  7 active torsions:
REMARK  status: ('A' for Active; 'I' for Inactive)
REMARK    1  A    between atoms: C_2  and  C_13
REMARK    2  A    between atoms: N_3  and  C_4
REMARK    3  A    between atoms: C_7  and  C_8
REMARK    4  A    between atoms: C_8  and  O_10
REMARK    5  A    between atoms: C_13  and  N_22
REMARK    6  A    between atoms: C_14  and  C_15
REMARK    7  A    between atoms: C_23  and  C_25
REMARK                            x       y       z     vdW  Elec       q    Type
REMARK                         _______ _______ _______ _____ _____    ______ ____
ROOT
ATOM      1  C   UNL     1       3.287   7.330  18.334  0.00  0.00    +0.000 C 
ATOM      2  C   UNL     1       4.262   7.413  17.411  0.00  0.00    +0.000 C 
ENDROOT
BRANCH   2   3
ATOM      3  C   UNL     1       5.246   6.381  17.097  0.00  0.00    +0.000 A 
ATOM      4  C   UNL     1       6.226   6.020  18.023  0.00  0.00    +0.000 A 
ATOM      5  C   UNL     1       7.155   5.027  17.703  0.00  0.00    +0.000 A 
ATOM      6  C   UNL     1       7.101   4.394  16.460  0.00  0.00    +0.000 A 
ATOM      7  C   UNL     1       6.134   4.772  15.531  0.00  0.00    +0.000 A 
ATOM      8 BR   UNL     1       6.058   3.916  13.848  0.00  0.00    +0.000 Br
ATOM      9  C   UNL     1       5.213   5.771  15.837  0.00  0.00    +0.000 A 
ENDBRANCH   2   3
BRANCH   1  11
ATOM     10  O   UNL     1       2.088   9.019  17.194  0.00  0.00    +0.000 OA
ATOM     11  C   UNL     1       2.247   8.420  18.254  0.00  0.00    +0.000 C 
ATOM     12  N   UNL     1       1.561   8.667  19.430  0.00  0.00    +0.000 N 
ATOM     13  H   UNL     1       1.920   8.230  20.271  0.00  0.00    +0.000 HD
BRANCH  12  14
ATOM     14  C   UNL     1       0.532   9.630  19.570  0.00  0.00    +0.000 A 
ATOM     15  C   UNL     1      -0.276  10.029  18.500  0.00  0.00    +0.000 A 
ATOM     16  C   UNL     1      -1.250  11.016  18.655  0.00  0.00    +0.000 A 
ATOM     17  C   UNL     1      -1.446  11.623  19.894  0.00  0.00    +0.000 A 
ATOM     18  C   UNL     1      -0.678  11.203  20.990  0.00  0.00    +0.000 A 
ATOM     19  C   UNL     1       0.305  10.208  20.826  0.00  0.00    +0.000 A 
BRANCH  17  20
ATOM     20  C   UNL     1      -2.516  12.652  19.984  0.00  0.00    +0.000 C 
ATOM     21  O   UNL     1      -2.553  13.486  20.872  0.00  0.00    +0.000 OA
BRANCH  20  22
ATOM     22  O   UNL     1      -3.459  12.560  19.025  0.00  0.00    +0.000 OA
ATOM     23  H   UNL     1      -3.850  11.676  18.913  0.00  0.00    +0.000 HD
ENDBRANCH  20  22
ENDBRANCH  17  20
ENDBRANCH  12  14
ENDBRANCH   1  11
BRANCH   1  24
ATOM     24  N   UNL     1       3.073   6.237  19.142  0.00  0.00    +0.000 N 
ATOM     25  C   UNL     1       2.287   5.157  18.787  0.00  0.00    +0.000 C 
ATOM     26  O   UNL     1       1.806   5.028  17.663  0.00  0.00    +0.000 OA
ATOM     27  H   UNL     1       3.463   6.249  20.079  0.00  0.00    +0.000 HD
BRANCH  25  28
ATOM     28  C   UNL     1       2.149   4.159  19.832  0.00  0.00    +0.000 A 
ATOM     29  C   UNL     1       1.032   3.694  20.505  0.00  0.00    +0.000 A 
ATOM     30  C   UNL     1       1.478   2.699  21.408  0.00  0.00    +0.000 A 
ATOM     31  C   UNL     1       2.843   2.616  21.235  0.00  0.00    +0.000 A 
ATOM     32  O   UNL     1       3.258   3.490  20.284  0.00  0.00    +0.000 OA
ENDBRANCH  25  28
ENDBRANCH   1  24
TORSDOF 7
ENDMDL
MODEL 2
REMARK VINA RESULT:      -8.5      5.576      8.248
REMARK  Name = 
REMARK  7 active torsions:
REMARK  status: ('A' for Active; 'I' for Inactive)
REMARK    1  A    between atoms: C_2  and  C_13
REMARK    2  A    between atoms: N_3  and  C_4
REMARK    3  A    between atoms: C_7  and  C_8
REMARK    4  A    between atoms: C_8  and  O_10
REMARK    5  A    between atoms: C_13  and  N_22
REMARK    6  A    between atoms: C_14  and  C_15
REMARK    7  A    between atoms: C_23  and  C_25
REMARK                            x       y       z     vdW  Elec       q    Type
REMARK                         _______ _______ _______ _____ _____    ______ ____
ROOT
ATOM      1  C   UNL     1       6.235   6.811  17.441  0.00  0.00    +0.000 C 
ATOM      2  C   UNL     1       5.299   6.507  18.359  0.00  0.00    +0.000 C 
ENDROOT
BRANCH   2   3
ATOM      3  C   UNL     1       4.208   5.550  18.198  0.00  0.00    +0.000 A 
ATOM      4  C   UNL     1       2.916   5.982  17.898  0.00  0.00    +0.000 A 
ATOM      5  C   UNL     1       1.888   5.048  17.746  0.00  0.00    +0.000 A 
ATOM      6  C   UNL     1       2.154   3.685  17.890  0.00  0.00    +0.000 A 
ATOM      7  C   UNL     1       3.442   3.261  18.211  0.00  0.00    +0.000 A 
ATOM      8 BR   UNL     1       3.805   1.417  18.405  0.00  0.00    +0.000 Br
ATOM      9  C   UNL     1       4.469   4.186  18.378  0.00  0.00    +0.000 A 
ENDBRANCH   2   3
BRANCH   1  11
ATOM     10  O   UNL     1       8.309   7.037  18.553  0.00  0.00    +0.000 OA
ATOM     11  C   UNL     1       7.398   7.614  17.966  0.00  0.00    +0.000 C 
ATOM     12  N   UNL     1       7.316   8.979  17.751  0.00  0.00    +0.000 N 
ATOM     13  H   UNL     1       6.428   9.339  17.421  0.00  0.00    +0.000 HD
BRANCH  12  14
ATOM     14  C   UNL     1       8.306   9.913  18.142  0.00  0.00    +0.000 A 
ATOM     15  C   UNL     1       9.185   9.677  19.205  0.00  0.00    +0.000 A 
ATOM     16  C   UNL     1      10.119  10.635  19.601  0.00  0.00    +0.000 A 
ATOM     17  C   UNL     1      10.202  11.855  18.932  0.00  0.00    +0.000 A 
ATOM     18  C   UNL     1       9.362  12.091  17.835  0.00  0.00    +0.000 A 
ATOM     19  C   UNL     1       8.421  11.120  17.442  0.00  0.00    +0.000 A 
BRANCH  17  20
ATOM     20  C   UNL     1      11.235  12.817  19.401  0.00  0.00    +0.000 C 
ATOM     21  O   UNL     1      12.313  12.461  19.845  0.00  0.00    +0.000 OA
BRANCH  20  22
ATOM     22  O   UNL     1      10.863  14.111  19.329  0.00  0.00    +0.000 OA
ATOM     23  H   UNL     1      11.035  14.637  20.130  0.00  0.00    +0.000 HD
ENDBRANCH  20  22
ENDBRANCH  17  20
ENDBRANCH  12  14
ENDBRANCH   1  11
BRANCH   1  24
ATOM     24  N   UNL     1       6.298   6.256  16.183  0.00  0.00    +0.000 N 
ATOM     25  C   UNL     1       7.040   5.132  15.872  0.00  0.00    +0.000 C 
ATOM     26  O   UNL     1       7.616   4.461  16.725  0.00  0.00    +0.000 OA
ATOM     27  H   UNL     1       5.822   6.733  15.424  0.00  0.00    +0.000 HD
BRANCH  25  28
ATOM     28  C   UNL     1       7.012   4.778  14.465  0.00  0.00    +0.000 A 
ATOM     29  C   UNL     1       6.243   3.859  13.772  0.00  0.00    +0.000 A 
ATOM     30  C   UNL     1       6.616   3.949  12.410  0.00  0.00    +0.000 A 
ATOM     31  C   UNL     1       7.595   4.918  12.350  0.00  0.00    +0.000 A 
ATOM     32  O   UNL     1       7.840   5.427  13.584  0.00  0.00    +0.000 OA
ENDBRANCH  25  28
ENDBRANCH   1  24
TORSDOF 7
ENDMDL
MODEL 3
REMARK VINA RESULT:      -8.4      5.601      8.257
REMARK  Name = 
REMARK  7 active torsions:
REMARK  status: ('A' for Active; 'I' for Inactive)
REMARK    1  A    between atoms: C_2  and  C_13
REMARK    2  A    between atoms: N_3  and  C_4
REMARK    3  A    between atoms: C_7  and  C_8
REMARK    4  A    between atoms: C_8  and  O_10
REMARK    5  A    between atoms: C_13  and  N_22
REMARK    6  A    between atoms: C_14  and  C_15
REMARK    7  A    between atoms: C_23  and  C_25
REMARK                            x       y       z     vdW  Elec       q    Type
REMARK                         _______ _______ _______ _____ _____    ______ ____
ROOT
ATOM      1  C   UNL     1       6.231   6.777  17.433  0.00  0.00    +0.000 C 
ATOM      2  C   UNL     1       5.305   6.454  18.355  0.00  0.00    +0.000 C 
ENDROOT
BRANCH   2   3
ATOM      3  C   UNL     1       4.230   5.479  18.198  0.00  0.00    +0.000 A 
ATOM      4  C   UNL     1       2.934   5.888  17.880  0.00  0.00    +0.000 A 
ATOM      5  C   UNL     1       1.921   4.937  17.731  0.00  0.00    +0.000 A 
ATOM      6  C   UNL     1       2.205   3.581  17.895  0.00  0.00    +0.000 A 
ATOM      7  C   UNL     1       3.496   3.180  18.233  0.00  0.00    +0.000 A 
ATOM      8 BR   UNL     1       3.884   1.343  18.454  0.00  0.00    +0.000 Br
ATOM      9  C   UNL     1       4.509   4.122  18.397  0.00  0.00    +0.000 A 
ENDBRANCH   2   3
BRANCH   1  11
ATOM     10  O   UNL     1       8.297   7.037  18.551  0.00  0.00    +0.000 OA
ATOM     11  C   UNL     1       7.383   7.598  17.954  0.00  0.00    +0.000 C 
ATOM     12  N   UNL     1       7.287   8.959  17.724  0.00  0.00    +0.000 N 
ATOM     13  H   UNL     1       6.397   9.306  17.387  0.00  0.00    +0.000 HD
BRANCH  12  14
ATOM     14  C   UNL     1       8.266   9.908  18.109  0.00  0.00    +0.000 A 
ATOM     15  C   UNL     1       8.454  11.115  17.428  0.00  0.00    +0.000 A 
ATOM     16  C   UNL     1       9.459  12.010  17.800  0.00  0.00    +0.000 A 
ATOM     17  C   UNL     1      10.297  11.718  18.874  0.00  0.00    +0.000 A 
ATOM     18  C   UNL     1      10.095  10.535  19.598  0.00  0.00    +0.000 A 
ATOM     19  C   UNL     1       9.080   9.636  19.216  0.00  0.00    +0.000 A 
BRANCH  17  20
ATOM     20  C   UNL     1      11.332  12.729  19.220  0.00  0.00    +0.000 C 
ATOM     21  O   UNL     1      11.295  13.877  18.811  0.00  0.00    +0.000 OA
BRANCH  20  22
ATOM     22  O   UNL     1      12.333  12.259  19.992  0.00  0.00    +0.000 OA
ATOM     23  H   UNL     1      13.218  12.600  19.776  0.00  0.00    +0.000 HD
ENDBRANCH  20  22
ENDBRANCH  17  20
ENDBRANCH  12  14
ENDBRANCH   1  11
BRANCH   1  24
ATOM     24  N   UNL     1       6.295   6.228  16.173  0.00  0.00    +0.000 N 
ATOM     25  C   UNL     1       7.036   5.103  15.859  0.00  0.00    +0.000 C 
ATOM     26  O   UNL     1       7.607   4.427  16.710  0.00  0.00    +0.000 OA
ATOM     27  H   UNL     1       5.823   6.709  15.415  0.00  0.00    +0.000 HD
BRANCH  25  28
ATOM     28  C   UNL     1       7.010   4.756  14.450  0.00  0.00    +0.000 A 
ATOM     29  C   UNL     1       6.235   3.847  13.750  0.00  0.00    +0.000 A 
ATOM     30  C   UNL     1       6.616   3.940  12.389  0.00  0.00    +0.000 A 
ATOM     31  C   UNL     1       7.605   4.898  12.338  0.00  0.00    +0.000 A 
ATOM     32  O   UNL     1       7.849   5.400  13.575  0.00  0.00    +0.000 OA
ENDBRANCH  25  28
ENDBRANCH   1  24
TORSDOF 7
ENDMDL
MODEL 4
REMARK VINA RESULT:      -8.4      0.956      1.389
REMARK  Name = 
REMARK  7 active torsions:
REMARK  status: ('A' for Active; 'I' for Inactive)
REMARK    1  A    between atoms: C_2  and  C_13
REMARK    2  A    between atoms: N_3  and  C_4
REMARK    3  A    between atoms: C_7  and  C_8
REMARK    4  A    between atoms: C_8  and  O_10
REMARK    5  A    between atoms: C_13  and  N_22
REMARK    6  A    between atoms: C_14  and  C_15
REMARK    7  A    between atoms: C_23  and  C_25
REMARK                            x       y       z     vdW  Elec       q    Type
REMARK                         _______ _______ _______ _____ _____    ______ ____
ROOT
ATOM      1  C   UNL     1       3.195   7.261  17.969  0.00  0.00    +0.000 C 
ATOM      2  C   UNL     1       4.454   7.473  17.543  0.00  0.00    +0.000 C 
ENDROOT
BRANCH   2   3
ATOM      3  C   UNL     1       5.418   6.450  17.150  0.00  0.00    +0.000 A 
ATOM      4  C   UNL     1       6.451   6.071  18.009  0.00  0.00    +0.000 A 
ATOM      5  C   UNL     1       7.360   5.088  17.613  0.00  0.00    +0.000 A 
ATOM      6  C   UNL     1       7.235   4.481  16.362  0.00  0.00    +0.000 A 
ATOM      7  C   UNL     1       6.215   4.878  15.500  0.00  0.00    +0.000 A 
ATOM      8 BR   UNL     1       6.042   4.058  13.806  0.00  0.00    +0.000 Br
ATOM      9  C   UNL     1       5.312   5.868  15.881  0.00  0.00    +0.000 A 
ENDBRANCH   2   3
BRANCH   1  11
ATOM     10  O   UNL     1       2.357   9.295  17.104  0.00  0.00    +0.000 OA
ATOM     11  C   UNL     1       2.334   8.497  18.037  0.00  0.00    +0.000 C 
ATOM     12  N   UNL     1       1.589   8.633  19.195  0.00  0.00    +0.000 N 
ATOM     13  H   UNL     1       1.805   8.000  19.957  0.00  0.00    +0.000 HD
BRANCH  12  14
ATOM     14  C   UNL     1       0.700   9.705  19.455  0.00  0.00    +0.000 A 
ATOM     15  C   UNL     1       0.787  10.492  20.608  0.00  0.00    +0.000 A 
ATOM     16  C   UNL     1      -0.132  11.511  20.863  0.00  0.00    +0.000 A 
ATOM     17  C   UNL     1      -1.160  11.772  19.959  0.00  0.00    +0.000 A 
ATOM     18  C   UNL     1      -1.235  11.025  18.775  0.00  0.00    +0.000 A 
ATOM     19  C   UNL     1      -0.305   9.998  18.525  0.00  0.00    +0.000 A 
BRANCH  17  20
ATOM     20  C   UNL     1      -2.089  12.886  20.290  0.00  0.00    +0.000 C 
ATOM     21  O   UNL     1      -1.866  13.684  21.184  0.00  0.00    +0.000 OA
BRANCH  20  22
ATOM     22  O   UNL     1      -3.213  12.912  19.546  0.00  0.00    +0.000 OA
ATOM     23  H   UNL     1      -3.161  12.437  18.699  0.00  0.00    +0.000 HD
ENDBRANCH  20  22
ENDBRANCH  17  20
ENDBRANCH  12  14
ENDBRANCH   1  11
BRANCH   1  24
ATOM     24  N   UNL     1       2.622   6.018  18.109  0.00  0.00    +0.000 N 
ATOM     25  C   UNL     1       2.557   5.327  19.305  0.00  0.00    +0.000 C 
ATOM     26  O   UNL     1       2.904   5.821  20.375  0.00  0.00    +0.000 OA
ATOM     27  H   UNL     1       2.280   5.551  17.275  0.00  0.00    +0.000 HD
BRANCH  25  28
ATOM     28  C   UNL     1       1.974   4.003  19.190  0.00  0.00    +0.000 A 
ATOM     29  C   UNL     1       0.801   3.477  19.703  0.00  0.00    +0.000 A 
ATOM     30  C   UNL     1       0.717   2.137  19.255  0.00  0.00    +0.000 A 
ATOM     31  C   UNL     1       1.847   1.921  18.495  0.00  0.00    +0.000 A 
ATOM     32  O   UNL     1       2.611   3.042  18.447  0.00  0.00    +0.000 OA
ENDBRANCH  25  28
ENDBRANCH   1  24
TORSDOF 7
ENDMDL
MODEL 5
REMARK VINA RESULT:      -8.3      1.018      1.221
REMARK  Name = 
REMARK  7 active torsions:
REMARK  status: ('A' for Active; 'I' for Inactive)
REMARK    1  A    between atoms: C_2  and  C_13
REMARK    2  A    between atoms: N_3  and  C_4
REMARK    3  A    between atoms: C_7  and  C_8
REMARK    4  A    between atoms: C_8  and  O_10
REMARK    5  A    between atoms: C_13  and  N_22
REMARK    6  A    between atoms: C_14  and  C_15
REMARK    7  A    between atoms: C_23  and  C_25
REMARK                            x       y       z     vdW  Elec       q    Type
REMARK                         _______ _______ _______ _____ _____    ______ ____
ROOT
ATOM      1  C   UNL     1       3.112   7.373  18.006  0.00  0.00    +0.000 C 
ATOM      2  C   UNL     1       4.366   7.561  17.557  0.00  0.00    +0.000 C 
ENDROOT
BRANCH   2   3
ATOM      3  C   UNL     1       5.314   6.517  17.178  0.00  0.00    +0.000 A 
ATOM      4  C   UNL     1       6.331   6.122  18.049  0.00  0.00    +0.000 A 
ATOM      5  C   UNL     1       7.225   5.119  17.667  0.00  0.00    +0.000 A 
ATOM      6  C   UNL     1       7.100   4.509  16.418  0.00  0.00    +0.000 A 
ATOM      7  C   UNL     1       6.096   4.922  15.543  0.00  0.00    +0.000 A 
ATOM      8 BR   UNL     1       5.924   4.097  13.852  0.00  0.00    +0.000 Br
ATOM      9  C   UNL     1       5.210   5.931  15.911  0.00  0.00    +0.000 A 
ENDBRANCH   2   3
BRANCH   1  11
ATOM     10  O   UNL     1       2.322   9.419  17.121  0.00  0.00    +0.000 OA
ATOM     11  C   UNL     1       2.265   8.620  18.052  0.00  0.00    +0.000 C 
ATOM     12  N   UNL     1       1.491   8.765  19.191  0.00  0.00    +0.000 N 
ATOM     13  H   UNL     1       1.679   8.129  19.957  0.00  0.00    +0.000 HD
BRANCH  12  14
ATOM     14  C   UNL     1       0.610   9.847  19.428  0.00  0.00    +0.000 A 
ATOM     15  C   UNL     1      -0.495  10.111  18.612  0.00  0.00    +0.000 A 
ATOM     16  C   UNL     1      -1.320  11.214  18.840  0.00  0.00    +0.000 A 
ATOM     17  C   UNL     1      -1.061  12.077  19.902  0.00  0.00    +0.000 A 
ATOM     18  C   UNL     1       0.014  11.803  20.759  0.00  0.00    +0.000 A 
ATOM     19  C   UNL     1       0.843  10.690  20.522  0.00  0.00    +0.000 A 
BRANCH  17  20
ATOM     20  C   UNL     1      -1.995  13.219  20.092  0.00  0.00    +0.000 C 
ATOM     21  O   UNL     1      -3.111  13.085  20.563  0.00  0.00    +0.000 OA
BRANCH  20  22
ATOM     22  O   UNL     1      -1.517  14.406  19.664  0.00  0.00    +0.000 OA
ATOM     23  H   UNL     1      -0.598  14.599  19.920  0.00  0.00    +0.000 HD
ENDBRANCH  20  22
ENDBRANCH  17  20
ENDBRANCH  12  14
ENDBRANCH   1  11
BRANCH   1  24
ATOM     24  N   UNL     1       2.527   6.141  18.186  0.00  0.00    +0.000 N 
ATOM     25  C   UNL     1       2.379   5.529  19.417  0.00  0.00    +0.000 C 
ATOM     26  O   UNL     1       2.653   6.093  20.474  0.00  0.00    +0.000 OA
ATOM     27  H   UNL     1       2.242   5.620  17.363  0.00  0.00    +0.000 HD
BRANCH  25  28
ATOM     28  C   UNL     1       1.802   4.199  19.349  0.00  0.00    +0.000 A 
ATOM     29  C   UNL     1       1.388   3.441  18.268  0.00  0.00    +0.000 A 
ATOM     30  C   UNL     1       0.927   2.205  18.782  0.00  0.00    +0.000 A 
ATOM     31  C   UNL     1       1.084   2.282  20.149  0.00  0.00    +0.000 A 
ATOM     32  O   UNL     1       1.614   3.480  20.503  0.00  0.00    +0.000 OA
ENDBRANCH  25  28
ENDBRANCH   1  24
TORSDOF 7
ENDMDL
MODEL 6
REMARK VINA RESULT:      -8.0      5.896      8.349
REMARK  Name = 
REMARK  7 active torsions:
REMARK  status: ('A' for Active; 'I' for Inactive)
REMARK    1  A    between atoms: C_2  and  C_13
REMARK    2  A    between atoms: N_3  and  C_4
REMARK    3  A    between atoms: C_7  and  C_8
REMARK    4  A    between atoms: C_8  and  O_10
REMARK    5  A    between atoms: C_13  and  N_22
REMARK    6  A    between atoms: C_14  and  C_15
REMARK    7  A    between atoms: C_23  and  C_25
REMARK                            x       y       z     vdW  Elec       q    Type
REMARK                         _______ _______ _______ _____ _____    ______ ____
ROOT
ATOM      1  C   UNL     1       6.294   6.679  17.448  0.00  0.00    +0.000 C 
ATOM      2  C   UNL     1       5.397   6.298  18.376  0.00  0.00    +0.000 C 
ENDROOT
BRANCH   2   3
ATOM      3  C   UNL     1       4.353   5.291  18.208  0.00  0.00    +0.000 A 
ATOM      4  C   UNL     1       4.294   4.506  17.056  0.00  0.00    +0.000 A 
ATOM      5  C   UNL     1       3.288   3.546  16.918  0.00  0.00    +0.000 A 
ATOM      6  C   UNL     1       2.346   3.370  17.932  0.00  0.00    +0.000 A 
ATOM      7  C   UNL     1       2.396   4.171  19.071  0.00  0.00    +0.000 A 
ATOM      8 BR   UNL     1       1.122   3.934  20.447  0.00  0.00    +0.000 Br
ATOM      9  C   UNL     1       3.387   5.140  19.210  0.00  0.00    +0.000 A 
ENDBRANCH   2   3
BRANCH   1  11
ATOM     10  O   UNL     1       8.348   6.983  18.578  0.00  0.00    +0.000 OA
ATOM     11  C   UNL     1       7.426   7.525  17.973  0.00  0.00    +0.000 C 
ATOM     12  N   UNL     1       7.305   8.883  17.738  0.00  0.00    +0.000 N 
ATOM     13  H   UNL     1       6.410   9.211  17.395  0.00  0.00    +0.000 HD
BRANCH  12  14
ATOM     14  C   UNL     1       8.262   9.852  18.127  0.00  0.00    +0.000 A 
ATOM     15  C   UNL     1       8.439  11.055  17.435  0.00  0.00    +0.000 A 
ATOM     16  C   UNL     1       9.424  11.970  17.810  0.00  0.00    +0.000 A 
ATOM     17  C   UNL     1      10.252  11.705  18.898  0.00  0.00    +0.000 A 
ATOM     18  C   UNL     1      10.059  10.526  19.633  0.00  0.00    +0.000 A 
ATOM     19  C   UNL     1       9.065   9.607  19.248  0.00  0.00    +0.000 A 
BRANCH  17  20
ATOM     20  C   UNL     1      11.265  12.737  19.248  0.00  0.00    +0.000 C 
ATOM     21  O   UNL     1      11.164  13.901  18.902  0.00  0.00    +0.000 OA
BRANCH  20  22
ATOM     22  O   UNL     1      12.320  12.267  19.945  0.00  0.00    +0.000 OA
ATOM     23  H   UNL     1      12.849  11.590  19.489  0.00  0.00    +0.000 HD
ENDBRANCH  20  22
ENDBRANCH  17  20
ENDBRANCH  12  14
ENDBRANCH   1  11
BRANCH   1  24
ATOM     24  N   UNL     1       6.355   6.169  16.171  0.00  0.00    +0.000 N 
ATOM     25  C   UNL     1       7.166   5.111  15.801  0.00  0.00    +0.000 C 
ATOM     26  O   UNL     1       7.816   4.458  16.614  0.00  0.00    +0.000 OA
ATOM     27  H   UNL     1       5.821   6.632  15.443  0.00  0.00    +0.000 HD
BRANCH  25  28
ATOM     28  C   UNL     1       7.116   4.799  14.385  0.00  0.00    +0.000 A 
ATOM     29  C   UNL     1       6.335   3.903  13.676  0.00  0.00    +0.000 A 
ATOM     30  C   UNL     1       6.689   4.032  12.312  0.00  0.00    +0.000 A 
ATOM     31  C   UNL     1       7.671   4.999  12.267  0.00  0.00    +0.000 A 
ATOM     32  O   UNL     1       7.935   5.471  13.512  0.00  0.00    +0.000 OA
ENDBRANCH  25  28
ENDBRANCH   1  24
TORSDOF 7
ENDMDL
MODEL 7
REMARK VINA RESULT:      -7.9      3.669      8.801
REMARK  Name = 
REMARK  7 active torsions:
REMARK  status: ('A' for Active; 'I' for Inactive)
REMARK    1  A    between atoms: C_2  and  C_13
REMARK    2  A    between atoms: N_3  and  C_4
REMARK    3  A    between atoms: C_7  and  C_8
REMARK    4  A    between atoms: C_8  and  O_10
REMARK    5  A    between atoms: C_13  and  N_22
REMARK    6  A    between atoms: C_14  and  C_15
REMARK    7  A    between atoms: C_23  and  C_25
REMARK                            x       y       z     vdW  Elec       q    Type
REMARK                         _______ _______ _______ _____ _____    ______ ____
ROOT
ATOM      1  C   UNL     1       1.298  10.178  18.440  0.00  0.00    +0.000 C 
ATOM      2  C   UNL     1       2.022  11.168  18.994  0.00  0.00    +0.000 C 
ENDROOT
BRANCH   2   3
ATOM      3  C   UNL     1       1.711  12.594  18.954  0.00  0.00    +0.000 A 
ATOM      4  C   UNL     1       0.546  13.090  19.540  0.00  0.00    +0.000 A 
ATOM      5  C   UNL     1       0.270  14.458  19.492  0.00  0.00    +0.000 A 
ATOM      6  C   UNL     1       1.161  15.330  18.862  0.00  0.00    +0.000 A 
ATOM      7  C   UNL     1       2.312  14.827  18.260  0.00  0.00    +0.000 A 
ATOM      8 BR   UNL     1       3.521  16.005  17.409  0.00  0.00    +0.000 Br
ATOM      9  C   UNL     1       2.588  13.462  18.292  0.00  0.00    +0.000 A 
ENDBRANCH   2   3
BRANCH   1  11
ATOM     10  O   UNL     1       1.494   8.442  20.033  0.00  0.00    +0.000 OA
ATOM     11  C   UNL     1       1.693   8.788  18.872  0.00  0.00    +0.000 C 
ATOM     12  N   UNL     1       2.287   8.013  17.892  0.00  0.00    +0.000 N 
ATOM     13  H   UNL     1       2.558   8.484  17.036  0.00  0.00    +0.000 HD
BRANCH  12  14
ATOM     14  C   UNL     1       2.714   6.676  18.077  0.00  0.00    +0.000 A 
ATOM     15  C   UNL     1       4.061   6.331  18.235  0.00  0.00    +0.000 A 
ATOM     16  C   UNL     1       4.459   4.999  18.366  0.00  0.00    +0.000 A 
ATOM     17  C   UNL     1       3.511   3.978  18.352  0.00  0.00    +0.000 A 
ATOM     18  C   UNL     1       2.153   4.307  18.242  0.00  0.00    +0.000 A 
ATOM     19  C   UNL     1       1.759   5.653  18.108  0.00  0.00    +0.000 A 
BRANCH  17  20
ATOM     20  C   UNL     1       4.011   2.587  18.517  0.00  0.00    +0.000 C 
ATOM     21  O   UNL     1       3.517   1.637  17.933  0.00  0.00    +0.000 OA
BRANCH  20  22
ATOM     22  O   UNL     1       5.028   2.461  19.393  0.00  0.00    +0.000 OA
ATOM     23  H   UNL     1       5.890   2.242  18.999  0.00  0.00    +0.000 HD
ENDBRANCH  20  22
ENDBRANCH  17  20
ENDBRANCH  12  14
ENDBRANCH   1  11
BRANCH   1  24
ATOM     24  N   UNL     1       0.135  10.370  17.731  0.00  0.00    +0.000 N 
ATOM     25  C   UNL     1      -1.129  10.292  18.286  0.00  0.00    +0.000 C 
ATOM     26  O   UNL     1      -1.316  10.160  19.493  0.00  0.00    +0.000 OA
ATOM     27  H   UNL     1       0.202  10.517  16.729  0.00  0.00    +0.000 HD
BRANCH  25  28
ATOM     28  C   UNL     1      -2.205  10.457  17.326  0.00  0.00    +0.000 A 
ATOM     29  C   UNL     1      -3.403  11.146  17.410  0.00  0.00    +0.000 A 
ATOM     30  C   UNL     1      -4.059  10.989  16.166  0.00  0.00    +0.000 A 
ATOM     31  C   UNL     1      -3.224  10.209  15.394  0.00  0.00    +0.000 A 
ATOM     32  O   UNL     1      -2.101   9.885  16.083  0.00  0.00    +0.000 OA
ENDBRANCH  25  28
ENDBRANCH   1  24
TORSDOF 7
ENDMDL
MODEL 8
REMARK VINA RESULT:      -7.8      3.848      8.902
REMARK  Name = 
REMARK  7 active torsions:
REMARK  status: ('A' for Active; 'I' for Inactive)
REMARK    1  A    between atoms: C_2  and  C_13
REMARK    2  A    between atoms: N_3  and  C_4
REMARK    3  A    between atoms: C_7  and  C_8
REMARK    4  A    between atoms: C_8  and  O_10
REMARK    5  A    between atoms: C_13  and  N_22
REMARK    6  A    between atoms: C_14  and  C_15
REMARK    7  A    between atoms: C_23  and  C_25
REMARK                            x       y       z     vdW  Elec       q    Type
REMARK                         _______ _______ _______ _____ _____    ______ ____
ROOT
ATOM      1  C   UNL     1       1.314  10.088  18.457  0.00  0.00    +0.000 C 
ATOM      2  C   UNL     1       2.053  11.064  19.017  0.00  0.00    +0.000 C 
ENDROOT
BRANCH   2   3
ATOM      3  C   UNL     1       1.784  12.497  18.953  0.00  0.00    +0.000 A 
ATOM      4  C   UNL     1       2.563  13.338  18.157  0.00  0.00    +0.000 A 
ATOM      5  C   UNL     1       2.286  14.706  18.109  0.00  0.00    +0.000 A 
ATOM      6  C   UNL     1       1.228  15.232  18.852  0.00  0.00    +0.000 A 
ATOM      7  C   UNL     1       0.466  14.392  19.662  0.00  0.00    +0.000 A 
ATOM      8 BR   UNL     1      -0.967  15.101  20.669  0.00  0.00    +0.000 Br
ATOM      9  C   UNL     1       0.745  13.029  19.727  0.00  0.00    +0.000 A 
ENDBRANCH   2   3
BRANCH   1  11
ATOM     10  O   UNL     1       1.385   8.353  20.061  0.00  0.00    +0.000 OA
ATOM     11  C   UNL     1       1.660   8.693  18.914  0.00  0.00    +0.000 C 
ATOM     12  N   UNL     1       2.299   7.906  17.971  0.00  0.00    +0.000 N 
ATOM     13  H   UNL     1       2.628   8.371  17.133  0.00  0.00    +0.000 HD
BRANCH  12  14
ATOM     14  C   UNL     1       2.691   6.562  18.184  0.00  0.00    +0.000 A 
ATOM     15  C   UNL     1       1.840   5.481  17.934  0.00  0.00    +0.000 A 
ATOM     16  C   UNL     1       2.236   4.169  18.198  0.00  0.00    +0.000 A 
ATOM     17  C   UNL     1       3.504   3.907  18.713  0.00  0.00    +0.000 A 
ATOM     18  C   UNL     1       4.388   4.974  18.926  0.00  0.00    +0.000 A 
ATOM     19  C   UNL     1       3.982   6.296  18.659  0.00  0.00    +0.000 A 
BRANCH  17  20
ATOM     20  C   UNL     1       3.859   2.483  18.951  0.00  0.00    +0.000 C 
ATOM     21  O   UNL     1       3.145   1.559  18.603  0.00  0.00    +0.000 OA
BRANCH  20  22
ATOM     22  O   UNL     1       5.018   2.302  19.618  0.00  0.00    +0.000 OA
ATOM     23  H   UNL     1       4.982   1.654  20.342  0.00  0.00    +0.000 HD
ENDBRANCH  20  22
ENDBRANCH  17  20
ENDBRANCH  12  14
ENDBRANCH   1  11
BRANCH   1  24
ATOM     24  N   UNL     1       0.174  10.305  17.718  0.00  0.00    +0.000 N 
ATOM     25  C   UNL     1      -1.102  10.303  18.250  0.00  0.00    +0.000 C 
ATOM     26  O   UNL     1      -1.317  10.224  19.457  0.00  0.00    +0.000 OA
ATOM     27  H   UNL     1       0.266  10.411  16.713  0.00  0.00    +0.000 HD
BRANCH  25  28
ATOM     28  C   UNL     1      -2.152  10.479  17.264  0.00  0.00    +0.000 A 
ATOM     29  C   UNL     1      -2.336   9.906  16.017  0.00  0.00    +0.000 A 
ATOM     30  C   UNL     1      -3.547  10.423  15.499  0.00  0.00    +0.000 A 
ATOM     31  C   UNL     1      -4.033  11.285  16.459  0.00  0.00    +0.000 A 
ATOM     32  O   UNL     1      -3.200  11.324  17.530  0.00  0.00    +0.000 OA
ENDBRANCH  25  28
ENDBRANCH   1  24
TORSDOF 7
ENDMDL
MODEL 9
REMARK VINA RESULT:      -7.8      3.607      8.688
REMARK  Name = 
REMARK  7 active torsions:
REMARK  status: ('A' for Active; 'I' for Inactive)
REMARK    1  A    between atoms: C_2  and  C_13
REMARK    2  A    between atoms: N_3  and  C_4
REMARK    3  A    between atoms: C_7  and  C_8
REMARK    4  A    between atoms: C_8  and  O_10
REMARK    5  A    between atoms: C_13  and  N_22
REMARK    6  A    between atoms: C_14  and  C_15
REMARK    7  A    between atoms: C_23  and  C_25
REMARK                            x       y       z     vdW  Elec       q    Type
REMARK                         _______ _______ _______ _____ _____    ______ ____
ROOT
ATOM      1  C   UNL     1       1.314  10.011  18.520  0.00  0.00    +0.000 C 
ATOM      2  C   UNL     1       2.015  11.003  19.101  0.00  0.00    +0.000 C 
ENDROOT
BRANCH   2   3
ATOM      3  C   UNL     1       1.728  12.431  19.014  0.00  0.00    +0.000 A 
ATOM      4  C   UNL     1       0.571  12.965  19.583  0.00  0.00    +0.000 A 
ATOM      5  C   UNL     1       0.317  14.336  19.490  0.00  0.00    +0.000 A 
ATOM      6  C   UNL     1       1.222  15.171  18.832  0.00  0.00    +0.000 A 
ATOM      7  C   UNL     1       2.365  14.630  18.247  0.00  0.00    +0.000 A 
ATOM      8 BR   UNL     1       3.592  15.759  17.357  0.00  0.00    +0.000 Br
ATOM      9  C   UNL     1       2.618  13.263  18.323  0.00  0.00    +0.000 A 
ENDBRANCH   2   3
BRANCH   1  11
ATOM     10  O   UNL     1       1.420   8.318  20.167  0.00  0.00    +0.000 OA
ATOM     11  C   UNL     1       1.661   8.626  19.003  0.00  0.00    +0.000 C 
ATOM     12  N   UNL     1       2.263   7.808  18.062  0.00  0.00    +0.000 N 
ATOM     13  H   UNL     1       2.570   8.247  17.202  0.00  0.00    +0.000 HD
BRANCH  12  14
ATOM     14  C   UNL     1       2.650   6.466  18.298  0.00  0.00    +0.000 A 
ATOM     15  C   UNL     1       1.871   5.376  17.895  0.00  0.00    +0.000 A 
ATOM     16  C   UNL     1       2.253   4.065  18.183  0.00  0.00    +0.000 A 
ATOM     17  C   UNL     1       3.435   3.813  18.877  0.00  0.00    +0.000 A 
ATOM     18  C   UNL     1       4.252   4.891  19.249  0.00  0.00    +0.000 A 
ATOM     19  C   UNL     1       3.860   6.211  18.956  0.00  0.00    +0.000 A 
BRANCH  17  20
ATOM     20  C   UNL     1       3.783   2.390  19.131  0.00  0.00    +0.000 C 
ATOM     21  O   UNL     1       4.713   2.057  19.845  0.00  0.00    +0.000 OA
BRANCH  20  22
ATOM     22  O   UNL     1       3.009   1.502  18.473  0.00  0.00    +0.000 OA
ATOM     23  H   UNL     1       2.052   1.599  18.620  0.00  0.00    +0.000 HD
ENDBRANCH  20  22
ENDBRANCH  17  20
ENDBRANCH  12  14
ENDBRANCH   1  11
BRANCH   1  24
ATOM     24  N   UNL     1       0.202  10.204  17.734  0.00  0.00    +0.000 N 
ATOM     25  C   UNL     1      -1.095  10.193  18.215  0.00  0.00    +0.000 C 
ATOM     26  O   UNL     1      -1.356  10.126  19.413  0.00  0.00    +0.000 OA
ATOM     27  H   UNL     1       0.333  10.300  16.732  0.00  0.00    +0.000 HD
BRANCH  25  28
ATOM     28  C   UNL     1      -2.106  10.344  17.185  0.00  0.00    +0.000 A 
ATOM     29  C   UNL     1      -3.256  11.113  17.144  0.00  0.00    +0.000 A 
ATOM     30  C   UNL     1      -3.857  10.892  15.882  0.00  0.00    +0.000 A 
ATOM     31  C   UNL     1      -3.040   9.997  15.225  0.00  0.00    +0.000 A 
ATOM     32  O   UNL     1      -1.978   9.662  16.001  0.00  0.00    +0.000 OA
ENDBRANCH  25  28
ENDBRANCH   1  24
TORSDOF 7
ENDMDL
