MODEL 1
REMARK VINA RESULT:      -8.4      0.000      0.000
REMARK  Name = 
REMARK  6 active torsions:
REMARK  status: ('A' for Active; 'I' for Inactive)
REMARK    1  A    between atoms: C_1  and  C_2
REMARK    2  A    between atoms: N_6  and  C_7
REMARK    3  A    between atoms: C_7  and  C_8
REMARK    4  A    between atoms: C_8  and  C_9
REMARK    5  A    between atoms: C_14  and  C_15
REMARK    6  A    between atoms: C_18  and  C_19
REMARK                            x       y       z     vdW  Elec       q    Type
REMARK                         _______ _______ _______ _____ _____    ______ ____
ROOT
ATOM      1  C   UNL     1       2.090   7.955  19.024  0.00  0.00    +0.000 A 
ATOM      2  C   UNL     1       1.669   9.040  18.247  0.00  0.00    +0.000 A 
ATOM      3  C   UNL     1       0.912  10.063  18.817  0.00  0.00    +0.000 A 
ATOM      4  C   UNL     1       0.557  10.016  20.173  0.00  0.00    +0.000 A 
ATOM      5  C   UNL     1      -0.188  11.043  20.773  0.00  0.00    +0.000 A 
ATOM      6  C   UNL     1      -0.559  11.000  22.131  0.00  0.00    +0.000 A 
ATOM      7  C   UNL     1      -0.157   9.881  22.877  0.00  0.00    +0.000 A 
ATOM      8  C   UNL     1       0.602   8.859  22.304  0.00  0.00    +0.000 A 
ATOM      9  C   UNL     1       0.964   8.918  20.956  0.00  0.00    +0.000 A 
ATOM     10  C   UNL     1       1.733   7.903  20.376  0.00  0.00    +0.000 A 
ENDROOT
BRANCH   6  11
ATOM     11  C   UNL     1      -1.322  12.105  22.751  0.00  0.00    +0.000 A 
ATOM     12  C   UNL     1      -2.609  11.902  23.280  0.00  0.00    +0.000 A 
ATOM     13  C   UNL     1      -3.353  12.958  23.814  0.00  0.00    +0.000 A 
ATOM     14  C   UNL     1      -2.816  14.244  23.846  0.00  0.00    +0.000 A 
ATOM     15  C   UNL     1      -1.530  14.468  23.353  0.00  0.00    +0.000 A 
ATOM     16  C   UNL     1      -0.799  13.410  22.808  0.00  0.00    +0.000 A 
BRANCH  14  17
ATOM     17  C   UNL     1      -3.582  15.331  24.373  0.00  0.00    +0.000 C 
ATOM     18  N   UNL     1      -4.206  16.213  24.800  0.00  0.00    +0.000 NA
ENDBRANCH  14  17
ENDBRANCH   6  11
BRANCH   1  19
ATOM     19  C   UNL     1       2.941   6.863  18.427  0.00  0.00    +0.000 C 
BRANCH  19  20
ATOM     20  C   UNL     1       2.118   5.629  18.007  0.00  0.00    +0.000 C 
BRANCH  20  26
ATOM     21  C   UNL     1       2.642   2.110  17.810  0.00  0.00    +0.000 C 
ATOM     22  C   UNL     1       1.736   3.225  18.323  0.00  0.00    +0.000 C 
ATOM     23  C   UNL     1       0.963   2.824  19.578  0.00  0.00    +0.000 C 
ATOM     24  C   UNL     1       1.201   3.953  20.561  0.00  0.00    +0.000 C 
ATOM     25  C   UNL     1       2.539   4.518  20.133  0.00  0.00    +0.000 C 
ATOM     26  N   UNL     1       2.571   4.393  18.668  0.00  0.00    +0.000 NA
ENDBRANCH  20  26
ENDBRANCH  19  20
ENDBRANCH   1  19
TORSDOF 5
ENDMDL
MODEL 2
REMARK VINA RESULT:      -8.3      2.588      4.469
REMARK  Name = 
REMARK  6 active torsions:
REMARK  status: ('A' for Active; 'I' for Inactive)
REMARK    1  A    between atoms: C_1  and  C_2
REMARK    2  A    between atoms: N_6  and  C_7
REMARK    3  A    between atoms: C_7  and  C_8
REMARK    4  A    between atoms: C_8  and  C_9
REMARK    5  A    between atoms: C_14  and  C_15
REMARK    6  A    between atoms: C_18  and  C_19
REMARK                            x       y       z     vdW  Elec       q    Type
REMARK                         _______ _______ _______ _____ _____    ______ ____
ROOT
ATOM      1  C   UNL     1       3.249   4.443  18.838  0.00  0.00    +0.000 A 
ATOM      2  C   UNL     1       2.724   4.172  20.106  0.00  0.00    +0.000 A 
ATOM      3  C   UNL     1       2.051   5.167  20.817  0.00  0.00    +0.000 A 
ATOM      4  C   UNL     1       1.899   6.451  20.275  0.00  0.00    +0.000 A 
ATOM      5  C   UNL     1       1.210   7.462  20.963  0.00  0.00    +0.000 A 
ATOM      6  C   UNL     1       1.061   8.758  20.433  0.00  0.00    +0.000 A 
ATOM      7  C   UNL     1       1.632   9.012  19.176  0.00  0.00    +0.000 A 
ATOM      8  C   UNL     1       2.303   8.015  18.466  0.00  0.00    +0.000 A 
ATOM      9  C   UNL     1       2.440   6.734  19.005  0.00  0.00    +0.000 A 
ATOM     10  C   UNL     1       3.102   5.725  18.297  0.00  0.00    +0.000 A 
ENDROOT
BRANCH   6  11
ATOM     11  C   UNL     1       0.310   9.801  21.163  0.00  0.00    +0.000 A 
ATOM     12  C   UNL     1      -0.197   9.572  22.455  0.00  0.00    +0.000 A 
ATOM     13  C   UNL     1      -0.956  10.538  23.122  0.00  0.00    +0.000 A 
ATOM     14  C   UNL     1      -1.210  11.768  22.516  0.00  0.00    +0.000 A 
ATOM     15  C   UNL     1      -0.695  12.031  21.246  0.00  0.00    +0.000 A 
ATOM     16  C   UNL     1       0.050  11.055  20.580  0.00  0.00    +0.000 A 
BRANCH  14  17
ATOM     17  C   UNL     1      -2.003  12.751  23.187  0.00  0.00    +0.000 C 
ATOM     18  N   UNL     1      -2.649  13.547  23.733  0.00  0.00    +0.000 NA
ENDBRANCH  14  17
ENDBRANCH   6  11
BRANCH   1  19
ATOM     19  C   UNL     1       3.943   3.365  18.044  0.00  0.00    +0.000 C 
BRANCH  19  20
ATOM     20  C   UNL     1       4.332   3.827  16.626  0.00  0.00    +0.000 C 
BRANCH  20  26
ATOM     21  C   UNL     1       7.589   4.616  17.836  0.00  0.00    +0.000 C 
ATOM     22  C   UNL     1       6.454   5.028  16.903  0.00  0.00    +0.000 C 
ATOM     23  C   UNL     1       6.947   5.815  15.689  0.00  0.00    +0.000 C 
ATOM     24  C   UNL     1       6.317   5.127  14.495  0.00  0.00    +0.000 C 
ATOM     25  C   UNL     1       6.115   3.704  14.972  0.00  0.00    +0.000 C 
ATOM     26  N   UNL     1       5.787   3.809  16.402  0.00  0.00    +0.000 NA
ENDBRANCH  20  26
ENDBRANCH  19  20
ENDBRANCH   1  19
TORSDOF 5
ENDMDL
MODEL 3
REMARK VINA RESULT:      -8.2      1.148      1.377
REMARK  Name = 
REMARK  6 active torsions:
REMARK  status: ('A' for Active; 'I' for Inactive)
REMARK    1  A    between atoms: C_1  and  C_2
REMARK    2  A    between atoms: N_6  and  C_7
REMARK    3  A    between atoms: C_7  and  C_8
REMARK    4  A    between atoms: C_8  and  C_9
REMARK    5  A    between atoms: C_14  and  C_15
REMARK    6  A    between atoms: C_18  and  C_19
REMARK                            x       y       z     vdW  Elec       q    Type
REMARK                         _______ _______ _______ _____ _____    ______ ____
ROOT
ATOM      1  C   UNL     1       2.598   7.070  18.754  0.00  0.00    +0.000 A 
ATOM      2  C   UNL     1       2.295   8.053  17.806  0.00  0.00    +0.000 A 
ATOM      3  C   UNL     1       1.549   9.175  18.167  0.00  0.00    +0.000 A 
ATOM      4  C   UNL     1       1.086   9.330  19.481  0.00  0.00    +0.000 A 
ATOM      5  C   UNL     1       0.350  10.459  19.873  0.00  0.00    +0.000 A 
ATOM      6  C   UNL     1      -0.129  10.620  21.188  0.00  0.00    +0.000 A 
ATOM      7  C   UNL     1       0.156   9.599  22.108  0.00  0.00    +0.000 A 
ATOM      8  C   UNL     1       0.904   8.478  21.745  0.00  0.00    +0.000 A 
ATOM      9  C   UNL     1       1.374   8.336  20.437  0.00  0.00    +0.000 A 
ATOM     10  C   UNL     1       2.133   7.221  20.066  0.00  0.00    +0.000 A 
ENDROOT
BRANCH   6  11
ATOM     11  C   UNL     1      -0.881  11.829  21.585  0.00  0.00    +0.000 A 
ATOM     12  C   UNL     1      -1.241  12.062  22.925  0.00  0.00    +0.000 A 
ATOM     13  C   UNL     1      -2.002  13.176  23.292  0.00  0.00    +0.000 A 
ATOM     14  C   UNL     1      -2.404  14.096  22.325  0.00  0.00    +0.000 A 
ATOM     15  C   UNL     1      -2.035  13.903  20.993  0.00  0.00    +0.000 A 
ATOM     16  C   UNL     1      -1.289  12.780  20.631  0.00  0.00    +0.000 A 
BRANCH  14  17
ATOM     17  C   UNL     1      -3.199  15.226  22.694  0.00  0.00    +0.000 C 
ATOM     18  N   UNL     1      -3.845  16.145  22.991  0.00  0.00    +0.000 NA
ENDBRANCH  14  17
ENDBRANCH   6  11
BRANCH   1  19
ATOM     19  C   UNL     1       3.436   5.874  18.385  0.00  0.00    +0.000 C 
BRANCH  19  20
ATOM     20  C   UNL     1       3.895   5.065  19.614  0.00  0.00    +0.000 C 
BRANCH  20  26
ATOM     21  C   UNL     1       2.855   2.177  17.806  0.00  0.00    +0.000 C 
ATOM     22  C   UNL     1       2.408   3.450  18.517  0.00  0.00    +0.000 C 
ATOM     23  C   UNL     1       0.995   3.339  19.088  0.00  0.00    +0.000 C 
ATOM     24  C   UNL     1       1.118   3.791  20.529  0.00  0.00    +0.000 C 
ATOM     25  C   UNL     1       2.557   3.471  20.878  0.00  0.00    +0.000 C 
ATOM     26  N   UNL     1       3.325   3.708  19.646  0.00  0.00    +0.000 NA
ENDBRANCH  20  26
ENDBRANCH  19  20
ENDBRANCH   1  19
TORSDOF 5
ENDMDL
MODEL 4
REMARK VINA RESULT:      -8.2      6.696      8.957
REMARK  Name = 
REMARK  6 active torsions:
REMARK  status: ('A' for Active; 'I' for Inactive)
REMARK    1  A    between atoms: C_1  and  C_2
REMARK    2  A    between atoms: N_6  and  C_7
REMARK    3  A    between atoms: C_7  and  C_8
REMARK    4  A    between atoms: C_8  and  C_9
REMARK    5  A    between atoms: C_14  and  C_15
REMARK    6  A    between atoms: C_18  and  C_19
REMARK                            x       y       z     vdW  Elec       q    Type
REMARK                         _______ _______ _______ _____ _____    ______ ____
ROOT
ATOM      1  C   UNL     1       5.152   4.637  17.040  0.00  0.00    +0.000 A 
ATOM      2  C   UNL     1       4.669   5.730  16.312  0.00  0.00    +0.000 A 
ATOM      3  C   UNL     1       5.274   6.981  16.436  0.00  0.00    +0.000 A 
ATOM      4  C   UNL     1       6.367   7.163  17.296  0.00  0.00    +0.000 A 
ATOM      5  C   UNL     1       7.003   8.407  17.423  0.00  0.00    +0.000 A 
ATOM      6  C   UNL     1       8.095   8.603  18.291  0.00  0.00    +0.000 A 
ATOM      7  C   UNL     1       8.532   7.498  19.039  0.00  0.00    +0.000 A 
ATOM      8  C   UNL     1       7.926   6.247  18.912  0.00  0.00    +0.000 A 
ATOM      9  C   UNL     1       6.846   6.069  18.044  0.00  0.00    +0.000 A 
ATOM     10  C   UNL     1       6.240   4.817  17.902  0.00  0.00    +0.000 A 
ENDROOT
BRANCH   6  11
ATOM     11  C   UNL     1       8.766   9.916  18.391  0.00  0.00    +0.000 A 
ATOM     12  C   UNL     1       9.786  10.149  19.331  0.00  0.00    +0.000 A 
ATOM     13  C   UNL     1      10.381  11.407  19.464  0.00  0.00    +0.000 A 
ATOM     14  C   UNL     1       9.981  12.460  18.642  0.00  0.00    +0.000 A 
ATOM     15  C   UNL     1       8.991  12.247  17.681  0.00  0.00    +0.000 A 
ATOM     16  C   UNL     1       8.390  10.992  17.565  0.00  0.00    +0.000 A 
BRANCH  14  17
ATOM     17  C   UNL     1      10.573  13.753  18.788  0.00  0.00    +0.000 C 
ATOM     18  N   UNL     1      11.054  14.804  18.910  0.00  0.00    +0.000 NA
ENDBRANCH  14  17
ENDBRANCH   6  11
BRANCH   1  19
ATOM     19  C   UNL     1       4.531   3.272  16.885  0.00  0.00    +0.000 C 
BRANCH  19  20
ATOM     20  C   UNL     1       3.677   2.864  18.101  0.00  0.00    +0.000 C 
BRANCH  20  26
ATOM     21  C   UNL     1       2.872   5.988  19.614  0.00  0.00    +0.000 C 
ATOM     22  C   UNL     1       2.855   4.470  19.765  0.00  0.00    +0.000 C 
ATOM     23  C   UNL     1       1.726   3.982  20.673  0.00  0.00    +0.000 C 
ATOM     24  C   UNL     1       1.031   2.894  19.881  0.00  0.00    +0.000 C 
ATOM     25  C   UNL     1       1.301   3.276  18.441  0.00  0.00    +0.000 C 
ATOM     26  N   UNL     1       2.649   3.864  18.434  0.00  0.00    +0.000 NA
ENDBRANCH  20  26
ENDBRANCH  19  20
ENDBRANCH   1  19
TORSDOF 5
ENDMDL
MODEL 5
REMARK VINA RESULT:      -8.2      2.033     10.031
REMARK  Name = 
REMARK  6 active torsions:
REMARK  status: ('A' for Active; 'I' for Inactive)
REMARK    1  A    between atoms: C_1  and  C_2
REMARK    2  A    between atoms: N_6  and  C_7
REMARK    3  A    between atoms: C_7  and  C_8
REMARK    4  A    between atoms: C_8  and  C_9
REMARK    5  A    between atoms: C_14  and  C_15
REMARK    6  A    between atoms: C_18  and  C_19
REMARK                            x       y       z     vdW  Elec       q    Type
REMARK                         _______ _______ _______ _____ _____    ______ ____
ROOT
ATOM      1  C   UNL     1      -0.630  10.742  22.210  0.00  0.00    +0.000 A 
ATOM      2  C   UNL     1      -0.090   9.656  22.907  0.00  0.00    +0.000 A 
ATOM      3  C   UNL     1       0.710   8.723  22.247  0.00  0.00    +0.000 A 
ATOM      4  C   UNL     1       0.978   8.856  20.877  0.00  0.00    +0.000 A 
ATOM      5  C   UNL     1       1.795   7.940  20.196  0.00  0.00    +0.000 A 
ATOM      6  C   UNL     1       2.061   8.058  18.818  0.00  0.00    +0.000 A 
ATOM      7  C   UNL     1       1.474   9.135  18.136  0.00  0.00    +0.000 A 
ATOM      8  C   UNL     1       0.675  10.068  18.799  0.00  0.00    +0.000 A 
ATOM      9  C   UNL     1       0.423   9.938  20.167  0.00  0.00    +0.000 A 
ATOM     10  C   UNL     1      -0.368  10.874  20.842  0.00  0.00    +0.000 A 
ENDROOT
BRANCH   6  11
ATOM     11  C   UNL     1       2.945   7.097  18.125  0.00  0.00    +0.000 A 
ATOM     12  C   UNL     1       4.056   7.528  17.377  0.00  0.00    +0.000 A 
ATOM     13  C   UNL     1       4.858   6.624  16.675  0.00  0.00    +0.000 A 
ATOM     14  C   UNL     1       4.577   5.259  16.722  0.00  0.00    +0.000 A 
ATOM     15  C   UNL     1       3.497   4.802  17.480  0.00  0.00    +0.000 A 
ATOM     16  C   UNL     1       2.692   5.713  18.166  0.00  0.00    +0.000 A 
BRANCH  14  17
ATOM     17  C   UNL     1       5.383   4.333  15.989  0.00  0.00    +0.000 C 
ATOM     18  N   UNL     1       6.037   3.581  15.391  0.00  0.00    +0.000 NA
ENDBRANCH  14  17
ENDBRANCH   6  11
BRANCH   1  19
ATOM     19  C   UNL     1      -1.464  11.777  22.921  0.00  0.00    +0.000 C 
BRANCH  19  20
ATOM     20  C   UNL     1      -2.549  12.393  22.016  0.00  0.00    +0.000 C 
BRANCH  20  26
ATOM     21  C   UNL     1      -6.079  12.574  21.572  0.00  0.00    +0.000 C 
ATOM     22  C   UNL     1      -4.823  13.316  22.018  0.00  0.00    +0.000 C 
ATOM     23  C   UNL     1      -5.114  14.389  23.066  0.00  0.00    +0.000 C 
ATOM     24  C   UNL     1      -4.124  14.124  24.182  0.00  0.00    +0.000 C 
ATOM     25  C   UNL     1      -3.844  12.641  24.063  0.00  0.00    +0.000 C 
ATOM     26  N   UNL     1      -3.889  12.344  22.623  0.00  0.00    +0.000 NA
ENDBRANCH  20  26
ENDBRANCH  19  20
ENDBRANCH   1  19
TORSDOF 5
ENDMDL
MODEL 6
REMARK VINA RESULT:      -8.1      0.944      1.523
REMARK  Name = 
REMARK  6 active torsions:
REMARK  status: ('A' for Active; 'I' for Inactive)
REMARK    1  A    between atoms: C_1  and  C_2
REMARK    2  A    between atoms: N_6  and  C_7
REMARK    3  A    between atoms: C_7  and  C_8
REMARK    4  A    between atoms: C_8  and  C_9
REMARK    5  A    between atoms: C_14  and  C_15
REMARK    6  A    between atoms: C_18  and  C_19
REMARK                            x       y       z     vdW  Elec       q    Type
REMARK                         _______ _______ _______ _____ _____    ______ ____
ROOT
ATOM      1  C   UNL     1       2.127   7.910  18.935  0.00  0.00    +0.000 A 
ATOM      2  C   UNL     1       1.698   8.979  18.141  0.00  0.00    +0.000 A 
ATOM      3  C   UNL     1       0.944  10.012  18.699  0.00  0.00    +0.000 A 
ATOM      4  C   UNL     1       0.600   9.990  20.058  0.00  0.00    +0.000 A 
ATOM      5  C   UNL     1      -0.142  11.027  20.645  0.00  0.00    +0.000 A 
ATOM      6  C   UNL     1      -0.501  11.010  22.007  0.00  0.00    +0.000 A 
ATOM      7  C   UNL     1      -0.090   9.905  22.770  0.00  0.00    +0.000 A 
ATOM      8  C   UNL     1       0.665   8.874  22.210  0.00  0.00    +0.000 A 
ATOM      9  C   UNL     1       1.016   8.908  20.858  0.00  0.00    +0.000 A 
ATOM     10  C   UNL     1       1.782   7.884  20.290  0.00  0.00    +0.000 A 
ENDROOT
BRANCH   6  11
ATOM     11  C   UNL     1      -1.261  12.124  22.611  0.00  0.00    +0.000 A 
ATOM     12  C   UNL     1      -0.736  13.428  22.662  0.00  0.00    +0.000 A 
ATOM     13  C   UNL     1      -1.430  14.470  23.284  0.00  0.00    +0.000 A 
ATOM     14  C   UNL     1      -2.679  14.233  23.856  0.00  0.00    +0.000 A 
ATOM     15  C   UNL     1      -3.235  12.954  23.794  0.00  0.00    +0.000 A 
ATOM     16  C   UNL     1      -2.529  11.915  23.184  0.00  0.00    +0.000 A 
BRANCH  14  17
ATOM     17  C   UNL     1      -3.383  15.291  24.511  0.00  0.00    +0.000 C 
ATOM     18  N   UNL     1      -3.954  16.153  25.043  0.00  0.00    +0.000 NA
ENDBRANCH  14  17
ENDBRANCH   6  11
BRANCH   1  19
ATOM     19  C   UNL     1       2.975   6.808  18.352  0.00  0.00    +0.000 C 
BRANCH  19  20
ATOM     20  C   UNL     1       3.404   5.767  19.404  0.00  0.00    +0.000 C 
BRANCH  20  26
ATOM     21  C   UNL     1       4.775   4.120  16.557  0.00  0.00    +0.000 C 
ATOM     22  C   UNL     1       3.517   4.387  17.377  0.00  0.00    +0.000 C 
ATOM     23  C   UNL     1       2.496   3.254  17.275  0.00  0.00    +0.000 C 
ATOM     24  C   UNL     1       2.132   2.926  18.708  0.00  0.00    +0.000 C 
ATOM     25  C   UNL     1       3.365   3.333  19.489  0.00  0.00    +0.000 C 
ATOM     26  N   UNL     1       3.896   4.518  18.798  0.00  0.00    +0.000 NA
ENDBRANCH  20  26
ENDBRANCH  19  20
ENDBRANCH   1  19
TORSDOF 5
ENDMDL
MODEL 7
REMARK VINA RESULT:      -8.1      1.155      1.792
REMARK  Name = 
REMARK  6 active torsions:
REMARK  status: ('A' for Active; 'I' for Inactive)
REMARK    1  A    between atoms: C_1  and  C_2
REMARK    2  A    between atoms: N_6  and  C_7
REMARK    3  A    between atoms: C_7  and  C_8
REMARK    4  A    between atoms: C_8  and  C_9
REMARK    5  A    between atoms: C_14  and  C_15
REMARK    6  A    between atoms: C_18  and  C_19
REMARK                            x       y       z     vdW  Elec       q    Type
REMARK                         _______ _______ _______ _____ _____    ______ ____
ROOT
ATOM      1  C   UNL     1       2.833   7.407  18.389  0.00  0.00    +0.000 A 
ATOM      2  C   UNL     1       2.424   8.446  17.546  0.00  0.00    +0.000 A 
ATOM      3  C   UNL     1       1.545   9.426  18.010  0.00  0.00    +0.000 A 
ATOM      4  C   UNL     1       1.054   9.379  19.322  0.00  0.00    +0.000 A 
ATOM      5  C   UNL     1       0.184  10.363  19.817  0.00  0.00    +0.000 A 
ATOM      6  C   UNL     1      -0.323  10.319  21.130  0.00  0.00    +0.000 A 
ATOM      7  C   UNL     1       0.073   9.243  21.941  0.00  0.00    +0.000 A 
ATOM      8  C   UNL     1       0.953   8.266  21.475  0.00  0.00    +0.000 A 
ATOM      9  C   UNL     1       1.450   8.325  20.170  0.00  0.00    +0.000 A 
ATOM     10  C   UNL     1       2.341   7.356  19.698  0.00  0.00    +0.000 A 
ENDROOT
BRANCH   6  11
ATOM     11  C   UNL     1      -1.218  11.380  21.639  0.00  0.00    +0.000 A 
ATOM     12  C   UNL     1      -1.598  11.433  22.993  0.00  0.00    +0.000 A 
ATOM     13  C   UNL     1      -2.489  12.401  23.462  0.00  0.00    +0.000 A 
ATOM     14  C   UNL     1      -3.009  13.355  22.588  0.00  0.00    +0.000 A 
ATOM     15  C   UNL     1      -2.626  13.342  21.246  0.00  0.00    +0.000 A 
ATOM     16  C   UNL     1      -1.747  12.361  20.781  0.00  0.00    +0.000 A 
BRANCH  14  17
ATOM     17  C   UNL     1      -3.937  14.335  23.060  0.00  0.00    +0.000 C 
ATOM     18  N   UNL     1      -4.692  15.130  23.446  0.00  0.00    +0.000 NA
ENDBRANCH  14  17
ENDBRANCH   6  11
BRANCH   1  19
ATOM     19  C   UNL     1       3.812   6.366  17.910  0.00  0.00    +0.000 C 
BRANCH  19  20
ATOM     20  C   UNL     1       3.762   5.072  18.747  0.00  0.00    +0.000 C 
BRANCH  20  26
ATOM     21  C   UNL     1       0.820   3.739  20.252  0.00  0.00    +0.000 C 
ATOM     22  C   UNL     1       2.214   3.431  19.713  0.00  0.00    +0.000 C 
ATOM     23  C   UNL     1       2.342   1.998  19.197  0.00  0.00    +0.000 C 
ATOM     24  C   UNL     1       2.947   2.133  17.815  0.00  0.00    +0.000 C 
ATOM     25  C   UNL     1       2.503   3.510  17.367  0.00  0.00    +0.000 C 
ATOM     26  N   UNL     1       2.496   4.338  18.583  0.00  0.00    +0.000 NA
ENDBRANCH  20  26
ENDBRANCH  19  20
ENDBRANCH   1  19
TORSDOF 5
ENDMDL
MODEL 8
REMARK VINA RESULT:      -8.1      2.566      4.155
REMARK  Name = 
REMARK  6 active torsions:
REMARK  status: ('A' for Active; 'I' for Inactive)
REMARK    1  A    between atoms: C_1  and  C_2
REMARK    2  A    between atoms: N_6  and  C_7
REMARK    3  A    between atoms: C_7  and  C_8
REMARK    4  A    between atoms: C_8  and  C_9
REMARK    5  A    between atoms: C_14  and  C_15
REMARK    6  A    between atoms: C_18  and  C_19
REMARK                            x       y       z     vdW  Elec       q    Type
REMARK                         _______ _______ _______ _____ _____    ______ ____
ROOT
ATOM      1  C   UNL     1       3.506   5.810  18.371  0.00  0.00    +0.000 A 
ATOM      2  C   UNL     1       3.118   5.407  19.654  0.00  0.00    +0.000 A 
ATOM      3  C   UNL     1       2.312   6.233  20.438  0.00  0.00    +0.000 A 
ATOM      4  C   UNL     1       1.886   7.479  19.955  0.00  0.00    +0.000 A 
ATOM      5  C   UNL     1       1.060   8.319  20.719  0.00  0.00    +0.000 A 
ATOM      6  C   UNL     1       0.635   9.577  20.248  0.00  0.00    +0.000 A 
ATOM      7  C   UNL     1       1.072   9.971  18.973  0.00  0.00    +0.000 A 
ATOM      8  C   UNL     1       1.877   9.142  18.190  0.00  0.00    +0.000 A 
ATOM      9  C   UNL     1       2.287   7.896  18.671  0.00  0.00    +0.000 A 
ATOM     10  C   UNL     1       3.085   7.054  17.889  0.00  0.00    +0.000 A 
ENDROOT
BRANCH   6  11
ATOM     11  C   UNL     1      -0.256  10.435  21.057  0.00  0.00    +0.000 A 
ATOM     12  C   UNL     1      -0.428  10.219  22.436  0.00  0.00    +0.000 A 
ATOM     13  C   UNL     1      -1.314  10.994  23.190  0.00  0.00    +0.000 A 
ATOM     14  C   UNL     1      -2.037  12.020  22.581  0.00  0.00    +0.000 A 
ATOM     15  C   UNL     1      -1.862  12.273  21.220  0.00  0.00    +0.000 A 
ATOM     16  C   UNL     1      -0.987  11.485  20.470  0.00  0.00    +0.000 A 
BRANCH  14  17
ATOM     17  C   UNL     1      -2.959  12.802  23.345  0.00  0.00    +0.000 C 
ATOM     18  N   UNL     1      -3.707  13.437  23.967  0.00  0.00    +0.000 NA
ENDBRANCH  14  17
ENDBRANCH   6  11
BRANCH   1  19
ATOM     19  C   UNL     1       4.344   4.908  17.500  0.00  0.00    +0.000 C 
BRANCH  19  20
ATOM     20  C   UNL     1       5.304   4.019  18.314  0.00  0.00    +0.000 C 
BRANCH  20  26
ATOM     21  C   UNL     1       8.125   5.664  19.741  0.00  0.00    +0.000 C 
ATOM     22  C   UNL     1       6.969   5.769  18.751  0.00  0.00    +0.000 C 
ATOM     23  C   UNL     1       7.273   6.716  17.591  0.00  0.00    +0.000 C 
ATOM     24  C   UNL     1       6.932   5.927  16.343  0.00  0.00    +0.000 C 
ATOM     25  C   UNL     1       7.129   4.487  16.770  0.00  0.00    +0.000 C 
ATOM     26  N   UNL     1       6.711   4.432  18.180  0.00  0.00    +0.000 NA
ENDBRANCH  20  26
ENDBRANCH  19  20
ENDBRANCH   1  19
TORSDOF 5
ENDMDL
MODEL 9
REMARK VINA RESULT:      -8.0      1.040      1.695
REMARK  Name = 
REMARK  6 active torsions:
REMARK  status: ('A' for Active; 'I' for Inactive)
REMARK    1  A    between atoms: C_1  and  C_2
REMARK    2  A    between atoms: N_6  and  C_7
REMARK    3  A    between atoms: C_7  and  C_8
REMARK    4  A    between atoms: C_8  and  C_9
REMARK    5  A    between atoms: C_14  and  C_15
REMARK    6  A    between atoms: C_18  and  C_19
REMARK                            x       y       z     vdW  Elec       q    Type
REMARK                         _______ _______ _______ _____ _____    ______ ____
ROOT
ATOM      1  C   UNL     1       2.449   7.603  18.635  0.00  0.00    +0.000 A 
ATOM      2  C   UNL     1       1.984   8.573  17.739  0.00  0.00    +0.000 A 
ATOM      3  C   UNL     1       1.125   9.581  18.176  0.00  0.00    +0.000 A 
ATOM      4  C   UNL     1       0.710   9.634  19.515  0.00  0.00    +0.000 A 
ATOM      5  C   UNL     1      -0.138  10.650  19.981  0.00  0.00    +0.000 A 
ATOM      6  C   UNL     1      -0.569  10.706  21.321  0.00  0.00    +0.000 A 
ATOM      7  C   UNL     1      -0.118   9.698  22.188  0.00  0.00    +0.000 A 
ATOM      8  C   UNL     1       0.742   8.691  21.748  0.00  0.00    +0.000 A 
ATOM      9  C   UNL     1       1.162   8.651  20.417  0.00  0.00    +0.000 A 
ATOM     10  C   UNL     1       2.033   7.651  19.970  0.00  0.00    +0.000 A 
ENDROOT
BRANCH   6  11
ATOM     11  C   UNL     1      -1.443  11.799  21.798  0.00  0.00    +0.000 A 
ATOM     12  C   UNL     1      -1.723  12.919  20.995  0.00  0.00    +0.000 A 
ATOM     13  C   UNL     1      -2.502  13.978  21.467  0.00  0.00    +0.000 A 
ATOM     14  C   UNL     1      -3.037  13.933  22.754  0.00  0.00    +0.000 A 
ATOM     15  C   UNL     1      -2.797  12.820  23.562  0.00  0.00    +0.000 A 
ATOM     16  C   UNL     1      -2.005  11.772  23.088  0.00  0.00    +0.000 A 
BRANCH  14  17
ATOM     17  C   UNL     1      -3.818  15.024  23.248  0.00  0.00    +0.000 C 
ATOM     18  N   UNL     1      -4.451  15.911  23.652  0.00  0.00    +0.000 NA
ENDBRANCH  14  17
ENDBRANCH   6  11
BRANCH   1  19
ATOM     19  C   UNL     1       3.408   6.532  18.182  0.00  0.00    +0.000 C 
BRANCH  19  20
ATOM     20  C   UNL     1       3.447   5.324  19.139  0.00  0.00    +0.000 C 
BRANCH  20  26
ATOM     21  C   UNL     1       1.120   3.200  20.803  0.00  0.00    +0.000 C 
ATOM     22  C   UNL     1       2.325   3.267  19.870  0.00  0.00    +0.000 C 
ATOM     23  C   UNL     1       2.389   2.085  18.904  0.00  0.00    +0.000 C 
ATOM     24  C   UNL     1       2.578   2.708  17.537  0.00  0.00    +0.000 C 
ATOM     25  C   UNL     1       1.948   4.077  17.680  0.00  0.00    +0.000 C 
ATOM     26  N   UNL     1       2.230   4.499  19.061  0.00  0.00    +0.000 NA
ENDBRANCH  20  26
ENDBRANCH  19  20
ENDBRANCH   1  19
TORSDOF 5
ENDMDL
