MODEL 1
REMARK VINA RESULT:      -7.2      0.000      0.000
REMARK  Name = 
REMARK  6 active torsions:
REMARK  status: ('A' for Active; 'I' for Inactive)
REMARK    1  A    between atoms: C_1  and  C_2
REMARK    2  A    between atoms: C_2  and  C_3
REMARK    3  A    between atoms: N_7  and  C_8
REMARK    4  A    between atoms: C_8  and  C_9
REMARK    5  A    between atoms: C_15  and  C_16
REMARK    6  A    between atoms: C_15  and  O_17
REMARK                            x       y       z     vdW  Elec       q    Type
REMARK                         _______ _______ _______ _____ _____    ______ ____
ROOT
ATOM      1  C   UNL     1       0.431   3.358  19.633  0.00  0.00    +0.000 C 
ATOM      2  C   UNL     1       1.875   3.860  19.801  0.00  0.00    +0.000 C 
ATOM      3  C   UNL     1       1.879   5.013  20.822  0.00  0.00    +0.000 C 
ATOM      4  C   UNL     1       2.773   2.726  20.327  0.00  0.00    +0.000 C 
ATOM      5  C   UNL     1       4.110   2.972  19.674  0.00  0.00    +0.000 C 
ATOM      6  O   UNL     1       5.133   2.368  19.958  0.00  0.00    +0.000 OA
ATOM      7  N   UNL     1       3.944   3.882  18.636  0.00  0.00    +0.000 N 
ATOM      8  C   UNL     1       2.554   4.224  18.447  0.00  0.00    +0.000 C 
ATOM      9  C   UNL     1       2.325   5.665  17.998  0.00  0.00    +0.000 C 
ENDROOT
BRANCH   8  10
ATOM     10  O   UNL     1       2.071   3.375  17.413  0.00  0.00    +0.000 OA
ATOM     11  H   UNL     1       1.116   3.273  17.561  0.00  0.00    +0.000 HD
ENDBRANCH   8  10
BRANCH   7  12
ATOM     12  C   UNL     1       4.918   3.946  17.554  0.00  0.00    +0.000 C 
BRANCH  12  13
ATOM     13  C   UNL     1       5.964   5.026  17.680  0.00  0.00    +0.000 A 
ATOM     14  C   UNL     1       5.874   6.207  16.932  0.00  0.00    +0.000 A 
ATOM     15  C   UNL     1       6.757   7.267  17.157  0.00  0.00    +0.000 A 
ATOM     16  C   UNL     1       7.753   7.150  18.124  0.00  0.00    +0.000 A 
ATOM     17  C   UNL     1       7.878   5.968  18.852  0.00  0.00    +0.000 A 
ATOM     18  C   UNL     1       6.994   4.908  18.626  0.00  0.00    +0.000 A 
ENDBRANCH  12  13
ENDBRANCH   7  12
TORSDOF 3
ENDMDL
MODEL 2
REMARK VINA RESULT:      -7.0      1.758      2.956
REMARK  Name = 
REMARK  6 active torsions:
REMARK  status: ('A' for Active; 'I' for Inactive)
REMARK    1  A    between atoms: C_1  and  C_2
REMARK    2  A    between atoms: C_2  and  C_3
REMARK    3  A    between atoms: N_7  and  C_8
REMARK    4  A    between atoms: C_8  and  C_9
REMARK    5  A    between atoms: C_15  and  C_16
REMARK    6  A    between atoms: C_15  and  O_17
REMARK                            x       y       z     vdW  Elec       q    Type
REMARK                         _______ _______ _______ _____ _____    ______ ____
ROOT
ATOM      1  C   UNL     1       1.375   2.576  21.417  0.00  0.00    +0.000 C 
ATOM      2  C   UNL     1       1.927   3.287  20.170  0.00  0.00    +0.000 C 
ATOM      3  C   UNL     1       0.913   3.123  19.022  0.00  0.00    +0.000 C 
ATOM      4  C   UNL     1       2.118   4.788  20.455  0.00  0.00    +0.000 C 
ATOM      5  C   UNL     1       3.337   5.170  19.652  0.00  0.00    +0.000 C 
ATOM      6  O   UNL     1       3.723   6.318  19.498  0.00  0.00    +0.000 OA
ATOM      7  N   UNL     1       3.992   4.012  19.248  0.00  0.00    +0.000 N 
ATOM      8  C   UNL     1       3.369   2.830  19.797  0.00  0.00    +0.000 C 
ATOM      9  C   UNL     1       3.423   1.615  18.874  0.00  0.00    +0.000 C 
ENDROOT
BRANCH   8  10
ATOM     10  O   UNL     1       4.098   2.503  20.974  0.00  0.00    +0.000 OA
ATOM     11  H   UNL     1       5.039   2.598  20.752  0.00  0.00    +0.000 HD
ENDBRANCH   8  10
BRANCH   7  12
ATOM     12  C   UNL     1       5.403   4.055  18.890  0.00  0.00    +0.000 C 
BRANCH  12  13
ATOM     13  C   UNL     1       5.701   4.384  17.448  0.00  0.00    +0.000 A 
ATOM     14  C   UNL     1       6.939   4.922  17.073  0.00  0.00    +0.000 A 
ATOM     15  C   UNL     1       7.270   5.087  15.725  0.00  0.00    +0.000 A 
ATOM     16  C   UNL     1       6.357   4.730  14.735  0.00  0.00    +0.000 A 
ATOM     17  C   UNL     1       5.108   4.227  15.093  0.00  0.00    +0.000 A 
ATOM     18  C   UNL     1       4.778   4.062  16.442  0.00  0.00    +0.000 A 
ENDBRANCH  12  13
ENDBRANCH   7  12
TORSDOF 3
ENDMDL
MODEL 3
REMARK VINA RESULT:      -6.9      1.243      2.504
REMARK  Name = 
REMARK  6 active torsions:
REMARK  status: ('A' for Active; 'I' for Inactive)
REMARK    1  A    between atoms: C_1  and  C_2
REMARK    2  A    between atoms: C_2  and  C_3
REMARK    3  A    between atoms: N_7  and  C_8
REMARK    4  A    between atoms: C_8  and  C_9
REMARK    5  A    between atoms: C_15  and  C_16
REMARK    6  A    between atoms: C_15  and  O_17
REMARK                            x       y       z     vdW  Elec       q    Type
REMARK                         _______ _______ _______ _____ _____    ______ ____
ROOT
ATOM      1  C   UNL     1       2.568   2.747  21.526  0.00  0.00    +0.000 C 
ATOM      2  C   UNL     1       2.320   3.472  20.193  0.00  0.00    +0.000 C 
ATOM      3  C   UNL     1       0.903   3.125  19.700  0.00  0.00    +0.000 C 
ATOM      4  C   UNL     1       2.419   4.996  20.391  0.00  0.00    +0.000 C 
ATOM      5  C   UNL     1       3.010   5.505  19.099  0.00  0.00    +0.000 C 
ATOM      6  O   UNL     1       3.106   6.687  18.809  0.00  0.00    +0.000 OA
ATOM      7  N   UNL     1       3.529   4.430  18.386  0.00  0.00    +0.000 N 
ATOM      8  C   UNL     1       3.432   3.199  19.136  0.00  0.00    +0.000 C 
ATOM      9  C   UNL     1       3.185   1.965  18.272  0.00  0.00    +0.000 C 
ENDROOT
BRANCH   8  10
ATOM     10  O   UNL     1       4.688   3.023  19.780  0.00  0.00    +0.000 OA
ATOM     11  H   UNL     1       5.306   3.641  19.356  0.00  0.00    +0.000 HD
ENDBRANCH   8  10
BRANCH   7  12
ATOM     12  C   UNL     1       4.552   4.648  17.373  0.00  0.00    +0.000 C 
BRANCH  12  13
ATOM     13  C   UNL     1       5.696   5.542  17.782  0.00  0.00    +0.000 A 
ATOM     14  C   UNL     1       6.564   5.172  18.818  0.00  0.00    +0.000 A 
ATOM     15  C   UNL     1       7.708   5.925  19.097  0.00  0.00    +0.000 A 
ATOM     16  C   UNL     1       7.989   7.068  18.351  0.00  0.00    +0.000 A 
ATOM     17  C   UNL     1       7.116   7.468  17.340  0.00  0.00    +0.000 A 
ATOM     18  C   UNL     1       5.972   6.714  17.062  0.00  0.00    +0.000 A 
ENDBRANCH  12  13
ENDBRANCH   7  12
TORSDOF 3
ENDMDL
MODEL 4
REMARK VINA RESULT:      -6.8      1.220      2.194
REMARK  Name = 
REMARK  6 active torsions:
REMARK  status: ('A' for Active; 'I' for Inactive)
REMARK    1  A    between atoms: C_1  and  C_2
REMARK    2  A    between atoms: C_2  and  C_3
REMARK    3  A    between atoms: N_7  and  C_8
REMARK    4  A    between atoms: C_8  and  C_9
REMARK    5  A    between atoms: C_15  and  C_16
REMARK    6  A    between atoms: C_15  and  O_17
REMARK                            x       y       z     vdW  Elec       q    Type
REMARK                         _______ _______ _______ _____ _____    ______ ____
ROOT
ATOM      1  C   UNL     1       2.755   2.631  21.463  0.00  0.00    +0.000 C 
ATOM      2  C   UNL     1       2.529   3.355  20.125  0.00  0.00    +0.000 C 
ATOM      3  C   UNL     1       1.083   3.094  19.663  0.00  0.00    +0.000 C 
ATOM      4  C   UNL     1       2.730   4.871  20.299  0.00  0.00    +0.000 C 
ATOM      5  C   UNL     1       3.327   5.324  18.990  0.00  0.00    +0.000 C 
ATOM      6  O   UNL     1       3.493   6.494  18.682  0.00  0.00    +0.000 OA
ATOM      7  N   UNL     1       3.761   4.209  18.282  0.00  0.00    +0.000 N 
ATOM      8  C   UNL     1       3.600   2.997  19.050  0.00  0.00    +0.000 C 
ATOM      9  C   UNL     1       3.257   1.770  18.209  0.00  0.00    +0.000 C 
ENDROOT
BRANCH   8  10
ATOM     10  O   UNL     1       4.854   2.748  19.674  0.00  0.00    +0.000 OA
ATOM     11  H   UNL     1       4.660   2.410  20.564  0.00  0.00    +0.000 HD
ENDBRANCH   8  10
BRANCH   7  12
ATOM     12  C   UNL     1       4.776   4.347  17.247  0.00  0.00    +0.000 C 
BRANCH  12  13
ATOM     13  C   UNL     1       5.950   5.229  17.596  0.00  0.00    +0.000 A 
ATOM     14  C   UNL     1       6.177   6.429  16.910  0.00  0.00    +0.000 A 
ATOM     15  C   UNL     1       7.172   7.317  17.330  0.00  0.00    +0.000 A 
ATOM     16  C   UNL     1       7.963   7.005  18.434  0.00  0.00    +0.000 A 
ATOM     17  C   UNL     1       7.772   5.799  19.105  0.00  0.00    +0.000 A 
ATOM     18  C   UNL     1       6.776   4.912  18.685  0.00  0.00    +0.000 A 
ENDBRANCH  12  13
ENDBRANCH   7  12
TORSDOF 3
ENDMDL
MODEL 5
REMARK VINA RESULT:      -6.8      1.849      2.892
REMARK  Name = 
REMARK  6 active torsions:
REMARK  status: ('A' for Active; 'I' for Inactive)
REMARK    1  A    between atoms: C_1  and  C_2
REMARK    2  A    between atoms: C_2  and  C_3
REMARK    3  A    between atoms: N_7  and  C_8
REMARK    4  A    between atoms: C_8  and  C_9
REMARK    5  A    between atoms: C_15  and  C_16
REMARK    6  A    between atoms: C_15  and  O_17
REMARK                            x       y       z     vdW  Elec       q    Type
REMARK                         _______ _______ _______ _____ _____    ______ ____
ROOT
ATOM      1  C   UNL     1       1.169   2.971  20.817  0.00  0.00    +0.000 C 
ATOM      2  C   UNL     1       1.837   3.532  19.550  0.00  0.00    +0.000 C 
ATOM      3  C   UNL     1       0.931   3.226  18.342  0.00  0.00    +0.000 C 
ATOM      4  C   UNL     1       2.009   5.057  19.670  0.00  0.00    +0.000 C 
ATOM      5  C   UNL     1       3.298   5.348  18.943  0.00  0.00    +0.000 C 
ATOM      6  O   UNL     1       3.702   6.472  18.689  0.00  0.00    +0.000 OA
ATOM      7  N   UNL     1       3.981   4.154  18.741  0.00  0.00    +0.000 N 
ATOM      8  C   UNL     1       3.305   3.043  19.368  0.00  0.00    +0.000 C 
ATOM      9  C   UNL     1       3.436   1.726  18.605  0.00  0.00    +0.000 C 
ENDROOT
BRANCH   8  10
ATOM     10  O   UNL     1       3.921   2.862  20.637  0.00  0.00    +0.000 OA
ATOM     11  H   UNL     1       3.890   3.723  21.085  0.00  0.00    +0.000 HD
ENDBRANCH   8  10
BRANCH   7  12
ATOM     12  C   UNL     1       5.420   4.162  18.511  0.00  0.00    +0.000 C 
BRANCH  12  13
ATOM     13  C   UNL     1       5.850   4.294  17.071  0.00  0.00    +0.000 A 
ATOM     14  C   UNL     1       4.936   4.102  16.026  0.00  0.00    +0.000 A 
ATOM     15  C   UNL     1       5.295   4.370  14.702  0.00  0.00    +0.000 A 
ATOM     16  C   UNL     1       6.581   4.818  14.407  0.00  0.00    +0.000 A 
ATOM     17  C   UNL     1       7.512   4.980  15.431  0.00  0.00    +0.000 A 
ATOM     18  C   UNL     1       7.151   4.712  16.755  0.00  0.00    +0.000 A 
ENDBRANCH  12  13
ENDBRANCH   7  12
TORSDOF 3
ENDMDL
MODEL 6
REMARK VINA RESULT:      -6.8      1.287      1.668
REMARK  Name = 
REMARK  6 active torsions:
REMARK  status: ('A' for Active; 'I' for Inactive)
REMARK    1  A    between atoms: C_1  and  C_2
REMARK    2  A    between atoms: C_2  and  C_3
REMARK    3  A    between atoms: N_7  and  C_8
REMARK    4  A    between atoms: C_8  and  C_9
REMARK    5  A    between atoms: C_15  and  C_16
REMARK    6  A    between atoms: C_15  and  O_17
REMARK                            x       y       z     vdW  Elec       q    Type
REMARK                         _______ _______ _______ _____ _____    ______ ____
ROOT
ATOM      1  C   UNL     1       0.699   2.740  19.162  0.00  0.00    +0.000 C 
ATOM      2  C   UNL     1       2.198   3.082  19.123  0.00  0.00    +0.000 C 
ATOM      3  C   UNL     1       2.837   2.646  20.454  0.00  0.00    +0.000 C 
ATOM      4  C   UNL     1       2.885   2.328  17.970  0.00  0.00    +0.000 C 
ATOM      5  C   UNL     1       3.953   3.275  17.484  0.00  0.00    +0.000 C 
ATOM      6  O   UNL     1       4.814   2.978  16.671  0.00  0.00    +0.000 OA
ATOM      7  N   UNL     1       3.707   4.540  18.009  0.00  0.00    +0.000 N 
ATOM      8  C   UNL     1       2.473   4.572  18.758  0.00  0.00    +0.000 C 
ATOM      9  C   UNL     1       2.500   5.516  19.958  0.00  0.00    +0.000 C 
ENDROOT
BRANCH   8  10
ATOM     10  O   UNL     1       1.474   5.050  17.865  0.00  0.00    +0.000 OA
ATOM     11  H   UNL     1       1.297   5.972  18.114  0.00  0.00    +0.000 HD
ENDBRANCH   8  10
BRANCH   7  12
ATOM     12  C   UNL     1       4.258   5.722  17.361  0.00  0.00    +0.000 C 
BRANCH  12  13
ATOM     13  C   UNL     1       5.674   6.077  17.744  0.00  0.00    +0.000 A 
ATOM     14  C   UNL     1       6.345   7.135  17.118  0.00  0.00    +0.000 A 
ATOM     15  C   UNL     1       7.597   7.558  17.573  0.00  0.00    +0.000 A 
ATOM     16  C   UNL     1       8.199   6.915  18.652  0.00  0.00    +0.000 A 
ATOM     17  C   UNL     1       7.560   5.838  19.263  0.00  0.00    +0.000 A 
ATOM     18  C   UNL     1       6.307   5.415  18.807  0.00  0.00    +0.000 A 
ENDBRANCH  12  13
ENDBRANCH   7  12
TORSDOF 3
ENDMDL
MODEL 7
REMARK VINA RESULT:      -6.8      2.339      3.931
REMARK  Name = 
REMARK  6 active torsions:
REMARK  status: ('A' for Active; 'I' for Inactive)
REMARK    1  A    between atoms: C_1  and  C_2
REMARK    2  A    between atoms: C_2  and  C_3
REMARK    3  A    between atoms: N_7  and  C_8
REMARK    4  A    between atoms: C_8  and  C_9
REMARK    5  A    between atoms: C_15  and  C_16
REMARK    6  A    between atoms: C_15  and  O_17
REMARK                            x       y       z     vdW  Elec       q    Type
REMARK                         _______ _______ _______ _____ _____    ______ ____
ROOT
ATOM      1  C   UNL     1       3.482   1.483  18.195  0.00  0.00    +0.000 C 
ATOM      2  C   UNL     1       3.377   2.842  18.906  0.00  0.00    +0.000 C 
ATOM      3  C   UNL     1       2.462   2.685  20.135  0.00  0.00    +0.000 C 
ATOM      4  C   UNL     1       4.767   3.304  19.377  0.00  0.00    +0.000 C 
ATOM      5  C   UNL     1       4.732   4.806  19.236  0.00  0.00    +0.000 C 
ATOM      6  O   UNL     1       5.603   5.554  19.652  0.00  0.00    +0.000 OA
ATOM      7  N   UNL     1       3.636   5.160  18.456  0.00  0.00    +0.000 N 
ATOM      8  C   UNL     1       2.945   3.996  17.952  0.00  0.00    +0.000 C 
ATOM      9  C   UNL     1       1.434   4.176  17.829  0.00  0.00    +0.000 C 
ENDROOT
BRANCH   8  10
ATOM     10  O   UNL     1       3.453   3.765  16.643  0.00  0.00    +0.000 OA
ATOM     11  H   UNL     1       3.614   4.639  16.250  0.00  0.00    +0.000 HD
ENDBRANCH   8  10
BRANCH   7  12
ATOM     12  C   UNL     1       3.610   6.442  17.767  0.00  0.00    +0.000 C 
BRANCH  12  13
ATOM     13  C   UNL     1       2.765   7.514  18.411  0.00  0.00    +0.000 A 
ATOM     14  C   UNL     1       2.323   8.621  17.675  0.00  0.00    +0.000 A 
ATOM     15  C   UNL     1       1.420   9.534  18.227  0.00  0.00    +0.000 A 
ATOM     16  C   UNL     1       0.960   9.357  19.531  0.00  0.00    +0.000 A 
ATOM     17  C   UNL     1       1.418   8.279  20.287  0.00  0.00    +0.000 A 
ATOM     18  C   UNL     1       2.321   7.367  19.733  0.00  0.00    +0.000 A 
ENDBRANCH  12  13
ENDBRANCH   7  12
TORSDOF 3
ENDMDL
MODEL 8
REMARK VINA RESULT:      -6.8      2.329      4.090
REMARK  Name = 
REMARK  6 active torsions:
REMARK  status: ('A' for Active; 'I' for Inactive)
REMARK    1  A    between atoms: C_1  and  C_2
REMARK    2  A    between atoms: C_2  and  C_3
REMARK    3  A    between atoms: N_7  and  C_8
REMARK    4  A    between atoms: C_8  and  C_9
REMARK    5  A    between atoms: C_15  and  C_16
REMARK    6  A    between atoms: C_15  and  O_17
REMARK                            x       y       z     vdW  Elec       q    Type
REMARK                         _______ _______ _______ _____ _____    ______ ____
ROOT
ATOM      1  C   UNL     1       3.418   1.450  18.429  0.00  0.00    +0.000 C 
ATOM      2  C   UNL     1       3.348   2.824  19.116  0.00  0.00    +0.000 C 
ATOM      3  C   UNL     1       2.497   2.692  20.393  0.00  0.00    +0.000 C 
ATOM      4  C   UNL     1       4.760   3.296  19.506  0.00  0.00    +0.000 C 
ATOM      5  C   UNL     1       4.716   4.794  19.336  0.00  0.00    +0.000 C 
ATOM      6  O   UNL     1       5.606   5.551  19.691  0.00  0.00    +0.000 OA
ATOM      7  N   UNL     1       3.581   5.132  18.605  0.00  0.00    +0.000 N 
ATOM      8  C   UNL     1       2.867   3.958  18.161  0.00  0.00    +0.000 C 
ATOM      9  C   UNL     1       1.352   4.135  18.112  0.00  0.00    +0.000 C 
ENDROOT
BRANCH   8  10
ATOM     10  O   UNL     1       3.308   3.699  16.834  0.00  0.00    +0.000 OA
ATOM     11  H   UNL     1       4.166   4.144  16.735  0.00  0.00    +0.000 HD
ENDBRANCH   8  10
BRANCH   7  12
ATOM     12  C   UNL     1       3.519   6.399  17.891  0.00  0.00    +0.000 C 
BRANCH  12  13
ATOM     13  C   UNL     1       2.576   7.427  18.466  0.00  0.00    +0.000 A 
ATOM     14  C   UNL     1       2.177   7.368  19.808  0.00  0.00    +0.000 A 
ATOM     15  C   UNL     1       1.426   8.400  20.378  0.00  0.00    +0.000 A 
ATOM     16  C   UNL     1       1.050   9.497  19.605  0.00  0.00    +0.000 A 
ATOM     17  C   UNL     1       1.409   9.553  18.259  0.00  0.00    +0.000 A 
ATOM     18  C   UNL     1       2.161   8.520  17.690  0.00  0.00    +0.000 A 
ENDBRANCH  12  13
ENDBRANCH   7  12
TORSDOF 3
ENDMDL
MODEL 9
REMARK VINA RESULT:      -6.8      1.770      2.077
REMARK  Name = 
REMARK  6 active torsions:
REMARK  status: ('A' for Active; 'I' for Inactive)
REMARK    1  A    between atoms: C_1  and  C_2
REMARK    2  A    between atoms: C_2  and  C_3
REMARK    3  A    between atoms: N_7  and  C_8
REMARK    4  A    between atoms: C_8  and  C_9
REMARK    5  A    between atoms: C_15  and  C_16
REMARK    6  A    between atoms: C_15  and  O_17
REMARK                            x       y       z     vdW  Elec       q    Type
REMARK                         _______ _______ _______ _____ _____    ______ ____
ROOT
ATOM      1  C   UNL     1       0.464   2.898  20.650  0.00  0.00    +0.000 C 
ATOM      2  C   UNL     1       1.765   3.548  20.149  0.00  0.00    +0.000 C 
ATOM      3  C   UNL     1       1.732   5.047  20.501  0.00  0.00    +0.000 C 
ATOM      4  C   UNL     1       2.981   2.902  20.837  0.00  0.00    +0.000 C 
ATOM      5  C   UNL     1       4.062   2.921  19.784  0.00  0.00    +0.000 C 
ATOM      6  O   UNL     1       5.228   2.628  19.995  0.00  0.00    +0.000 OA
ATOM      7  N   UNL     1       3.483   3.191  18.549  0.00  0.00    +0.000 N 
ATOM      8  C   UNL     1       2.044   3.268  18.642  0.00  0.00    +0.000 C 
ATOM      9  C   UNL     1       1.414   4.280  17.689  0.00  0.00    +0.000 C 
ENDROOT
BRANCH   8  10
ATOM     10  O   UNL     1       1.551   1.983  18.284  0.00  0.00    +0.000 OA
ATOM     11  H   UNL     1       1.551   1.946  17.313  0.00  0.00    +0.000 HD
ENDBRANCH   8  10
BRANCH   7  12
ATOM     12  C   UNL     1       4.166   2.809  17.320  0.00  0.00    +0.000 C 
BRANCH  12  13
ATOM     13  C   UNL     1       4.885   3.923  16.599  0.00  0.00    +0.000 A 
ATOM     14  C   UNL     1       5.749   3.650  15.531  0.00  0.00    +0.000 A 
ATOM     15  C   UNL     1       6.297   4.686  14.769  0.00  0.00    +0.000 A 
ATOM     16  C   UNL     1       5.998   6.011  15.080  0.00  0.00    +0.000 A 
ATOM     17  C   UNL     1       5.168   6.300  16.162  0.00  0.00    +0.000 A 
ATOM     18  C   UNL     1       4.620   5.263  16.923  0.00  0.00    +0.000 A 
ENDBRANCH  12  13
ENDBRANCH   7  12
TORSDOF 3
ENDMDL
