MODEL 1
REMARK VINA RESULT:      -8.5      0.000      0.000
REMARK  Name = 
REMARK  10 active torsions:
REMARK  status: ('A' for Active; 'I' for Inactive)
REMARK    1  A    between atoms: C_1  and  C_2
REMARK    2  A    between atoms: C_2  and  O_3
REMARK    3  A    between atoms: O_3  and  C_4
REMARK    4  A    between atoms: C_7  and  C_8
REMARK    5  A    between atoms: N_10  and  C_11
REMARK    6  A    between atoms: C_11  and  N_13
REMARK    7  A    between atoms: N_13  and  C_14
REMARK    8  A    between atoms: C_17  and  N_18
REMARK    9  A    between atoms: C_19  and  C_21
REMARK   10  A    between atoms: C_29  and  N_30
REMARK                            x       y       z     vdW  Elec       q    Type
REMARK                         _______ _______ _______ _____ _____    ______ ____
ROOT
ATOM      1  C   UNL     1       4.078   3.909  17.622  0.00  0.00    +0.000 C 
ATOM      2  S   UNL     1       3.126   2.530  17.649  0.00  0.00    +0.000 S 
ENDROOT
BRANCH   1   5
ATOM      3  C   UNL     1       3.158   5.635  19.157  0.00  0.00    +0.000 C 
ATOM      4  O   UNL     1       3.357   5.016  20.199  0.00  0.00    +0.000 OA
ATOM      5  N   UNL     1       3.428   5.097  17.911  0.00  0.00    +0.000 N 
ATOM      6  H   UNL     1       3.115   5.575  17.080  0.00  0.00    +0.000 HD
BRANCH   3  10
ATOM      7  C   UNL     1       1.255   9.530  19.026  0.00  0.00    +0.000 A 
ATOM      8  C   UNL     1       1.919   8.983  17.930  0.00  0.00    +0.000 A 
ATOM      9  C   UNL     1       2.536   7.732  18.025  0.00  0.00    +0.000 A 
ATOM     10  C   UNL     1       2.538   6.999  19.223  0.00  0.00    +0.000 A 
ATOM     11  C   UNL     1       1.940   7.566  20.354  0.00  0.00    +0.000 A 
ATOM     12  C   UNL     1       1.318   8.830  20.239  0.00  0.00    +0.000 A 
BRANCH  12  13
ATOM     13  N   UNL     1       0.679   9.384  21.418  0.00  0.00    +0.000 N 
ATOM     14  O   UNL     1       1.325  10.202  22.088  0.00  0.00    +0.000 OA
ATOM     15  O   UNL     1      -0.439   8.937  21.708  0.00  0.00    +0.000 OA
ENDBRANCH  12  13
BRANCH   7  16
ATOM     16  O   UNL     1       0.530  10.690  18.958  0.00  0.00    +0.000 OA
BRANCH  16  18
ATOM     17  C   UNL     1      -1.723  11.528  19.008  0.00  0.00    +0.000 C 
ATOM     18  C   UNL     1      -0.755  10.578  18.331  0.00  0.00    +0.000 C 
ENDBRANCH  16  18
ENDBRANCH   7  16
ENDBRANCH   3  10
ENDBRANCH   1   5
BRANCH   1  19
ATOM     19  N   UNL     1       5.431   4.000  17.363  0.00  0.00    +0.000 N 
ATOM     20  H   UNL     1       5.841   3.178  16.918  0.00  0.00    +0.000 HD
BRANCH  19  21
ATOM     21  C   UNL     1       6.328   5.052  17.679  0.00  0.00    +0.000 A 
ATOM     22  C   UNL     1       6.433   6.190  16.887  0.00  0.00    +0.000 A 
ATOM     23  C   UNL     1       7.248   7.262  17.257  0.00  0.00    +0.000 A 
ATOM     24  C   UNL     1       7.981   7.239  18.442  0.00  0.00    +0.000 A 
ATOM     25  C   UNL     1       7.888   6.094  19.246  0.00  0.00    +0.000 A 
ATOM     26  C   UNL     1       7.054   5.016  18.875  0.00  0.00    +0.000 A 
BRANCH  24  27
ATOM     27  N   UNL     1       8.772   8.328  18.877  0.00  0.00    +0.000 N 
ATOM     28  C   UNL     1       8.683   9.647  18.444  0.00  0.00    +0.000 C 
ATOM     29  O   UNL     1       7.950  10.049  17.546  0.00  0.00    +0.000 OA
ATOM     30  H   UNL     1       9.450   8.157  19.612  0.00  0.00    +0.000 HD
BRANCH  28  31
ATOM     31  C   UNL     1       9.544  10.573  19.157  0.00  0.00    +0.000 A 
ATOM     32  C   UNL     1       9.683  10.779  20.518  0.00  0.00    +0.000 A 
ATOM     33  C   UNL     1      10.676  11.771  20.682  0.00  0.00    +0.000 A 
ATOM     34  C   UNL     1      11.082  12.113  19.414  0.00  0.00    +0.000 A 
ATOM     35  O   UNL     1      10.402  11.395  18.478  0.00  0.00    +0.000 OA
ENDBRANCH  28  31
ENDBRANCH  24  27
ENDBRANCH  19  21
ENDBRANCH   1  19
TORSDOF 9
ENDMDL
MODEL 2
REMARK VINA RESULT:      -8.1      1.396      1.685
REMARK  Name = 
REMARK  10 active torsions:
REMARK  status: ('A' for Active; 'I' for Inactive)
REMARK    1  A    between atoms: C_1  and  C_2
REMARK    2  A    between atoms: C_2  and  O_3
REMARK    3  A    between atoms: O_3  and  C_4
REMARK    4  A    between atoms: C_7  and  C_8
REMARK    5  A    between atoms: N_10  and  C_11
REMARK    6  A    between atoms: C_11  and  N_13
REMARK    7  A    between atoms: N_13  and  C_14
REMARK    8  A    between atoms: C_17  and  N_18
REMARK    9  A    between atoms: C_19  and  C_21
REMARK   10  A    between atoms: C_29  and  N_30
REMARK                            x       y       z     vdW  Elec       q    Type
REMARK                         _______ _______ _______ _____ _____    ______ ____
ROOT
ATOM      1  C   UNL     1       4.602   4.470  19.298  0.00  0.00    +0.000 C 
ATOM      2  S   UNL     1       3.792   3.074  19.751  0.00  0.00    +0.000 S 
ENDROOT
BRANCH   1   5
ATOM      3  C   UNL     1       2.788   6.103  18.821  0.00  0.00    +0.000 C 
ATOM      4  O   UNL     1       2.333   5.523  17.838  0.00  0.00    +0.000 OA
ATOM      5  N   UNL     1       3.914   5.656  19.490  0.00  0.00    +0.000 N 
ATOM      6  H   UNL     1       4.341   6.236  20.196  0.00  0.00    +0.000 HD
BRANCH   3  10
ATOM      7  C   UNL     1       0.787   9.813  19.843  0.00  0.00    +0.000 A 
ATOM      8  C   UNL     1       1.342   9.581  18.586  0.00  0.00    +0.000 A 
ATOM      9  C   UNL     1       1.997   8.378  18.308  0.00  0.00    +0.000 A 
ATOM     10  C   UNL     1       2.147   7.377  19.282  0.00  0.00    +0.000 A 
ATOM     11  C   UNL     1       1.661   7.622  20.571  0.00  0.00    +0.000 A 
ATOM     12  C   UNL     1       0.998   8.843  20.833  0.00  0.00    +0.000 A 
BRANCH  12  13
ATOM     13  N   UNL     1       0.478   9.062  22.171  0.00  0.00    +0.000 N 
ATOM     14  O   UNL     1      -0.708   8.770  22.378  0.00  0.00    +0.000 OA
ATOM     15  O   UNL     1       1.242   9.597  22.985  0.00  0.00    +0.000 OA
ENDBRANCH  12  13
BRANCH   7  16
ATOM     16  O   UNL     1       0.031  10.916  20.135  0.00  0.00    +0.000 OA
BRANCH  16  18
ATOM     17  C   UNL     1      -1.686  11.773  18.687  0.00  0.00    +0.000 C 
ATOM     18  C   UNL     1      -0.211  11.804  19.036  0.00  0.00    +0.000 C 
ENDBRANCH  16  18
ENDBRANCH   7  16
ENDBRANCH   3  10
ENDBRANCH   1   5
BRANCH   1  19
ATOM     19  N   UNL     1       5.874   4.579  18.774  0.00  0.00    +0.000 N 
ATOM     20  H   UNL     1       6.373   3.695  18.667  0.00  0.00    +0.000 HD
BRANCH  19  21
ATOM     21  C   UNL     1       6.592   5.748  18.418  0.00  0.00    +0.000 A 
ATOM     22  C   UNL     1       6.125   6.631  17.450  0.00  0.00    +0.000 A 
ATOM     23  C   UNL     1       6.790   7.828  17.174  0.00  0.00    +0.000 A 
ATOM     24  C   UNL     1       7.942   8.192  17.867  0.00  0.00    +0.000 A 
ATOM     25  C   UNL     1       8.426   7.308  18.841  0.00  0.00    +0.000 A 
ATOM     26  C   UNL     1       7.746   6.103  19.127  0.00  0.00    +0.000 A 
BRANCH  24  27
ATOM     27  N   UNL     1       8.609   9.421  17.656  0.00  0.00    +0.000 N 
ATOM     28  C   UNL     1       9.153  10.252  18.630  0.00  0.00    +0.000 C 
ATOM     29  O   UNL     1       9.061  10.076  19.841  0.00  0.00    +0.000 OA
ATOM     30  H   UNL     1       8.752   9.725  16.698  0.00  0.00    +0.000 HD
BRANCH  28  31
ATOM     31  C   UNL     1       9.885  11.391  18.109  0.00  0.00    +0.000 A 
ATOM     32  C   UNL     1       9.413  12.608  17.647  0.00  0.00    +0.000 A 
ATOM     33  C   UNL     1      10.542  13.374  17.284  0.00  0.00    +0.000 A 
ATOM     34  C   UNL     1      11.636  12.581  17.542  0.00  0.00    +0.000 A 
ATOM     35  O   UNL     1      11.252  11.375  18.041  0.00  0.00    +0.000 OA
ENDBRANCH  28  31
ENDBRANCH  24  27
ENDBRANCH  19  21
ENDBRANCH   1  19
TORSDOF 9
ENDMDL
MODEL 3
REMARK VINA RESULT:      -7.9      0.896      1.445
REMARK  Name = 
REMARK  10 active torsions:
REMARK  status: ('A' for Active; 'I' for Inactive)
REMARK    1  A    between atoms: C_1  and  C_2
REMARK    2  A    between atoms: C_2  and  O_3
REMARK    3  A    between atoms: O_3  and  C_4
REMARK    4  A    between atoms: C_7  and  C_8
REMARK    5  A    between atoms: N_10  and  C_11
REMARK    6  A    between atoms: C_11  and  N_13
REMARK    7  A    between atoms: N_13  and  C_14
REMARK    8  A    between atoms: C_17  and  N_18
REMARK    9  A    between atoms: C_19  and  C_21
REMARK   10  A    between atoms: C_29  and  N_30
REMARK                            x       y       z     vdW  Elec       q    Type
REMARK                         _______ _______ _______ _____ _____    ______ ____
ROOT
ATOM      1  C   UNL     1       4.171   4.297  17.497  0.00  0.00    +0.000 C 
ATOM      2  S   UNL     1       3.326   2.854  17.378  0.00  0.00    +0.000 S 
ENDROOT
BRANCH   1   5
ATOM      3  C   UNL     1       3.098   5.783  19.177  0.00  0.00    +0.000 C 
ATOM      4  O   UNL     1       3.323   5.074  20.155  0.00  0.00    +0.000 OA
ATOM      5  N   UNL     1       3.431   5.398  17.890  0.00  0.00    +0.000 N 
ATOM      6  H   UNL     1       3.099   5.937  17.104  0.00  0.00    +0.000 HD
BRANCH   3  10
ATOM      7  C   UNL     1       0.897   9.514  19.406  0.00  0.00    +0.000 A 
ATOM      8  C   UNL     1       1.547   9.097  18.246  0.00  0.00    +0.000 A 
ATOM      9  C   UNL     1       2.263   7.896  18.225  0.00  0.00    +0.000 A 
ATOM     10  C   UNL     1       2.380   7.086  19.366  0.00  0.00    +0.000 A 
ATOM     11  C   UNL     1       1.795   7.525  20.560  0.00  0.00    +0.000 A 
ATOM     12  C   UNL     1       1.073   8.740  20.562  0.00  0.00    +0.000 A 
BRANCH  12  13
ATOM     13  N   UNL     1       0.451   9.160  21.805  0.00  0.00    +0.000 N 
ATOM     14  O   UNL     1      -0.603   8.600  22.136  0.00  0.00    +0.000 OA
ATOM     15  O   UNL     1       0.985  10.104  22.403  0.00  0.00    +0.000 OA
ENDBRANCH  12  13
BRANCH   7  16
ATOM     16  O   UNL     1       0.083  10.614  19.452  0.00  0.00    +0.000 OA
BRANCH  16  18
ATOM     17  C   UNL     1       1.257  12.643  19.985  0.00  0.00    +0.000 C 
ATOM     18  C   UNL     1       0.633  11.810  18.884  0.00  0.00    +0.000 C 
ENDBRANCH  16  18
ENDBRANCH   7  16
ENDBRANCH   3  10
ENDBRANCH   1   5
BRANCH   1  19
ATOM     19  N   UNL     1       5.514   4.514  17.267  0.00  0.00    +0.000 N 
ATOM     20  H   UNL     1       5.979   3.792  16.714  0.00  0.00    +0.000 HD
BRANCH  19  21
ATOM     21  C   UNL     1       6.338   5.567  17.738  0.00  0.00    +0.000 A 
ATOM     22  C   UNL     1       7.240   5.384  18.782  0.00  0.00    +0.000 A 
ATOM     23  C   UNL     1       8.114   6.400  19.174  0.00  0.00    +0.000 A 
ATOM     24  C   UNL     1       8.127   7.635  18.529  0.00  0.00    +0.000 A 
ATOM     25  C   UNL     1       7.219   7.833  17.479  0.00  0.00    +0.000 A 
ATOM     26  C   UNL     1       6.343   6.800  17.075  0.00  0.00    +0.000 A 
BRANCH  24  27
ATOM     27  N   UNL     1       9.036   8.666  18.861  0.00  0.00    +0.000 N 
ATOM     28  C   UNL     1       8.954  10.002  18.483  0.00  0.00    +0.000 C 
ATOM     29  O   UNL     1       8.111  10.472  17.726  0.00  0.00    +0.000 OA
ATOM     30  H   UNL     1       9.812   8.434  19.472  0.00  0.00    +0.000 HD
BRANCH  28  31
ATOM     31  C   UNL     1       9.968  10.857  19.073  0.00  0.00    +0.000 A 
ATOM     32  C   UNL     1      11.114  11.388  18.507  0.00  0.00    +0.000 A 
ATOM     33  C   UNL     1      11.734  12.175  19.502  0.00  0.00    +0.000 A 
ATOM     34  C   UNL     1      10.934  12.077  20.616  0.00  0.00    +0.000 A 
ATOM     35  O   UNL     1       9.860  11.278  20.371  0.00  0.00    +0.000 OA
ENDBRANCH  28  31
ENDBRANCH  24  27
ENDBRANCH  19  21
ENDBRANCH   1  19
TORSDOF 9
ENDMDL
MODEL 4
REMARK VINA RESULT:      -7.7      1.021      1.602
REMARK  Name = 
REMARK  10 active torsions:
REMARK  status: ('A' for Active; 'I' for Inactive)
REMARK    1  A    between atoms: C_1  and  C_2
REMARK    2  A    between atoms: C_2  and  O_3
REMARK    3  A    between atoms: O_3  and  C_4
REMARK    4  A    between atoms: C_7  and  C_8
REMARK    5  A    between atoms: N_10  and  C_11
REMARK    6  A    between atoms: C_11  and  N_13
REMARK    7  A    between atoms: N_13  and  C_14
REMARK    8  A    between atoms: C_17  and  N_18
REMARK    9  A    between atoms: C_19  and  C_21
REMARK   10  A    between atoms: C_29  and  N_30
REMARK                            x       y       z     vdW  Elec       q    Type
REMARK                         _______ _______ _______ _____ _____    ______ ____
ROOT
ATOM      1  C   UNL     1       4.446   4.474  17.916  0.00  0.00    +0.000 C 
ATOM      2  S   UNL     1       3.635   3.044  17.589  0.00  0.00    +0.000 S 
ENDROOT
BRANCH   1   5
ATOM      3  C   UNL     1       3.068   5.936  19.379  0.00  0.00    +0.000 C 
ATOM      4  O   UNL     1       3.089   5.205  20.367  0.00  0.00    +0.000 OA
ATOM      5  N   UNL     1       3.648   5.574  18.177  0.00  0.00    +0.000 N 
ATOM      6  H   UNL     1       3.482   6.132  17.352  0.00  0.00    +0.000 HD
BRANCH   3  10
ATOM      7  C   UNL     1       0.821   9.645  19.269  0.00  0.00    +0.000 A 
ATOM      8  C   UNL     1       1.483   9.135  18.153  0.00  0.00    +0.000 A 
ATOM      9  C   UNL     1       2.213   7.946  18.242  0.00  0.00    +0.000 A 
ATOM     10  C   UNL     1       2.333   7.241  19.450  0.00  0.00    +0.000 A 
ATOM     11  C   UNL     1       1.737   7.776  20.598  0.00  0.00    +0.000 A 
ATOM     12  C   UNL     1       0.999   8.978  20.489  0.00  0.00    +0.000 A 
BRANCH  12  13
ATOM     13  N   UNL     1       0.366   9.498  21.687  0.00  0.00    +0.000 N 
ATOM     14  O   UNL     1      -0.657   8.926  22.088  0.00  0.00    +0.000 OA
ATOM     15  O   UNL     1       0.856  10.525  22.175  0.00  0.00    +0.000 OA
ENDBRANCH  12  13
BRANCH   7  16
ATOM     16  O   UNL     1      -0.006  10.734  19.214  0.00  0.00    +0.000 OA
BRANCH  16  18
ATOM     17  C   UNL     1      -1.740  11.563  17.769  0.00  0.00    +0.000 C 
ATOM     18  C   UNL     1      -1.336  10.475  18.743  0.00  0.00    +0.000 C 
ENDBRANCH  16  18
ENDBRANCH   7  16
ENDBRANCH   3  10
ENDBRANCH   1   5
BRANCH   1  19
ATOM     19  N   UNL     1       5.810   4.681  17.971  0.00  0.00    +0.000 N 
ATOM     20  H   UNL     1       6.374   3.830  18.003  0.00  0.00    +0.000 HD
BRANCH  19  21
ATOM     21  C   UNL     1       6.521   5.905  18.043  0.00  0.00    +0.000 A 
ATOM     22  C   UNL     1       7.651   6.053  18.841  0.00  0.00    +0.000 A 
ATOM     23  C   UNL     1       8.400   7.232  18.831  0.00  0.00    +0.000 A 
ATOM     24  C   UNL     1       8.051   8.304  18.013  0.00  0.00    +0.000 A 
ATOM     25  C   UNL     1       6.912   8.169  17.209  0.00  0.00    +0.000 A 
ATOM     26  C   UNL     1       6.162   6.972  17.211  0.00  0.00    +0.000 A 
BRANCH  24  27
ATOM     27  N   UNL     1       8.818   9.490  17.935  0.00  0.00    +0.000 N 
ATOM     28  C   UNL     1       9.264  10.265  19.000  0.00  0.00    +0.000 C 
ATOM     29  O   UNL     1       8.984  10.075  20.179  0.00  0.00    +0.000 OA
ATOM     30  H   UNL     1       9.118   9.800  17.017  0.00  0.00    +0.000 HD
BRANCH  28  31
ATOM     31  C   UNL     1      10.134  11.363  18.621  0.00  0.00    +0.000 A 
ATOM     32  C   UNL     1      10.004  12.280  17.592  0.00  0.00    +0.000 A 
ATOM     33  C   UNL     1      11.107  13.157  17.683  0.00  0.00    +0.000 A 
ATOM     34  C   UNL     1      11.847  12.725  18.759  0.00  0.00    +0.000 A 
ATOM     35  O   UNL     1      11.270  11.636  19.336  0.00  0.00    +0.000 OA
ENDBRANCH  28  31
ENDBRANCH  24  27
ENDBRANCH  19  21
ENDBRANCH   1  19
TORSDOF 9
ENDMDL
MODEL 5
REMARK VINA RESULT:      -7.4      4.566     10.669
REMARK  Name = 
REMARK  10 active torsions:
REMARK  status: ('A' for Active; 'I' for Inactive)
REMARK    1  A    between atoms: C_1  and  C_2
REMARK    2  A    between atoms: C_2  and  O_3
REMARK    3  A    between atoms: O_3  and  C_4
REMARK    4  A    between atoms: C_7  and  C_8
REMARK    5  A    between atoms: N_10  and  C_11
REMARK    6  A    between atoms: C_11  and  N_13
REMARK    7  A    between atoms: N_13  and  C_14
REMARK    8  A    between atoms: C_17  and  N_18
REMARK    9  A    between atoms: C_19  and  C_21
REMARK   10  A    between atoms: C_29  and  N_30
REMARK                            x       y       z     vdW  Elec       q    Type
REMARK                         _______ _______ _______ _____ _____    ______ ____
ROOT
ATOM      1  C   UNL     1       1.203  10.334  18.368  0.00  0.00    +0.000 C 
ATOM      2  S   UNL     1       2.047  11.781  18.418  0.00  0.00    +0.000 S 
ENDROOT
BRANCH   1   5
ATOM      3  C   UNL     1       2.169   8.076  18.753  0.00  0.00    +0.000 C 
ATOM      4  O   UNL     1       1.839   7.982  19.933  0.00  0.00    +0.000 OA
ATOM      5  N   UNL     1       1.938   9.219  18.008  0.00  0.00    +0.000 N 
ATOM      6  H   UNL     1       2.354   9.313  17.093  0.00  0.00    +0.000 HD
BRANCH   3  10
ATOM      7  C   UNL     1       4.592   4.976  16.928  0.00  0.00    +0.000 A 
ATOM      8  C   UNL     1       4.835   6.334  16.726  0.00  0.00    +0.000 A 
ATOM      9  C   UNL     1       4.014   7.298  17.318  0.00  0.00    +0.000 A 
ATOM     10  C   UNL     1       2.907   6.942  18.106  0.00  0.00    +0.000 A 
ATOM     11  C   UNL     1       2.605   5.584  18.259  0.00  0.00    +0.000 A 
ATOM     12  C   UNL     1       3.448   4.623  17.656  0.00  0.00    +0.000 A 
BRANCH  12  13
ATOM     13  N   UNL     1       3.130   3.220  17.853  0.00  0.00    +0.000 N 
ATOM     14  O   UNL     1       3.709   2.626  18.773  0.00  0.00    +0.000 OA
ATOM     15  O   UNL     1       2.359   2.704  17.034  0.00  0.00    +0.000 OA
ENDBRANCH  12  13
BRANCH   7  16
ATOM     16  O   UNL     1       5.430   3.992  16.476  0.00  0.00    +0.000 OA
BRANCH  16  18
ATOM     17  C   UNL     1       7.067   4.551  14.806  0.00  0.00    +0.000 C 
ATOM     18  C   UNL     1       5.680   3.997  15.064  0.00  0.00    +0.000 C 
ENDBRANCH  16  18
ENDBRANCH   7  16
ENDBRANCH   3  10
ENDBRANCH   1   5
BRANCH   1  19
ATOM     19  N   UNL     1      -0.129  10.120  18.659  0.00  0.00    +0.000 N 
ATOM     20  H   UNL     1      -0.543   9.302  18.210  0.00  0.00    +0.000 HD
BRANCH  19  21
ATOM     21  C   UNL     1      -1.004  10.908  19.449  0.00  0.00    +0.000 A 
ATOM     22  C   UNL     1      -0.729  11.201  20.781  0.00  0.00    +0.000 A 
ATOM     23  C   UNL     1      -1.548  12.056  21.522  0.00  0.00    +0.000 A 
ATOM     24  C   UNL     1      -2.668  12.659  20.954  0.00  0.00    +0.000 A 
ATOM     25  C   UNL     1      -2.959  12.367  19.614  0.00  0.00    +0.000 A 
ATOM     26  C   UNL     1      -2.123  11.511  18.863  0.00  0.00    +0.000 A 
BRANCH  24  27
ATOM     27  N   UNL     1      -3.486  13.575  21.656  0.00  0.00    +0.000 N 
ATOM     28  C   UNL     1      -4.721  13.310  22.240  0.00  0.00    +0.000 C 
ATOM     29  O   UNL     1      -5.328  12.247  22.158  0.00  0.00    +0.000 OA
ATOM     30  H   UNL     1      -3.133  14.516  21.796  0.00  0.00    +0.000 HD
BRANCH  28  31
ATOM     31  C   UNL     1      -5.276  14.415  23.000  0.00  0.00    +0.000 A 
ATOM     32  C   UNL     1      -4.630  15.420  23.697  0.00  0.00    +0.000 A 
ATOM     33  C   UNL     1      -5.633  16.258  24.231  0.00  0.00    +0.000 A 
ATOM     34  C   UNL     1      -6.832  15.716  23.831  0.00  0.00    +0.000 A 
ATOM     35  O   UNL     1      -6.631  14.596  23.084  0.00  0.00    +0.000 OA
ENDBRANCH  28  31
ENDBRANCH  24  27
ENDBRANCH  19  21
ENDBRANCH   1  19
TORSDOF 9
ENDMDL
MODEL 6
REMARK VINA RESULT:      -7.3      1.213      2.096
REMARK  Name = 
REMARK  10 active torsions:
REMARK  status: ('A' for Active; 'I' for Inactive)
REMARK    1  A    between atoms: C_1  and  C_2
REMARK    2  A    between atoms: C_2  and  O_3
REMARK    3  A    between atoms: O_3  and  C_4
REMARK    4  A    between atoms: C_7  and  C_8
REMARK    5  A    between atoms: N_10  and  C_11
REMARK    6  A    between atoms: C_11  and  N_13
REMARK    7  A    between atoms: N_13  and  C_14
REMARK    8  A    between atoms: C_17  and  N_18
REMARK    9  A    between atoms: C_19  and  C_21
REMARK   10  A    between atoms: C_29  and  N_30
REMARK                            x       y       z     vdW  Elec       q    Type
REMARK                         _______ _______ _______ _____ _____    ______ ____
ROOT
ATOM      1  C   UNL     1       4.150   3.718  17.611  0.00  0.00    +0.000 C 
ATOM      2  S   UNL     1       3.401   2.220  17.541  0.00  0.00    +0.000 S 
ENDROOT
BRANCH   1   5
ATOM      3  C   UNL     1       3.274   5.304  19.314  0.00  0.00    +0.000 C 
ATOM      4  O   UNL     1       3.824   4.786  20.284  0.00  0.00    +0.000 OA
ATOM      5  N   UNL     1       3.358   4.769  18.041  0.00  0.00    +0.000 N 
ATOM      6  H   UNL     1       2.775   5.136  17.304  0.00  0.00    +0.000 HD
BRANCH   3  10
ATOM      7  C   UNL     1       0.929   8.835  20.232  0.00  0.00    +0.000 A 
ATOM      8  C   UNL     1       1.088   7.785  21.135  0.00  0.00    +0.000 A 
ATOM      9  C   UNL     1       1.836   6.656  20.787  0.00  0.00    +0.000 A 
ATOM     10  C   UNL     1       2.425   6.522  19.519  0.00  0.00    +0.000 A 
ATOM     11  C   UNL     1       2.214   7.534  18.575  0.00  0.00    +0.000 A 
ATOM     12  C   UNL     1       1.458   8.669  18.945  0.00  0.00    +0.000 A 
BRANCH  12  13
ATOM     13  N   UNL     1       1.278   9.718  17.957  0.00  0.00    +0.000 N 
ATOM     14  O   UNL     1       0.126   9.935  17.557  0.00  0.00    +0.000 OA
ATOM     15  O   UNL     1       2.304  10.266  17.533  0.00  0.00    +0.000 OA
ENDBRANCH  12  13
BRANCH   7  16
ATOM     16  O   UNL     1       0.313  10.014  20.558  0.00  0.00    +0.000 OA
BRANCH  16  18
ATOM     17  C   UNL     1       1.025  12.310  20.511  0.00  0.00    +0.000 C 
ATOM     18  C   UNL     1       1.141  10.977  21.224  0.00  0.00    +0.000 C 
ENDBRANCH  16  18
ENDBRANCH   7  16
ENDBRANCH   3  10
ENDBRANCH   1   5
BRANCH   1  19
ATOM     19  N   UNL     1       5.461   4.025  17.309  0.00  0.00    +0.000 N 
ATOM     20  H   UNL     1       5.941   3.339  16.725  0.00  0.00    +0.000 HD
BRANCH  19  21
ATOM     21  C   UNL     1       6.238   5.129  17.741  0.00  0.00    +0.000 A 
ATOM     22  C   UNL     1       7.116   5.034  18.816  0.00  0.00    +0.000 A 
ATOM     23  C   UNL     1       7.947   6.099  19.173  0.00  0.00    +0.000 A 
ATOM     24  C   UNL     1       7.937   7.296  18.461  0.00  0.00    +0.000 A 
ATOM     25  C   UNL     1       7.052   7.406  17.380  0.00  0.00    +0.000 A 
ATOM     26  C   UNL     1       6.221   6.324  17.012  0.00  0.00    +0.000 A 
BRANCH  24  27
ATOM     27  N   UNL     1       8.804   8.373  18.758  0.00  0.00    +0.000 N 
ATOM     28  C   UNL     1       8.656   9.697  18.358  0.00  0.00    +0.000 C 
ATOM     29  O   UNL     1       7.779  10.114  17.607  0.00  0.00    +0.000 OA
ATOM     30  H   UNL     1       9.600   8.189  19.360  0.00  0.00    +0.000 HD
BRANCH  28  31
ATOM     31  C   UNL     1       9.639  10.607  18.914  0.00  0.00    +0.000 A 
ATOM     32  C   UNL     1       9.881  10.948  20.234  0.00  0.00    +0.000 A 
ATOM     33  C   UNL     1      10.967  11.850  20.231  0.00  0.00    +0.000 A 
ATOM     34  C   UNL     1      11.323  12.010  18.913  0.00  0.00    +0.000 A 
ATOM     35  O   UNL     1      10.524  11.264  18.102  0.00  0.00    +0.000 OA
ENDBRANCH  28  31
ENDBRANCH  24  27
ENDBRANCH  19  21
ENDBRANCH   1  19
TORSDOF 9
ENDMDL
MODEL 7
REMARK VINA RESULT:      -7.3      3.504      7.965
REMARK  Name = 
REMARK  10 active torsions:
REMARK  status: ('A' for Active; 'I' for Inactive)
REMARK    1  A    between atoms: C_1  and  C_2
REMARK    2  A    between atoms: C_2  and  O_3
REMARK    3  A    between atoms: O_3  and  C_4
REMARK    4  A    between atoms: C_7  and  C_8
REMARK    5  A    between atoms: N_10  and  C_11
REMARK    6  A    between atoms: C_11  and  N_13
REMARK    7  A    between atoms: N_13  and  C_14
REMARK    8  A    between atoms: C_17  and  N_18
REMARK    9  A    between atoms: C_19  and  C_21
REMARK   10  A    between atoms: C_29  and  N_30
REMARK                            x       y       z     vdW  Elec       q    Type
REMARK                         _______ _______ _______ _____ _____    ______ ____
ROOT
ATOM      1  C   UNL     1       1.835   4.907  20.502  0.00  0.00    +0.000 C 
ATOM      2  S   UNL     1       0.892   3.523  20.449  0.00  0.00    +0.000 S 
ENDROOT
BRANCH   1   5
ATOM      3  C   UNL     1       2.920   4.799  18.268  0.00  0.00    +0.000 C 
ATOM      4  O   UNL     1       1.910   4.495  17.637  0.00  0.00    +0.000 OA
ATOM      5  N   UNL     1       2.921   4.930  19.645  0.00  0.00    +0.000 N 
ATOM      6  H   UNL     1       3.796   5.033  20.137  0.00  0.00    +0.000 HD
BRANCH   3  10
ATOM      7  C   UNL     1       6.493   5.274  15.855  0.00  0.00    +0.000 A 
ATOM      8  C   UNL     1       5.467   4.396  15.511  0.00  0.00    +0.000 A 
ATOM      9  C   UNL     1       4.342   4.261  16.331  0.00  0.00    +0.000 A 
ATOM     10  C   UNL     1       4.216   4.972  17.535  0.00  0.00    +0.000 A 
ATOM     11  C   UNL     1       5.270   5.802  17.934  0.00  0.00    +0.000 A 
ATOM     12  C   UNL     1       6.397   5.930  17.091  0.00  0.00    +0.000 A 
BRANCH  12  13
ATOM     13  N   UNL     1       7.465   6.820  17.512  0.00  0.00    +0.000 N 
ATOM     14  O   UNL     1       8.099   6.511  18.530  0.00  0.00    +0.000 OA
ATOM     15  O   UNL     1       7.609   7.863  16.861  0.00  0.00    +0.000 OA
ENDBRANCH  12  13
BRANCH   7  16
ATOM     16  O   UNL     1       7.556   5.539  15.035  0.00  0.00    +0.000 OA
BRANCH  16  18
ATOM     17  C   UNL     1       8.296   5.745  12.757  0.00  0.00    +0.000 C 
ATOM     18  C   UNL     1       7.513   4.908  13.748  0.00  0.00    +0.000 C 
ENDBRANCH  16  18
ENDBRANCH   7  16
ENDBRANCH   3  10
ENDBRANCH   1   5
BRANCH   1  19
ATOM     19  N   UNL     1       1.649   6.029  21.284  0.00  0.00    +0.000 N 
ATOM     20  H   UNL     1       1.806   5.890  22.283  0.00  0.00    +0.000 HD
BRANCH  19  21
ATOM     21  C   UNL     1       1.220   7.323  20.893  0.00  0.00    +0.000 A 
ATOM     22  C   UNL     1       0.231   8.011  21.589  0.00  0.00    +0.000 A 
ATOM     23  C   UNL     1      -0.117   9.322  21.255  0.00  0.00    +0.000 A 
ATOM     24  C   UNL     1       0.521   9.998  20.218  0.00  0.00    +0.000 A 
ATOM     25  C   UNL     1       1.516   9.314  19.505  0.00  0.00    +0.000 A 
ATOM     26  C   UNL     1       1.874   7.992  19.852  0.00  0.00    +0.000 A 
BRANCH  24  27
ATOM     27  N   UNL     1       0.236  11.344  19.889  0.00  0.00    +0.000 N 
ATOM     28  C   UNL     1       0.773  12.479  20.487  0.00  0.00    +0.000 C 
ATOM     29  O   UNL     1       1.522  12.479  21.459  0.00  0.00    +0.000 OA
ATOM     30  H   UNL     1      -0.390  11.519  19.110  0.00  0.00    +0.000 HD
BRANCH  28  31
ATOM     31  C   UNL     1       0.386  13.729  19.860  0.00  0.00    +0.000 A 
ATOM     32  C   UNL     1       0.058  13.991  18.541  0.00  0.00    +0.000 A 
ATOM     33  C   UNL     1      -0.272  15.362  18.466  0.00  0.00    +0.000 A 
ATOM     34  C   UNL     1      -0.125  15.857  19.741  0.00  0.00    +0.000 A 
ATOM     35  O   UNL     1       0.276  14.878  20.597  0.00  0.00    +0.000 OA
ENDBRANCH  28  31
ENDBRANCH  24  27
ENDBRANCH  19  21
ENDBRANCH   1  19
TORSDOF 9
ENDMDL
MODEL 8
REMARK VINA RESULT:      -7.3      1.292      2.167
REMARK  Name = 
REMARK  10 active torsions:
REMARK  status: ('A' for Active; 'I' for Inactive)
REMARK    1  A    between atoms: C_1  and  C_2
REMARK    2  A    between atoms: C_2  and  O_3
REMARK    3  A    between atoms: O_3  and  C_4
REMARK    4  A    between atoms: C_7  and  C_8
REMARK    5  A    between atoms: N_10  and  C_11
REMARK    6  A    between atoms: C_11  and  N_13
REMARK    7  A    between atoms: N_13  and  C_14
REMARK    8  A    between atoms: C_17  and  N_18
REMARK    9  A    between atoms: C_19  and  C_21
REMARK   10  A    between atoms: C_29  and  N_30
REMARK                            x       y       z     vdW  Elec       q    Type
REMARK                         _______ _______ _______ _____ _____    ______ ____
ROOT
ATOM      1  C   UNL     1       4.022   3.694  17.721  0.00  0.00    +0.000 C 
ATOM      2  S   UNL     1       3.208   2.232  17.618  0.00  0.00    +0.000 S 
ENDROOT
BRANCH   1   5
ATOM      3  C   UNL     1       3.154   5.258  19.447  0.00  0.00    +0.000 C 
ATOM      4  O   UNL     1       3.620   4.667  20.418  0.00  0.00    +0.000 OA
ATOM      5  N   UNL     1       3.273   4.772  18.157  0.00  0.00    +0.000 N 
ATOM      6  H   UNL     1       2.753   5.205  17.408  0.00  0.00    +0.000 HD
BRANCH   3  10
ATOM      7  C   UNL     1       0.985   8.891  20.401  0.00  0.00    +0.000 A 
ATOM      8  C   UNL     1       1.050   7.806  21.273  0.00  0.00    +0.000 A 
ATOM      9  C   UNL     1       1.744   6.646  20.913  0.00  0.00    +0.000 A 
ATOM     10  C   UNL     1       2.370   6.518  19.663  0.00  0.00    +0.000 A 
ATOM     11  C   UNL     1       2.252   7.569  18.746  0.00  0.00    +0.000 A 
ATOM     12  C   UNL     1       1.550   8.735  19.128  0.00  0.00    +0.000 A 
BRANCH  12  13
ATOM     13  N   UNL     1       1.467   9.823  18.170  0.00  0.00    +0.000 N 
ATOM     14  O   UNL     1       2.466  10.542  18.032  0.00  0.00    +0.000 OA
ATOM     15  O   UNL     1       0.372   9.996  17.619  0.00  0.00    +0.000 OA
ENDBRANCH  12  13
BRANCH   7  16
ATOM     16  O   UNL     1       0.427  10.093  20.745  0.00  0.00    +0.000 OA
BRANCH  16  18
ATOM     17  C   UNL     1      -0.387  10.159  23.006  0.00  0.00    +0.000 C 
ATOM     18  C   UNL     1      -0.761  10.014  21.545  0.00  0.00    +0.000 C 
ENDBRANCH  16  18
ENDBRANCH   7  16
ENDBRANCH   3  10
ENDBRANCH   1   5
BRANCH   1  19
ATOM     19  N   UNL     1       5.350   3.945  17.439  0.00  0.00    +0.000 N 
ATOM     20  H   UNL     1       5.827   3.209  16.917  0.00  0.00    +0.000 HD
BRANCH  19  21
ATOM     21  C   UNL     1       6.145   5.055  17.822  0.00  0.00    +0.000 A 
ATOM     22  C   UNL     1       6.874   5.063  19.007  0.00  0.00    +0.000 A 
ATOM     23  C   UNL     1       7.728   6.120  19.328  0.00  0.00    +0.000 A 
ATOM     24  C   UNL     1       7.894   7.204  18.470  0.00  0.00    +0.000 A 
ATOM     25  C   UNL     1       7.160   7.210  17.275  0.00  0.00    +0.000 A 
ATOM     26  C   UNL     1       6.305   6.135  16.946  0.00  0.00    +0.000 A 
BRANCH  24  27
ATOM     27  N   UNL     1       8.793   8.263  18.735  0.00  0.00    +0.000 N 
ATOM     28  C   UNL     1       8.615   9.606  18.418  0.00  0.00    +0.000 C 
ATOM     29  O   UNL     1       7.674  10.062  17.777  0.00  0.00    +0.000 OA
ATOM     30  H   UNL     1       9.642   8.047  19.247  0.00  0.00    +0.000 HD
BRANCH  28  31
ATOM     31  C   UNL     1       9.654  10.485  18.921  0.00  0.00    +0.000 A 
ATOM     32  C   UNL     1      10.661  11.145  18.239  0.00  0.00    +0.000 A 
ATOM     33  C   UNL     1      11.380  11.895  19.194  0.00  0.00    +0.000 A 
ATOM     34  C   UNL     1      10.773  11.650  20.404  0.00  0.00    +0.000 A 
ATOM     35  O   UNL     1       9.725  10.794  20.253  0.00  0.00    +0.000 OA
ENDBRANCH  28  31
ENDBRANCH  24  27
ENDBRANCH  19  21
ENDBRANCH   1  19
TORSDOF 9
ENDMDL
MODEL 9
REMARK VINA RESULT:      -7.3      4.229      9.735
REMARK  Name = 
REMARK  10 active torsions:
REMARK  status: ('A' for Active; 'I' for Inactive)
REMARK    1  A    between atoms: C_1  and  C_2
REMARK    2  A    between atoms: C_2  and  O_3
REMARK    3  A    between atoms: O_3  and  C_4
REMARK    4  A    between atoms: C_7  and  C_8
REMARK    5  A    between atoms: N_10  and  C_11
REMARK    6  A    between atoms: C_11  and  N_13
REMARK    7  A    between atoms: N_13  and  C_14
REMARK    8  A    between atoms: C_17  and  N_18
REMARK    9  A    between atoms: C_19  and  C_21
REMARK   10  A    between atoms: C_29  and  N_30
REMARK                            x       y       z     vdW  Elec       q    Type
REMARK                         _______ _______ _______ _____ _____    ______ ____
ROOT
ATOM      1  C   UNL     1       1.459   8.764  19.156  0.00  0.00    +0.000 C 
ATOM      2  S   UNL     1       0.522   9.479  17.964  0.00  0.00    +0.000 S 
ENDROOT
BRANCH   1   5
ATOM      3  C   UNL     1       2.582   6.549  19.043  0.00  0.00    +0.000 C 
ATOM      4  O   UNL     1       1.911   6.007  19.919  0.00  0.00    +0.000 OA
ATOM      5  N   UNL     1       2.431   7.884  18.713  0.00  0.00    +0.000 N 
ATOM      6  H   UNL     1       3.097   8.326  18.097  0.00  0.00    +0.000 HD
BRANCH   3  10
ATOM      7  C   UNL     1       5.461   4.252  16.752  0.00  0.00    +0.000 A 
ATOM      8  C   UNL     1       4.090   4.005  16.697  0.00  0.00    +0.000 A 
ATOM      9  C   UNL     1       3.201   4.758  17.470  0.00  0.00    +0.000 A 
ATOM     10  C   UNL     1       3.649   5.760  18.345  0.00  0.00    +0.000 A 
ATOM     11  C   UNL     1       5.027   5.972  18.469  0.00  0.00    +0.000 A 
ATOM     12  C   UNL     1       5.911   5.204  17.677  0.00  0.00    +0.000 A 
BRANCH  12  13
ATOM     13  N   UNL     1       7.335   5.462  17.801  0.00  0.00    +0.000 N 
ATOM     14  O   UNL     1       7.981   4.743  18.575  0.00  0.00    +0.000 OA
ATOM     15  O   UNL     1       7.781   6.435  17.178  0.00  0.00    +0.000 OA
ENDBRANCH  12  13
BRANCH   7  16
ATOM     16  O   UNL     1       6.365   3.633  15.931  0.00  0.00    +0.000 OA
BRANCH  16  18
ATOM     17  C   UNL     1       5.956   3.642  13.562  0.00  0.00    +0.000 C 
ATOM     18  C   UNL     1       6.666   4.327  14.713  0.00  0.00    +0.000 C 
ENDBRANCH  16  18
ENDBRANCH   7  16
ENDBRANCH   3  10
ENDBRANCH   1   5
BRANCH   1  19
ATOM     19  N   UNL     1       1.389   8.961  20.520  0.00  0.00    +0.000 N 
ATOM     20  H   UNL     1       1.870   8.258  21.083  0.00  0.00    +0.000 HD
BRANCH  19  21
ATOM     21  C   UNL     1       0.697   9.969  21.239  0.00  0.00    +0.000 A 
ATOM     22  C   UNL     1       0.695  11.296  20.824  0.00  0.00    +0.000 A 
ATOM     23  C   UNL     1      -0.067  12.264  21.483  0.00  0.00    +0.000 A 
ATOM     24  C   UNL     1      -0.865  11.936  22.577  0.00  0.00    +0.000 A 
ATOM     25  C   UNL     1      -0.866  10.602  23.009  0.00  0.00    +0.000 A 
ATOM     26  C   UNL     1      -0.104   9.622  22.334  0.00  0.00    +0.000 A 
BRANCH  24  27
ATOM     27  N   UNL     1      -1.693  12.876  23.234  0.00  0.00    +0.000 N 
ATOM     28  C   UNL     1      -1.357  14.179  23.586  0.00  0.00    +0.000 C 
ATOM     29  O   UNL     1      -0.247  14.684  23.450  0.00  0.00    +0.000 OA
ATOM     30  H   UNL     1      -2.648  12.604  23.439  0.00  0.00    +0.000 HD
BRANCH  28  31
ATOM     31  C   UNL     1      -2.451  14.953  24.142  0.00  0.00    +0.000 A 
ATOM     32  C   UNL     1      -2.449  15.861  25.186  0.00  0.00    +0.000 A 
ATOM     33  C   UNL     1      -3.767  16.354  25.302  0.00  0.00    +0.000 A 
ATOM     34  C   UNL     1      -4.497  15.718  24.325  0.00  0.00    +0.000 A 
ATOM     35  O   UNL     1      -3.711  14.863  23.615  0.00  0.00    +0.000 OA
ENDBRANCH  28  31
ENDBRANCH  24  27
ENDBRANCH  19  21
ENDBRANCH   1  19
TORSDOF 9
ENDMDL
