MODEL 1
REMARK VINA RESULT:      -7.6      0.000      0.000
REMARK  Name = 
REMARK  8 active torsions:
REMARK  status: ('A' for Active; 'I' for Inactive)
REMARK    1  A    between atoms: N_10  and  C_11
REMARK    2  A    between atoms: C_11  and  C_12
REMARK    3  A    between atoms: C_12  and  C_13
REMARK    4  A    between atoms: C_13  and  C_14
REMARK    5  A    between atoms: C_14  and  C_15
REMARK    6  A    between atoms: C_15  and  C_16
REMARK    7  A    between atoms: C_16  and  N_17
REMARK    8  A    between atoms: N_20  and  C_21
REMARK                            x       y       z     vdW  Elec       q    Type
REMARK                         _______ _______ _______ _____ _____    ______ ____
ROOT
ATOM      1  C   UNL     1       8.679   8.373  18.585  0.00  0.00    +0.000 C 
ENDROOT
BRANCH   1   2
ATOM      2  C   UNL     1       8.948   9.756  19.180  0.00  0.00    +0.000 C 
BRANCH   2   3
ATOM      3  C   UNL     1       9.191  10.755  18.043  0.00  0.00    +0.000 C 
BRANCH   3   4
ATOM      4  C   UNL     1      10.619  11.298  18.004  0.00  0.00    +0.000 C 
BRANCH   4  14
ATOM      5  O   UNL     1      11.351  13.499  16.224  0.00  0.00    +0.000 OA
ATOM      6  C   UNL     1      11.038  13.691  17.396  0.00  0.00    +0.000 A 
ATOM      7  O   UNL     1      11.003  14.961  17.975  0.00  0.00    +0.000 OA
ATOM      8  C   UNL     1      10.622  14.681  19.274  0.00  0.00    +0.000 A 
ATOM      9  C   UNL     1      10.437  15.632  20.258  0.00  0.00    +0.000 A 
ATOM     10  C   UNL     1      10.051  15.185  21.522  0.00  0.00    +0.000 A 
ATOM     11  C   UNL     1       9.863  13.809  21.762  0.00  0.00    +0.000 A 
ATOM     12  C   UNL     1      10.051  12.860  20.744  0.00  0.00    +0.000 A 
ATOM     13  C   UNL     1      10.428  13.331  19.507  0.00  0.00    +0.000 A 
ATOM     14  N   UNL     1      10.678  12.706  18.302  0.00  0.00    +0.000 N 
ENDBRANCH   4  14
ENDBRANCH   3   4
ENDBRANCH   2   3
ENDBRANCH   1   2
BRANCH   1  15
ATOM     15  C   UNL     1       7.547   8.364  17.554  0.00  0.00    +0.000 C 
BRANCH  15  16
ATOM     16  C   UNL     1       7.445   6.956  16.962  0.00  0.00    +0.000 C 
BRANCH  16  17
ATOM     17  N   UNL     1       6.205   6.230  17.148  0.00  0.00    +0.000 NA
ATOM     18  C   UNL     1       5.044   6.998  17.627  0.00  0.00    +0.000 C 
ATOM     19  C   UNL     1       3.736   6.179  17.426  0.00  0.00    +0.000 C 
ATOM     20  N   UNL     1       3.874   4.826  18.002  0.00  0.00    +0.000 N 
ATOM     21  C   UNL     1       5.105   4.111  17.636  0.00  0.00    +0.000 C 
ATOM     22  C   UNL     1       6.329   4.994  17.932  0.00  0.00    +0.000 C 
BRANCH  20  23
ATOM     23  C   UNL     1       2.934   4.281  18.844  0.00  0.00    +0.000 A 
ATOM     24  C   UNL     1       1.937   3.415  18.374  0.00  0.00    +0.000 A 
ATOM     25  C   UNL     1       0.955   2.897  19.222  0.00  0.00    +0.000 A 
ATOM     26  C   UNL     1       0.949   3.235  20.570  0.00  0.00    +0.000 A 
ATOM     27  C   UNL     1       1.939   4.071  21.073  0.00  0.00    +0.000 A 
ATOM     28  C   UNL     1       2.916   4.582  20.216  0.00  0.00    +0.000 A 
ENDBRANCH  20  23
ENDBRANCH  16  17
ENDBRANCH  15  16
ENDBRANCH   1  15
TORSDOF 8
ENDMDL
MODEL 2
REMARK VINA RESULT:      -7.5      6.201      9.521
REMARK  Name = 
REMARK  8 active torsions:
REMARK  status: ('A' for Active; 'I' for Inactive)
REMARK    1  A    between atoms: N_10  and  C_11
REMARK    2  A    between atoms: C_11  and  C_12
REMARK    3  A    between atoms: C_12  and  C_13
REMARK    4  A    between atoms: C_13  and  C_14
REMARK    5  A    between atoms: C_14  and  C_15
REMARK    6  A    between atoms: C_15  and  C_16
REMARK    7  A    between atoms: C_16  and  N_17
REMARK    8  A    between atoms: N_20  and  C_21
REMARK                            x       y       z     vdW  Elec       q    Type
REMARK                         _______ _______ _______ _____ _____    ______ ____
ROOT
ATOM      1  C   UNL     1       0.849   4.656  19.769  0.00  0.00    +0.000 C 
ENDROOT
BRANCH   1   2
ATOM      2  C   UNL     1       1.222   3.988  18.445  0.00  0.00    +0.000 C 
BRANCH   2   3
ATOM      3  C   UNL     1       1.822   2.606  18.728  0.00  0.00    +0.000 C 
BRANCH   3   4
ATOM      4  C   UNL     1       3.086   2.314  17.920  0.00  0.00    +0.000 C 
BRANCH   4  14
ATOM      5  O   UNL     1       4.610   2.319  20.416  0.00  0.00    +0.000 OA
ATOM      6  C   UNL     1       4.855   3.106  19.506  0.00  0.00    +0.000 A 
ATOM      7  O   UNL     1       5.872   4.061  19.581  0.00  0.00    +0.000 OA
ATOM      8  C   UNL     1       5.759   4.706  18.364  0.00  0.00    +0.000 A 
ATOM      9  C   UNL     1       6.568   5.746  17.951  0.00  0.00    +0.000 A 
ATOM     10  C   UNL     1       6.324   6.290  16.689  0.00  0.00    +0.000 A 
ATOM     11  C   UNL     1       5.285   5.781  15.884  0.00  0.00    +0.000 A 
ATOM     12  C   UNL     1       4.480   4.718  16.323  0.00  0.00    +0.000 A 
ATOM     13  C   UNL     1       4.745   4.199  17.569  0.00  0.00    +0.000 A 
ATOM     14  N   UNL     1       4.184   3.168  18.295  0.00  0.00    +0.000 N 
ENDBRANCH   4  14
ENDBRANCH   3   4
ENDBRANCH   2   3
ENDBRANCH   1   2
BRANCH   1  15
ATOM     15  C   UNL     1       2.057   4.961  20.658  0.00  0.00    +0.000 C 
BRANCH  15  16
ATOM     16  C   UNL     1       2.817   6.142  20.053  0.00  0.00    +0.000 C 
BRANCH  16  17
ATOM     17  N   UNL     1       2.055   7.309  19.656  0.00  0.00    +0.000 NA
ATOM     18  C   UNL     1       2.490   8.013  18.439  0.00  0.00    +0.000 C 
ATOM     19  C   UNL     1       1.381   8.991  17.956  0.00  0.00    +0.000 C 
ATOM     20  N   UNL     1       0.939   9.865  19.062  0.00  0.00    +0.000 N 
ATOM     21  C   UNL     1       0.638   9.176  20.324  0.00  0.00    +0.000 C 
ATOM     22  C   UNL     1       1.826   8.286  20.729  0.00  0.00    +0.000 C 
BRANCH  20  23
ATOM     23  C   UNL     1       0.842  11.230  18.932  0.00  0.00    +0.000 A 
ATOM     24  C   UNL     1      -0.361  11.909  19.170  0.00  0.00    +0.000 A 
ATOM     25  C   UNL     1      -0.471  13.291  18.994  0.00  0.00    +0.000 A 
ATOM     26  C   UNL     1       0.629  14.031  18.577  0.00  0.00    +0.000 A 
ATOM     27  C   UNL     1       1.843  13.391  18.357  0.00  0.00    +0.000 A 
ATOM     28  C   UNL     1       1.941  12.010  18.536  0.00  0.00    +0.000 A 
ENDBRANCH  20  23
ENDBRANCH  16  17
ENDBRANCH  15  16
ENDBRANCH   1  15
TORSDOF 8
ENDMDL
MODEL 3
REMARK VINA RESULT:      -7.4      3.494     10.945
REMARK  Name = 
REMARK  8 active torsions:
REMARK  status: ('A' for Active; 'I' for Inactive)
REMARK    1  A    between atoms: N_10  and  C_11
REMARK    2  A    between atoms: C_11  and  C_12
REMARK    3  A    between atoms: C_12  and  C_13
REMARK    4  A    between atoms: C_13  and  C_14
REMARK    5  A    between atoms: C_14  and  C_15
REMARK    6  A    between atoms: C_15  and  C_16
REMARK    7  A    between atoms: C_16  and  N_17
REMARK    8  A    between atoms: N_20  and  C_21
REMARK                            x       y       z     vdW  Elec       q    Type
REMARK                         _______ _______ _______ _____ _____    ______ ____
ROOT
ATOM      1  C   UNL     1       7.553   6.841  17.342  0.00  0.00    +0.000 C 
ENDROOT
BRANCH   1   2
ATOM      2  C   UNL     1       7.720   6.152  18.697  0.00  0.00    +0.000 C 
BRANCH   2   3
ATOM      3  C   UNL     1       6.460   5.335  19.006  0.00  0.00    +0.000 C 
BRANCH   3   4
ATOM      4  C   UNL     1       5.186   5.932  18.409  0.00  0.00    +0.000 C 
BRANCH   4  14
ATOM      5  O   UNL     1       4.887   4.149  16.111  0.00  0.00    +0.000 OA
ATOM      6  C   UNL     1       4.100   4.128  17.053  0.00  0.00    +0.000 A 
ATOM      7  O   UNL     1       3.006   3.261  17.111  0.00  0.00    +0.000 OA
ATOM      8  C   UNL     1       2.421   3.607  18.315  0.00  0.00    +0.000 A 
ATOM      9  C   UNL     1       1.287   3.012  18.834  0.00  0.00    +0.000 A 
ATOM     10  C   UNL     1       0.822   3.477  20.064  0.00  0.00    +0.000 A 
ATOM     11  C   UNL     1       1.499   4.516  20.734  0.00  0.00    +0.000 A 
ATOM     12  C   UNL     1       2.654   5.100  20.191  0.00  0.00    +0.000 A 
ATOM     13  C   UNL     1       3.092   4.620  18.978  0.00  0.00    +0.000 A 
ATOM     14  N   UNL     1       4.171   4.936  18.177  0.00  0.00    +0.000 N 
ENDBRANCH   4  14
ENDBRANCH   3   4
ENDBRANCH   2   3
ENDBRANCH   1   2
BRANCH   1  15
ATOM     15  C   UNL     1       7.824   8.347  17.388  0.00  0.00    +0.000 C 
BRANCH  15  16
ATOM     16  C   UNL     1       8.513   8.674  18.715  0.00  0.00    +0.000 C 
BRANCH  16  17
ATOM     17  N   UNL     1       9.179   9.955  18.837  0.00  0.00    +0.000 NA
ATOM     18  C   UNL     1       9.349  10.496  20.195  0.00  0.00    +0.000 C 
ATOM     19  C   UNL     1      10.379  11.662  20.187  0.00  0.00    +0.000 C 
ATOM     20  N   UNL     1      10.030  12.658  19.153  0.00  0.00    +0.000 N 
ATOM     21  C   UNL     1       9.722  12.105  17.827  0.00  0.00    +0.000 C 
ATOM     22  C   UNL     1       8.653  11.006  17.955  0.00  0.00    +0.000 C 
BRANCH  20  23
ATOM     23  C   UNL     1       9.969  14.006  19.416  0.00  0.00    +0.000 A 
ATOM     24  C   UNL     1       9.129  14.525  20.411  0.00  0.00    +0.000 A 
ATOM     25  C   UNL     1       9.033  15.898  20.648  0.00  0.00    +0.000 A 
ATOM     26  C   UNL     1       9.782  16.791  19.891  0.00  0.00    +0.000 A 
ATOM     27  C   UNL     1      10.643  16.307  18.913  0.00  0.00    +0.000 A 
ATOM     28  C   UNL     1      10.731  14.933  18.685  0.00  0.00    +0.000 A 
ENDBRANCH  20  23
ENDBRANCH  16  17
ENDBRANCH  15  16
ENDBRANCH   1  15
TORSDOF 8
ENDMDL
MODEL 4
REMARK VINA RESULT:      -7.4      6.658      9.829
REMARK  Name = 
REMARK  8 active torsions:
REMARK  status: ('A' for Active; 'I' for Inactive)
REMARK    1  A    between atoms: N_10  and  C_11
REMARK    2  A    between atoms: C_11  and  C_12
REMARK    3  A    between atoms: C_12  and  C_13
REMARK    4  A    between atoms: C_13  and  C_14
REMARK    5  A    between atoms: C_14  and  C_15
REMARK    6  A    between atoms: C_15  and  C_16
REMARK    7  A    between atoms: C_16  and  N_17
REMARK    8  A    between atoms: N_20  and  C_21
REMARK                            x       y       z     vdW  Elec       q    Type
REMARK                         _______ _______ _______ _____ _____    ______ ____
ROOT
ATOM      1  C   UNL     1       2.128   6.249  17.808  0.00  0.00    +0.000 C 
ENDROOT
BRANCH   1   2
ATOM      2  C   UNL     1       1.776   4.954  18.540  0.00  0.00    +0.000 C 
BRANCH   2   3
ATOM      3  C   UNL     1       1.686   3.808  17.525  0.00  0.00    +0.000 C 
BRANCH   3   4
ATOM      4  C   UNL     1       2.784   2.759  17.692  0.00  0.00    +0.000 C 
BRANCH   4  14
ATOM      5  O   UNL     1       4.083   2.688  20.312  0.00  0.00    +0.000 OA
ATOM      6  C   UNL     1       4.590   3.264  19.353  0.00  0.00    +0.000 A 
ATOM      7  O   UNL     1       5.818   3.926  19.427  0.00  0.00    +0.000 OA
ATOM      8  C   UNL     1       5.964   4.417  18.143  0.00  0.00    +0.000 A 
ATOM      9  C   UNL     1       7.047   5.153  17.705  0.00  0.00    +0.000 A 
ATOM     10  C   UNL     1       7.043   5.576  16.375  0.00  0.00    +0.000 A 
ATOM     11  C   UNL     1       5.962   5.254  15.530  0.00  0.00    +0.000 A 
ATOM     12  C   UNL     1       4.874   4.499  15.996  0.00  0.00    +0.000 A 
ATOM     13  C   UNL     1       4.907   4.092  17.310  0.00  0.00    +0.000 A 
ATOM     14  N   UNL     1       4.043   3.342  18.082  0.00  0.00    +0.000 N 
ENDBRANCH   4  14
ENDBRANCH   3   4
ENDBRANCH   2   3
ENDBRANCH   1   2
BRANCH   1  15
ATOM     15  C   UNL     1       2.706   7.329  18.725  0.00  0.00    +0.000 C 
BRANCH  15  16
ATOM     16  C   UNL     1       2.036   7.207  20.096  0.00  0.00    +0.000 C 
BRANCH  16  17
ATOM     17  N   UNL     1       1.459   8.402  20.678  0.00  0.00    +0.000 NA
ATOM     18  C   UNL     1       0.469   8.214  21.751  0.00  0.00    +0.000 C 
ATOM     19  C   UNL     1       0.228   9.555  22.503  0.00  0.00    +0.000 C 
ATOM     20  N   UNL     1      -0.079  10.640  21.549  0.00  0.00    +0.000 N 
ATOM     21  C   UNL     1       0.830  10.740  20.398  0.00  0.00    +0.000 C 
ATOM     22  C   UNL     1       0.944   9.372  19.703  0.00  0.00    +0.000 C 
BRANCH  20  23
ATOM     23  C   UNL     1      -1.155  11.481  21.707  0.00  0.00    +0.000 A 
ATOM     24  C   UNL     1      -1.746  12.134  20.616  0.00  0.00    +0.000 A 
ATOM     25  C   UNL     1      -2.810  13.024  20.782  0.00  0.00    +0.000 A 
ATOM     26  C   UNL     1      -3.313  13.281  22.051  0.00  0.00    +0.000 A 
ATOM     27  C   UNL     1      -2.766  12.630  23.151  0.00  0.00    +0.000 A 
ATOM     28  C   UNL     1      -1.703  11.743  22.973  0.00  0.00    +0.000 A 
ENDBRANCH  20  23
ENDBRANCH  16  17
ENDBRANCH  15  16
ENDBRANCH   1  15
TORSDOF 8
ENDMDL
MODEL 5
REMARK VINA RESULT:      -7.4      7.573     11.046
REMARK  Name = 
REMARK  8 active torsions:
REMARK  status: ('A' for Active; 'I' for Inactive)
REMARK    1  A    between atoms: N_10  and  C_11
REMARK    2  A    between atoms: C_11  and  C_12
REMARK    3  A    between atoms: C_12  and  C_13
REMARK    4  A    between atoms: C_13  and  C_14
REMARK    5  A    between atoms: C_14  and  C_15
REMARK    6  A    between atoms: C_15  and  C_16
REMARK    7  A    between atoms: C_16  and  N_17
REMARK    8  A    between atoms: N_20  and  C_21
REMARK                            x       y       z     vdW  Elec       q    Type
REMARK                         _______ _______ _______ _____ _____    ______ ____
ROOT
ATOM      1  C   UNL     1       2.263   8.974  17.856  0.00  0.00    +0.000 C 
ENDROOT
BRANCH   1   2
ATOM      2  C   UNL     1       2.255   7.453  17.693  0.00  0.00    +0.000 C 
BRANCH   2   3
ATOM      3  C   UNL     1       3.687   6.924  17.822  0.00  0.00    +0.000 C 
BRANCH   3   4
ATOM      4  C   UNL     1       3.845   5.475  17.360  0.00  0.00    +0.000 C 
BRANCH   4  14
ATOM      5  O   UNL     1       6.237   4.177  18.429  0.00  0.00    +0.000 OA
ATOM      6  C   UNL     1       5.124   3.981  18.910  0.00  0.00    +0.000 A 
ATOM      7  O   UNL     1       4.905   3.132  19.997  0.00  0.00    +0.000 OA
ATOM      8  C   UNL     1       3.535   3.217  20.164  0.00  0.00    +0.000 A 
ATOM      9  C   UNL     1       2.823   2.548  21.140  0.00  0.00    +0.000 A 
ATOM     10  C   UNL     1       1.441   2.741  21.175  0.00  0.00    +0.000 A 
ATOM     11  C   UNL     1       0.818   3.590  20.238  0.00  0.00    +0.000 A 
ATOM     12  C   UNL     1       1.564   4.265  19.259  0.00  0.00    +0.000 A 
ATOM     13  C   UNL     1       2.925   4.058  19.250  0.00  0.00    +0.000 A 
ATOM     14  N   UNL     1       3.944   4.556  18.465  0.00  0.00    +0.000 N 
ENDBRANCH   4  14
ENDBRANCH   3   4
ENDBRANCH   2   3
ENDBRANCH   1   2
BRANCH   1  15
ATOM     15  C   UNL     1       1.335   9.472  18.966  0.00  0.00    +0.000 C 
BRANCH  15  16
ATOM     16  C   UNL     1       0.632  10.739  18.475  0.00  0.00    +0.000 C 
BRANCH  16  17
ATOM     17  N   UNL     1      -0.798  10.847  18.685  0.00  0.00    +0.000 NA
ATOM     18  C   UNL     1      -1.672  10.341  17.614  0.00  0.00    +0.000 C 
ATOM     19  C   UNL     1      -3.131  10.192  18.135  0.00  0.00    +0.000 C 
ATOM     20  N   UNL     1      -3.585  11.442  18.779  0.00  0.00    +0.000 N 
ATOM     21  C   UNL     1      -2.647  12.025  19.748  0.00  0.00    +0.000 C 
ATOM     22  C   UNL     1      -1.259  12.177  19.104  0.00  0.00    +0.000 C 
BRANCH  20  23
ATOM     23  C   UNL     1      -4.787  12.036  18.474  0.00  0.00    +0.000 A 
ATOM     24  C   UNL     1      -5.599  12.606  19.464  0.00  0.00    +0.000 A 
ATOM     25  C   UNL     1      -6.841  13.170  19.161  0.00  0.00    +0.000 A 
ATOM     26  C   UNL     1      -7.300  13.179  17.849  0.00  0.00    +0.000 A 
ATOM     27  C   UNL     1      -6.508  12.646  16.840  0.00  0.00    +0.000 A 
ATOM     28  C   UNL     1      -5.269  12.085  17.155  0.00  0.00    +0.000 A 
ENDBRANCH  20  23
ENDBRANCH  16  17
ENDBRANCH  15  16
ENDBRANCH   1  15
TORSDOF 8
ENDMDL
MODEL 6
REMARK VINA RESULT:      -7.4      7.520     10.325
REMARK  Name = 
REMARK  8 active torsions:
REMARK  status: ('A' for Active; 'I' for Inactive)
REMARK    1  A    between atoms: N_10  and  C_11
REMARK    2  A    between atoms: C_11  and  C_12
REMARK    3  A    between atoms: C_12  and  C_13
REMARK    4  A    between atoms: C_13  and  C_14
REMARK    5  A    between atoms: C_14  and  C_15
REMARK    6  A    between atoms: C_15  and  C_16
REMARK    7  A    between atoms: C_16  and  N_17
REMARK    8  A    between atoms: N_20  and  C_21
REMARK                            x       y       z     vdW  Elec       q    Type
REMARK                         _______ _______ _______ _____ _____    ______ ____
ROOT
ATOM      1  C   UNL     1       2.045   8.929  18.031  0.00  0.00    +0.000 C 
ENDROOT
BRANCH   1   2
ATOM      2  C   UNL     1       2.239   7.413  18.005  0.00  0.00    +0.000 C 
BRANCH   2   3
ATOM      3  C   UNL     1       2.520   6.916  19.428  0.00  0.00    +0.000 C 
BRANCH   3   4
ATOM      4  C   UNL     1       2.625   5.394  19.531  0.00  0.00    +0.000 C 
BRANCH   4  14
ATOM      5  O   UNL     1       1.884   3.691  17.273  0.00  0.00    +0.000 OA
ATOM      6  C   UNL     1       3.047   4.031  17.473  0.00  0.00    +0.000 A 
ATOM      7  O   UNL     1       4.105   3.641  16.650  0.00  0.00    +0.000 OA
ATOM      8  C   UNL     1       5.191   4.236  17.265  0.00  0.00    +0.000 A 
ATOM      9  C   UNL     1       6.492   4.148  16.812  0.00  0.00    +0.000 A 
ATOM     10  C   UNL     1       7.476   4.809  17.549  0.00  0.00    +0.000 A 
ATOM     11  C   UNL     1       7.131   5.532  18.708  0.00  0.00    +0.000 A 
ATOM     12  C   UNL     1       5.799   5.613  19.145  0.00  0.00    +0.000 A 
ATOM     13  C   UNL     1       4.850   4.955  18.398  0.00  0.00    +0.000 A 
ATOM     14  N   UNL     1       3.480   4.835  18.516  0.00  0.00    +0.000 N 
ENDBRANCH   4  14
ENDBRANCH   3   4
ENDBRANCH   2   3
ENDBRANCH   1   2
BRANCH   1  15
ATOM     15  C   UNL     1       1.111   9.404  19.147  0.00  0.00    +0.000 C 
BRANCH  15  16
ATOM     16  C   UNL     1       0.934  10.919  19.017  0.00  0.00    +0.000 C 
BRANCH  16  17
ATOM     17  N   UNL     1      -0.415  11.440  18.939  0.00  0.00    +0.000 NA
ATOM     18  C   UNL     1      -1.084  11.762  20.210  0.00  0.00    +0.000 C 
ATOM     19  C   UNL     1      -2.347  12.633  19.950  0.00  0.00    +0.000 C 
ATOM     20  N   UNL     1      -3.211  12.006  18.928  0.00  0.00    +0.000 N 
ATOM     21  C   UNL     1      -2.518  11.555  17.713  0.00  0.00    +0.000 C 
ATOM     22  C   UNL     1      -1.328  10.659  18.093  0.00  0.00    +0.000 C 
BRANCH  20  23
ATOM     23  C   UNL     1      -4.562  11.830  19.109  0.00  0.00    +0.000 A 
ATOM     24  C   UNL     1      -5.342  11.117  18.187  0.00  0.00    +0.000 A 
ATOM     25  C   UNL     1      -6.722  10.976  18.348  0.00  0.00    +0.000 A 
ATOM     26  C   UNL     1      -7.359  11.547  19.444  0.00  0.00    +0.000 A 
ATOM     27  C   UNL     1      -6.611  12.237  20.389  0.00  0.00    +0.000 A 
ATOM     28  C   UNL     1      -5.231  12.372  20.218  0.00  0.00    +0.000 A 
ENDBRANCH  20  23
ENDBRANCH  16  17
ENDBRANCH  15  16
ENDBRANCH   1  15
TORSDOF 8
ENDMDL
MODEL 7
REMARK VINA RESULT:      -7.3      7.381     10.871
REMARK  Name = 
REMARK  8 active torsions:
REMARK  status: ('A' for Active; 'I' for Inactive)
REMARK    1  A    between atoms: N_10  and  C_11
REMARK    2  A    between atoms: C_11  and  C_12
REMARK    3  A    between atoms: C_12  and  C_13
REMARK    4  A    between atoms: C_13  and  C_14
REMARK    5  A    between atoms: C_14  and  C_15
REMARK    6  A    between atoms: C_15  and  C_16
REMARK    7  A    between atoms: C_16  and  N_17
REMARK    8  A    between atoms: N_20  and  C_21
REMARK                            x       y       z     vdW  Elec       q    Type
REMARK                         _______ _______ _______ _____ _____    ______ ____
ROOT
ATOM      1  C   UNL     1       1.487   8.293  18.422  0.00  0.00    +0.000 C 
ENDROOT
BRANCH   1   2
ATOM      2  C   UNL     1       2.632   8.070  17.433  0.00  0.00    +0.000 C 
BRANCH   2   3
ATOM      3  C   UNL     1       3.742   7.265  18.119  0.00  0.00    +0.000 C 
BRANCH   3   4
ATOM      4  C   UNL     1       3.967   5.887  17.498  0.00  0.00    +0.000 C 
BRANCH   4  14
ATOM      5  O   UNL     1       6.272   4.287  18.321  0.00  0.00    +0.000 OA
ATOM      6  C   UNL     1       5.162   4.128  18.820  0.00  0.00    +0.000 A 
ATOM      7  O   UNL     1       4.905   3.181  19.814  0.00  0.00    +0.000 OA
ATOM      8  C   UNL     1       3.553   3.355  20.043  0.00  0.00    +0.000 A 
ATOM      9  C   UNL     1       2.816   2.639  20.966  0.00  0.00    +0.000 A 
ATOM     10  C   UNL     1       1.457   2.938  21.077  0.00  0.00    +0.000 A 
ATOM     11  C   UNL     1       0.880   3.935  20.266  0.00  0.00    +0.000 A 
ATOM     12  C   UNL     1       1.651   4.655  19.339  0.00  0.00    +0.000 A 
ATOM     13  C   UNL     1       2.988   4.342  19.254  0.00  0.00    +0.000 A 
ATOM     14  N   UNL     1       4.022   4.843  18.489  0.00  0.00    +0.000 N 
ENDBRANCH   4  14
ENDBRANCH   3   4
ENDBRANCH   2   3
ENDBRANCH   1   2
BRANCH   1  15
ATOM     15  C   UNL     1       1.453   9.709  19.004  0.00  0.00    +0.000 C 
BRANCH  15  16
ATOM     16  C   UNL     1       0.209  10.422  18.466  0.00  0.00    +0.000 C 
BRANCH  16  17
ATOM     17  N   UNL     1      -0.544  11.254  19.381  0.00  0.00    +0.000 NA
ATOM     18  C   UNL     1      -0.323  11.039  20.820  0.00  0.00    +0.000 C 
ATOM     19  C   UNL     1      -0.909  12.226  21.639  0.00  0.00    +0.000 C 
ATOM     20  N   UNL     1      -2.310  12.486  21.251  0.00  0.00    +0.000 N 
ATOM     21  C   UNL     1      -2.558  12.560  19.804  0.00  0.00    +0.000 C 
ATOM     22  C   UNL     1      -1.988  11.311  19.112  0.00  0.00    +0.000 C 
BRANCH  20  23
ATOM     23  C   UNL     1      -3.320  12.620  22.174  0.00  0.00    +0.000 A 
ATOM     24  C   UNL     1      -3.126  12.316  23.528  0.00  0.00    +0.000 A 
ATOM     25  C   UNL     1      -4.165  12.409  24.458  0.00  0.00    +0.000 A 
ATOM     26  C   UNL     1      -5.430  12.814  24.051  0.00  0.00    +0.000 A 
ATOM     27  C   UNL     1      -5.650  13.147  22.720  0.00  0.00    +0.000 A 
ATOM     28  C   UNL     1      -4.604  13.050  21.800  0.00  0.00    +0.000 A 
ENDBRANCH  20  23
ENDBRANCH  16  17
ENDBRANCH  15  16
ENDBRANCH   1  15
TORSDOF 8
ENDMDL
MODEL 8
REMARK VINA RESULT:      -7.3      6.906     10.655
REMARK  Name = 
REMARK  8 active torsions:
REMARK  status: ('A' for Active; 'I' for Inactive)
REMARK    1  A    between atoms: N_10  and  C_11
REMARK    2  A    between atoms: C_11  and  C_12
REMARK    3  A    between atoms: C_12  and  C_13
REMARK    4  A    between atoms: C_13  and  C_14
REMARK    5  A    between atoms: C_14  and  C_15
REMARK    6  A    between atoms: C_15  and  C_16
REMARK    7  A    between atoms: C_16  and  N_17
REMARK    8  A    between atoms: N_20  and  C_21
REMARK                            x       y       z     vdW  Elec       q    Type
REMARK                         _______ _______ _______ _____ _____    ______ ____
ROOT
ATOM      1  C   UNL     1       2.335   7.623  18.132  0.00  0.00    +0.000 C 
ENDROOT
BRANCH   1   2
ATOM      2  C   UNL     1       3.481   7.872  17.150  0.00  0.00    +0.000 C 
BRANCH   2   3
ATOM      3  C   UNL     1       4.663   6.967  17.514  0.00  0.00    +0.000 C 
BRANCH   3   4
ATOM      4  C   UNL     1       4.549   5.556  16.940  0.00  0.00    +0.000 C 
BRANCH   4  14
ATOM      5  O   UNL     1       6.596   4.347  18.643  0.00  0.00    +0.000 OA
ATOM      6  C   UNL     1       5.412   4.034  18.733  0.00  0.00    +0.000 A 
ATOM      7  O   UNL     1       4.944   3.087  19.646  0.00  0.00    +0.000 OA
ATOM      8  C   UNL     1       3.589   3.061  19.372  0.00  0.00    +0.000 A 
ATOM      9  C   UNL     1       2.673   2.267  20.033  0.00  0.00    +0.000 A 
ATOM     10  C   UNL     1       1.338   2.358  19.637  0.00  0.00    +0.000 A 
ATOM     11  C   UNL     1       0.963   3.234  18.599  0.00  0.00    +0.000 A 
ATOM     12  C   UNL     1       1.911   4.037  17.946  0.00  0.00    +0.000 A 
ATOM     13  C   UNL     1       3.219   3.928  18.359  0.00  0.00    +0.000 A 
ATOM     14  N   UNL     1       4.383   4.559  17.968  0.00  0.00    +0.000 N 
ENDBRANCH   4  14
ENDBRANCH   3   4
ENDBRANCH   2   3
ENDBRANCH   1   2
BRANCH   1  15
ATOM     15  C   UNL     1       1.655   8.908  18.613  0.00  0.00    +0.000 C 
BRANCH  15  16
ATOM     16  C   UNL     1       1.103   8.664  20.019  0.00  0.00    +0.000 C 
BRANCH  16  17
ATOM     17  N   UNL     1       0.412   9.756  20.675  0.00  0.00    +0.000 NA
ATOM     18  C   UNL     1      -0.202   9.471  21.982  0.00  0.00    +0.000 C 
ATOM     19  C   UNL     1      -0.572  10.799  22.705  0.00  0.00    +0.000 C 
ATOM     20  N   UNL     1      -1.365  11.673  21.815  0.00  0.00    +0.000 N 
ATOM     21  C   UNL     1      -0.825  11.844  20.460  0.00  0.00    +0.000 C 
ATOM     22  C   UNL     1      -0.553  10.469  19.827  0.00  0.00    +0.000 C 
BRANCH  20  23
ATOM     23  C   UNL     1      -2.541  12.262  22.214  0.00  0.00    +0.000 A 
ATOM     24  C   UNL     1      -2.999  12.172  23.536  0.00  0.00    +0.000 A 
ATOM     25  C   UNL     1      -4.217  12.732  23.931  0.00  0.00    +0.000 A 
ATOM     26  C   UNL     1      -5.009  13.402  23.007  0.00  0.00    +0.000 A 
ATOM     27  C   UNL     1      -4.571  13.531  21.694  0.00  0.00    +0.000 A 
ATOM     28  C   UNL     1      -3.353  12.967  21.310  0.00  0.00    +0.000 A 
ENDBRANCH  20  23
ENDBRANCH  16  17
ENDBRANCH  15  16
ENDBRANCH   1  15
TORSDOF 8
ENDMDL
MODEL 9
REMARK VINA RESULT:      -7.3      6.142      9.569
REMARK  Name = 
REMARK  8 active torsions:
REMARK  status: ('A' for Active; 'I' for Inactive)
REMARK    1  A    between atoms: N_10  and  C_11
REMARK    2  A    between atoms: C_11  and  C_12
REMARK    3  A    between atoms: C_12  and  C_13
REMARK    4  A    between atoms: C_13  and  C_14
REMARK    5  A    between atoms: C_14  and  C_15
REMARK    6  A    between atoms: C_15  and  C_16
REMARK    7  A    between atoms: C_16  and  N_17
REMARK    8  A    between atoms: N_20  and  C_21
REMARK                            x       y       z     vdW  Elec       q    Type
REMARK                         _______ _______ _______ _____ _____    ______ ____
ROOT
ATOM      1  C   UNL     1       1.340   4.277  19.202  0.00  0.00    +0.000 C 
ENDROOT
BRANCH   1   2
ATOM      2  C   UNL     1       1.293   2.803  18.799  0.00  0.00    +0.000 C 
BRANCH   2   3
ATOM      3  C   UNL     1       2.129   2.600  17.530  0.00  0.00    +0.000 C 
BRANCH   3   4
ATOM      4  C   UNL     1       3.509   2.001  17.801  0.00  0.00    +0.000 C 
BRANCH   4  14
ATOM      5  O   UNL     1       4.638   2.529  20.447  0.00  0.00    +0.000 OA
ATOM      6  C   UNL     1       4.960   3.188  19.462  0.00  0.00    +0.000 A 
ATOM      7  O   UNL     1       5.884   4.234  19.517  0.00  0.00    +0.000 OA
ATOM      8  C   UNL     1       5.910   4.672  18.206  0.00  0.00    +0.000 A 
ATOM      9  C   UNL     1       6.696   5.708  17.742  0.00  0.00    +0.000 A 
ATOM     10  C   UNL     1       6.606   6.028  16.387  0.00  0.00    +0.000 A 
ATOM     11  C   UNL     1       5.739   5.307  15.543  0.00  0.00    +0.000 A 
ATOM     12  C   UNL     1       4.953   4.253  16.035  0.00  0.00    +0.000 A 
ATOM     13  C   UNL     1       5.065   3.958  17.375  0.00  0.00    +0.000 A 
ATOM     14  N   UNL     1       4.475   3.001  18.177  0.00  0.00    +0.000 N 
ENDBRANCH   4  14
ENDBRANCH   3   4
ENDBRANCH   2   3
ENDBRANCH   1   2
BRANCH   1  15
ATOM     15  C   UNL     1       1.840   5.198  18.086  0.00  0.00    +0.000 C 
BRANCH  15  16
ATOM     16  C   UNL     1       2.611   6.356  18.724  0.00  0.00    +0.000 C 
BRANCH  16  17
ATOM     17  N   UNL     1       1.916   7.612  18.913  0.00  0.00    +0.000 NA
ATOM     18  C   UNL     1       2.267   8.716  18.004  0.00  0.00    +0.000 C 
ATOM     19  C   UNL     1       1.201   9.847  18.092  0.00  0.00    +0.000 C 
ATOM     20  N   UNL     1       0.972  10.239  19.498  0.00  0.00    +0.000 N 
ATOM     21  C   UNL     1       0.762   9.126  20.434  0.00  0.00    +0.000 C 
ATOM     22  C   UNL     1       1.904   8.105  20.297  0.00  0.00    +0.000 C 
BRANCH  20  23
ATOM     23  C   UNL     1       0.985  11.551  19.911  0.00  0.00    +0.000 A 
ATOM     24  C   UNL     1       1.780  12.515  19.277  0.00  0.00    +0.000 A 
ATOM     25  C   UNL     1       1.827  13.838  19.725  0.00  0.00    +0.000 A 
ATOM     26  C   UNL     1       1.071  14.229  20.824  0.00  0.00    +0.000 A 
ATOM     27  C   UNL     1       0.253  13.303  21.459  0.00  0.00    +0.000 A 
ATOM     28  C   UNL     1       0.214  11.984  21.003  0.00  0.00    +0.000 A 
ENDBRANCH  20  23
ENDBRANCH  16  17
ENDBRANCH  15  16
ENDBRANCH   1  15
TORSDOF 8
ENDMDL
