MODEL 1
REMARK VINA RESULT:      -8.3      0.000      0.000
REMARK  Name = 
REMARK  9 active torsions:
REMARK  status: ('A' for Active; 'I' for Inactive)
REMARK    1  A    between atoms: C_1  and  C_2
REMARK    2  A    between atoms: C_2  and  O_3
REMARK    3  A    between atoms: O_3  and  C_4
REMARK    4  A    between atoms: C_6  and  N_7
REMARK    5  A    between atoms: C_11  and  C_12
REMARK    6  A    between atoms: N_14  and  C_15
REMARK    7  A    between atoms: C_15  and  C_16
REMARK    8  A    between atoms: N_18  and  C_19
REMARK    9  A    between atoms: C_19  and  C_20
REMARK                            x       y       z     vdW  Elec       q    Type
REMARK                         _______ _______ _______ _____ _____    ______ ____
ROOT
ATOM      1  C   UNL     1       2.401   8.191  18.248  0.00  0.00    +0.000 C 
ENDROOT
BRANCH   1   2
ATOM      2  C   UNL     1       2.571   6.875  19.032  0.00  0.00    +0.000 C 
ATOM      3  C   UNL     1       2.153   5.663  18.180  0.00  0.00    +0.000 C 
ATOM      4  N   UNL     1       2.355   4.366  18.868  0.00  0.00    +0.000 NA
ATOM      5  C   UNL     1       1.600   4.439  20.145  0.00  0.00    +0.000 C 
ATOM      6  C   UNL     1       1.907   5.699  20.985  0.00  0.00    +0.000 C 
ATOM      7  O   UNL     1       1.753   6.910  20.224  0.00  0.00    +0.000 OA
BRANCH   4   8
ATOM      8  C   UNL     1       3.772   4.032  19.121  0.00  0.00    +0.000 C 
BRANCH   8   9
ATOM      9  C   UNL     1       4.764   4.386  18.037  0.00  0.00    +0.000 A 
ATOM     10  C   UNL     1       5.919   5.105  18.380  0.00  0.00    +0.000 A 
ATOM     11  F   UNL     1       6.127   5.457  19.659  0.00  0.00    +0.000 F 
ATOM     12  C   UNL     1       6.876   5.446  17.426  0.00  0.00    +0.000 A 
ATOM     13  F   UNL     1       7.974   6.126  17.788  0.00  0.00    +0.000 F 
ATOM     14  C   UNL     1       6.701   5.063  16.108  0.00  0.00    +0.000 A 
ATOM     15  F   UNL     1       7.615   5.395  15.183  0.00  0.00    +0.000 F 
ATOM     16  C   UNL     1       5.584   4.327  15.745  0.00  0.00    +0.000 A 
ATOM     17  F   UNL     1       5.419   3.942  14.472  0.00  0.00    +0.000 F 
ATOM     18  C   UNL     1       4.638   3.972  16.706  0.00  0.00    +0.000 A 
ATOM     19  F   UNL     1       3.589   3.231  16.322  0.00  0.00    +0.000 F 
ENDBRANCH   8   9
ENDBRANCH   4   8
ENDBRANCH   1   2
BRANCH   1  22
ATOM     20  C   UNL     1       1.189  10.344  18.546  0.00  0.00    +0.000 C 
ATOM     21  O   UNL     1       2.147  10.998  18.136  0.00  0.00    +0.000 OA
ATOM     22  N   UNL     1       1.222   8.971  18.608  0.00  0.00    +0.000 N 
ATOM     23  H   UNL     1       0.408   8.489  18.979  0.00  0.00    +0.000 HD
BRANCH  20  30
ATOM     24  C   UNL     1      -1.306  10.949  18.275  0.00  0.00    +0.000 A 
ATOM     25  C   UNL     1      -2.391  11.741  18.700  0.00  0.00    +0.000 A 
ATOM     26  C   UNL     1      -2.315  12.538  19.847  0.00  0.00    +0.000 A 
ATOM     27  C   UNL     1      -1.082  12.626  20.508  0.00  0.00    +0.000 A 
ATOM     28 CL   UNL     1      -0.904  13.621  21.911  0.00  0.00    +0.000 Cl
ATOM     29  C   UNL     1       0.021  11.894  20.067  0.00  0.00    +0.000 A 
ATOM     30  C   UNL     1      -0.072  11.053  18.943  0.00  0.00    +0.000 A 
BRANCH  26  31
ATOM     31  N   UNL     1      -3.394  13.379  20.167  0.00  0.00    +0.000 N 
ATOM     32  H   UNL     1      -4.042  13.011  20.857  0.00  0.00    +0.000 HD
ATOM     33  H   UNL     1      -3.105  14.336  20.368  0.00  0.00    +0.000 HD
ENDBRANCH  26  31
BRANCH  24  34
ATOM     34  O   UNL     1      -1.412  10.087  17.212  0.00  0.00    +0.000 OA
BRANCH  34  36
ATOM     35  C   UNL     1      -2.842  10.281  15.303  0.00  0.00    +0.000 C 
ATOM     36  C   UNL     1      -2.743   9.832  16.747  0.00  0.00    +0.000 C 
ENDBRANCH  34  36
ENDBRANCH  24  34
ENDBRANCH  20  30
ENDBRANCH   1  22
TORSDOF 8
ENDMDL
MODEL 2
REMARK VINA RESULT:      -8.2      0.285      1.868
REMARK  Name = 
REMARK  9 active torsions:
REMARK  status: ('A' for Active; 'I' for Inactive)
REMARK    1  A    between atoms: C_1  and  C_2
REMARK    2  A    between atoms: C_2  and  O_3
REMARK    3  A    between atoms: O_3  and  C_4
REMARK    4  A    between atoms: C_6  and  N_7
REMARK    5  A    between atoms: C_11  and  C_12
REMARK    6  A    between atoms: N_14  and  C_15
REMARK    7  A    between atoms: C_15  and  C_16
REMARK    8  A    between atoms: N_18  and  C_19
REMARK    9  A    between atoms: C_19  and  C_20
REMARK                            x       y       z     vdW  Elec       q    Type
REMARK                         _______ _______ _______ _____ _____    ______ ____
ROOT
ATOM      1  C   UNL     1       2.542   8.137  18.219  0.00  0.00    +0.000 C 
ENDROOT
BRANCH   1   2
ATOM      2  C   UNL     1       2.640   6.798  18.977  0.00  0.00    +0.000 C 
ATOM      3  C   UNL     1       2.237   5.618  18.073  0.00  0.00    +0.000 C 
ATOM      4  N   UNL     1       2.372   4.300  18.737  0.00  0.00    +0.000 NA
ATOM      5  C   UNL     1       1.556   4.361  19.976  0.00  0.00    +0.000 C 
ATOM      6  C   UNL     1       1.852   5.591  20.863  0.00  0.00    +0.000 C 
ATOM      7  O   UNL     1       1.765   6.824  20.127  0.00  0.00    +0.000 OA
BRANCH   4   8
ATOM      8  C   UNL     1       3.766   3.923  19.050  0.00  0.00    +0.000 C 
BRANCH   8   9
ATOM      9  C   UNL     1       4.823   4.303  18.039  0.00  0.00    +0.000 A 
ATOM     10  C   UNL     1       4.667   3.892  16.706  0.00  0.00    +0.000 A 
ATOM     11  F   UNL     1       3.586   3.179  16.352  0.00  0.00    +0.000 F 
ATOM     12  C   UNL     1       5.600   4.226  15.726  0.00  0.00    +0.000 A 
ATOM     13  F   UNL     1       5.417   3.826  14.459  0.00  0.00    +0.000 F 
ATOM     14  C   UNL     1       6.705   4.990  16.059  0.00  0.00    +0.000 A 
ATOM     15  F   UNL     1       7.610   5.309  15.122  0.00  0.00    +0.000 F 
ATOM     16  C   UNL     1       6.869   5.435  17.362  0.00  0.00    +0.000 A 
ATOM     17  F   UNL     1       7.930   6.187  17.684  0.00  0.00    +0.000 F 
ATOM     18  C   UNL     1       5.924   5.114  18.335  0.00  0.00    +0.000 A 
ATOM     19  F   UNL     1       6.101   5.591  19.575  0.00  0.00    +0.000 F 
ENDBRANCH   8   9
ENDBRANCH   4   8
ENDBRANCH   1   2
BRANCH   1  22
ATOM     20  C   UNL     1       1.424  10.346  18.464  0.00  0.00    +0.000 C 
ATOM     21  O   UNL     1       2.372  10.940  17.951  0.00  0.00    +0.000 OA
ATOM     22  N   UNL     1       1.416   8.979  18.608  0.00  0.00    +0.000 N 
ATOM     23  H   UNL     1       0.614   8.550  19.062  0.00  0.00    +0.000 HD
BRANCH  20  30
ATOM     24  C   UNL     1      -1.083  10.962  18.382  0.00  0.00    +0.000 A 
ATOM     25  C   UNL     1      -2.111  11.821  18.815  0.00  0.00    +0.000 A 
ATOM     26  C   UNL     1      -1.909  12.751  19.840  0.00  0.00    +0.000 A 
ATOM     27  C   UNL     1      -0.613  12.897  20.351  0.00  0.00    +0.000 A 
ATOM     28 CL   UNL     1      -0.280  14.055  21.593  0.00  0.00    +0.000 Cl
ATOM     29  C   UNL     1       0.433  12.095  19.893  0.00  0.00    +0.000 A 
ATOM     30  C   UNL     1       0.216  11.124  18.899  0.00  0.00    +0.000 A 
BRANCH  26  31
ATOM     31  N   UNL     1      -2.943  13.646  20.164  0.00  0.00    +0.000 N 
ATOM     32  H   UNL     1      -3.212  14.287  19.423  0.00  0.00    +0.000 HD
ATOM     33  H   UNL     1      -3.743  13.187  20.598  0.00  0.00    +0.000 HD
ENDBRANCH  26  31
BRANCH  24  34
ATOM     34  O   UNL     1      -1.306   9.977  17.452  0.00  0.00    +0.000 OA
BRANCH  34  36
ATOM     35  C   UNL     1      -2.724  10.212  15.538  0.00  0.00    +0.000 C 
ATOM     36  C   UNL     1      -2.661   9.837  17.006  0.00  0.00    +0.000 C 
ENDBRANCH  34  36
ENDBRANCH  24  34
ENDBRANCH  20  30
ENDBRANCH   1  22
TORSDOF 8
ENDMDL
MODEL 3
REMARK VINA RESULT:      -8.2      1.785      3.187
REMARK  Name = 
REMARK  9 active torsions:
REMARK  status: ('A' for Active; 'I' for Inactive)
REMARK    1  A    between atoms: C_1  and  C_2
REMARK    2  A    between atoms: C_2  and  O_3
REMARK    3  A    between atoms: O_3  and  C_4
REMARK    4  A    between atoms: C_6  and  N_7
REMARK    5  A    between atoms: C_11  and  C_12
REMARK    6  A    between atoms: N_14  and  C_15
REMARK    7  A    between atoms: C_15  and  C_16
REMARK    8  A    between atoms: N_18  and  C_19
REMARK    9  A    between atoms: C_19  and  C_20
REMARK                            x       y       z     vdW  Elec       q    Type
REMARK                         _______ _______ _______ _____ _____    ______ ____
ROOT
ATOM      1  C   UNL     1       2.537   7.824  20.051  0.00  0.00    +0.000 C 
ENDROOT
BRANCH   1   2
ATOM      2  C   UNL     1       2.415   6.291  19.949  0.00  0.00    +0.000 C 
ATOM      3  C   UNL     1       2.250   5.844  18.484  0.00  0.00    +0.000 C 
ATOM      4  N   UNL     1       2.189   4.372  18.325  0.00  0.00    +0.000 NA
ATOM      5  C   UNL     1       1.077   3.895  19.186  0.00  0.00    +0.000 C 
ATOM      6  C   UNL     1       1.144   4.410  20.641  0.00  0.00    +0.000 C 
ATOM      7  O   UNL     1       1.269   5.842  20.706  0.00  0.00    +0.000 OA
BRANCH   4   8
ATOM      8  C   UNL     1       3.447   3.676  18.670  0.00  0.00    +0.000 C 
BRANCH   8   9
ATOM      9  C   UNL     1       4.661   4.002  17.831  0.00  0.00    +0.000 A 
ATOM     10  C   UNL     1       4.608   3.789  16.445  0.00  0.00    +0.000 A 
ATOM     11  F   UNL     1       3.484   3.309  15.889  0.00  0.00    +0.000 F 
ATOM     12  C   UNL     1       5.691   4.085  15.619  0.00  0.00    +0.000 A 
ATOM     13  F   UNL     1       5.604   3.879  14.297  0.00  0.00    +0.000 F 
ATOM     14  C   UNL     1       6.848   4.614  16.164  0.00  0.00    +0.000 A 
ATOM     15  F   UNL     1       7.896   4.895  15.375  0.00  0.00    +0.000 F 
ATOM     16  C   UNL     1       6.919   4.862  17.526  0.00  0.00    +0.000 A 
ATOM     17  F   UNL     1       8.032   5.387  18.055  0.00  0.00    +0.000 F 
ATOM     18  C   UNL     1       5.827   4.581  18.346  0.00  0.00    +0.000 A 
ATOM     19  F   UNL     1       5.922   4.867  19.652  0.00  0.00    +0.000 F 
ENDBRANCH   8   9
ENDBRANCH   4   8
ENDBRANCH   1   2
BRANCH   1  22
ATOM     20  C   UNL     1       1.146   9.488  18.831  0.00  0.00    +0.000 C 
ATOM     21  O   UNL     1       2.050   9.734  18.033  0.00  0.00    +0.000 OA
ATOM     22  N   UNL     1       1.292   8.553  19.828  0.00  0.00    +0.000 N 
ATOM     23  H   UNL     1       0.517   8.412  20.470  0.00  0.00    +0.000 HD
BRANCH  20  30
ATOM     24  C   UNL     1      -0.694  11.135  19.585  0.00  0.00    +0.000 A 
ATOM     25  C   UNL     1      -1.989  11.648  19.378  0.00  0.00    +0.000 A 
ATOM     26  C   UNL     1      -2.729  11.336  18.232  0.00  0.00    +0.000 A 
ATOM     27  C   UNL     1      -2.197  10.395  17.341  0.00  0.00    +0.000 A 
ATOM     28 CL   UNL     1      -3.073   9.932  15.923  0.00  0.00    +0.000 Cl
ATOM     29  C   UNL     1      -0.940   9.831  17.560  0.00  0.00    +0.000 A 
ATOM     30  C   UNL     1      -0.175  10.186  18.686  0.00  0.00    +0.000 A 
BRANCH  26  31
ATOM     31  N   UNL     1      -4.052  11.800  18.126  0.00  0.00    +0.000 N 
ATOM     32  H   UNL     1      -4.771  11.106  18.304  0.00  0.00    +0.000 HD
ATOM     33  H   UNL     1      -4.209  12.669  18.635  0.00  0.00    +0.000 HD
ENDBRANCH  26  31
BRANCH  24  34
ATOM     34  O   UNL     1       0.075  11.522  20.655  0.00  0.00    +0.000 OA
BRANCH  34  36
ATOM     35  C   UNL     1      -0.445  10.221  22.595  0.00  0.00    +0.000 C 
ATOM     36  C   UNL     1      -0.596  11.570  21.920  0.00  0.00    +0.000 C 
ENDBRANCH  34  36
ENDBRANCH  24  34
ENDBRANCH  20  30
ENDBRANCH   1  22
TORSDOF 8
ENDMDL
MODEL 4
REMARK VINA RESULT:      -8.2      1.755      2.721
REMARK  Name = 
REMARK  9 active torsions:
REMARK  status: ('A' for Active; 'I' for Inactive)
REMARK    1  A    between atoms: C_1  and  C_2
REMARK    2  A    between atoms: C_2  and  O_3
REMARK    3  A    between atoms: O_3  and  C_4
REMARK    4  A    between atoms: C_6  and  N_7
REMARK    5  A    between atoms: C_11  and  C_12
REMARK    6  A    between atoms: N_14  and  C_15
REMARK    7  A    between atoms: C_15  and  C_16
REMARK    8  A    between atoms: N_18  and  C_19
REMARK    9  A    between atoms: C_19  and  C_20
REMARK                            x       y       z     vdW  Elec       q    Type
REMARK                         _______ _______ _______ _____ _____    ______ ____
ROOT
ATOM      1  C   UNL     1       1.967   6.041  21.137  0.00  0.00    +0.000 C 
ENDROOT
BRANCH   1   2
ATOM      2  C   UNL     1       2.155   4.722  20.362  0.00  0.00    +0.000 C 
ATOM      3  C   UNL     1       2.031   4.949  18.843  0.00  0.00    +0.000 C 
ATOM      4  N   UNL     1       2.264   3.720  18.048  0.00  0.00    +0.000 NA
ATOM      5  C   UNL     1       1.303   2.702  18.543  0.00  0.00    +0.000 C 
ATOM      6  C   UNL     1       1.317   2.520  20.078  0.00  0.00    +0.000 C 
ATOM      7  O   UNL     1       1.152   3.768  20.775  0.00  0.00    +0.000 OA
BRANCH   4   8
ATOM      8  C   UNL     1       3.648   3.208  18.123  0.00  0.00    +0.000 C 
BRANCH   8   9
ATOM      9  C   UNL     1       4.752   4.153  17.709  0.00  0.00    +0.000 A 
ATOM     10  C   UNL     1       5.578   4.710  18.698  0.00  0.00    +0.000 A 
ATOM     11  F   UNL     1       5.379   4.389  19.987  0.00  0.00    +0.000 F 
ATOM     12  C   UNL     1       6.621   5.575  18.375  0.00  0.00    +0.000 A 
ATOM     13  F   UNL     1       7.398   6.082  19.344  0.00  0.00    +0.000 F 
ATOM     14  C   UNL     1       6.868   5.893  17.051  0.00  0.00    +0.000 A 
ATOM     15  F   UNL     1       7.866   6.731  16.735  0.00  0.00    +0.000 F 
ATOM     16  C   UNL     1       6.087   5.335  16.051  0.00  0.00    +0.000 A 
ATOM     17  F   UNL     1       6.332   5.629  14.767  0.00  0.00    +0.000 F 
ATOM     18  C   UNL     1       5.055   4.456  16.376  0.00  0.00    +0.000 A 
ATOM     19  F   UNL     1       4.345   3.911  15.379  0.00  0.00    +0.000 F 
ENDBRANCH   8   9
ENDBRANCH   4   8
ENDBRANCH   1   2
BRANCH   1  22
ATOM     20  C   UNL     1       1.134   8.373  20.890  0.00  0.00    +0.000 C 
ATOM     21  O   UNL     1       1.492   8.675  22.028  0.00  0.00    +0.000 OA
ATOM     22  N   UNL     1       1.351   7.119  20.370  0.00  0.00    +0.000 N 
ATOM     23  H   UNL     1       1.010   6.924  19.433  0.00  0.00    +0.000 HD
BRANCH  20  30
ATOM     24  C   UNL     1       0.646   9.515  18.626  0.00  0.00    +0.000 A 
ATOM     25  C   UNL     1       0.055  10.594  17.941  0.00  0.00    +0.000 A 
ATOM     26  C   UNL     1      -0.791  11.501  18.589  0.00  0.00    +0.000 A 
ATOM     27  C   UNL     1      -0.945  11.382  19.976  0.00  0.00    +0.000 A 
ATOM     28 CL   UNL     1      -1.945  12.492  20.849  0.00  0.00    +0.000 Cl
ATOM     29  C   UNL     1      -0.320  10.354  20.682  0.00  0.00    +0.000 A 
ATOM     30  C   UNL     1       0.489   9.412  20.020  0.00  0.00    +0.000 A 
BRANCH  26  31
ATOM     31  N   UNL     1      -1.274  12.612  17.876  0.00  0.00    +0.000 N 
ATOM     32  H   UNL     1      -2.105  12.443  17.319  0.00  0.00    +0.000 HD
ATOM     33  H   UNL     1      -1.349  13.450  18.452  0.00  0.00    +0.000 HD
ENDBRANCH  26  31
BRANCH  24  34
ATOM     34  O   UNL     1       1.390   8.563  17.973  0.00  0.00    +0.000 OA
BRANCH  34  36
ATOM     35  C   UNL     1       3.572   7.677  17.546  0.00  0.00    +0.000 C 
ATOM     36  C   UNL     1       2.737   8.937  17.655  0.00  0.00    +0.000 C 
ENDBRANCH  34  36
ENDBRANCH  24  34
ENDBRANCH  20  30
ENDBRANCH   1  22
TORSDOF 8
ENDMDL
MODEL 5
REMARK VINA RESULT:      -8.1      1.497      2.970
REMARK  Name = 
REMARK  9 active torsions:
REMARK  status: ('A' for Active; 'I' for Inactive)
REMARK    1  A    between atoms: C_1  and  C_2
REMARK    2  A    between atoms: C_2  and  O_3
REMARK    3  A    between atoms: O_3  and  C_4
REMARK    4  A    between atoms: C_6  and  N_7
REMARK    5  A    between atoms: C_11  and  C_12
REMARK    6  A    between atoms: N_14  and  C_15
REMARK    7  A    between atoms: C_15  and  C_16
REMARK    8  A    between atoms: N_18  and  C_19
REMARK    9  A    between atoms: C_19  and  C_20
REMARK                            x       y       z     vdW  Elec       q    Type
REMARK                         _______ _______ _______ _____ _____    ______ ____
ROOT
ATOM      1  C   UNL     1       2.752   7.913  18.562  0.00  0.00    +0.000 C 
ENDROOT
BRANCH   1   2
ATOM      2  C   UNL     1       2.728   6.501  19.181  0.00  0.00    +0.000 C 
ATOM      3  C   UNL     1       2.235   5.457  18.163  0.00  0.00    +0.000 C 
ATOM      4  N   UNL     1       2.250   4.072  18.691  0.00  0.00    +0.000 NA
ATOM      5  C   UNL     1       1.431   4.078  19.929  0.00  0.00    +0.000 C 
ATOM      6  C   UNL     1       1.822   5.184  20.935  0.00  0.00    +0.000 C 
ATOM      7  O   UNL     1       1.847   6.487  20.327  0.00  0.00    +0.000 OA
BRANCH   4   8
ATOM      8  C   UNL     1       3.605   3.548  18.966  0.00  0.00    +0.000 C 
BRANCH   8   9
ATOM      9  C   UNL     1       4.708   3.972  18.025  0.00  0.00    +0.000 A 
ATOM     10  C   UNL     1       4.554   3.744  16.649  0.00  0.00    +0.000 A 
ATOM     11  F   UNL     1       3.432   3.164  16.193  0.00  0.00    +0.000 F 
ATOM     12  C   UNL     1       5.530   4.128  15.732  0.00  0.00    +0.000 A 
ATOM     13  F   UNL     1       5.347   3.905  14.422  0.00  0.00    +0.000 F 
ATOM     14  C   UNL     1       6.679   4.760  16.173  0.00  0.00    +0.000 A 
ATOM     15  F   UNL     1       7.626   5.126  15.297  0.00  0.00    +0.000 F 
ATOM     16  C   UNL     1       6.846   5.024  17.524  0.00  0.00    +0.000 A 
ATOM     17  F   UNL     1       7.951   5.649  17.954  0.00  0.00    +0.000 F 
ATOM     18  C   UNL     1       5.859   4.655  18.437  0.00  0.00    +0.000 A 
ATOM     19  F   UNL     1       6.041   4.958  19.729  0.00  0.00    +0.000 F 
ENDBRANCH   8   9
ENDBRANCH   4   8
ENDBRANCH   1   2
BRANCH   1  22
ATOM     20  C   UNL     1       1.366   9.958  18.267  0.00  0.00    +0.000 C 
ATOM     21  O   UNL     1       2.174  10.454  17.483  0.00  0.00    +0.000 OA
ATOM     22  N   UNL     1       1.559   8.713  18.818  0.00  0.00    +0.000 N 
ATOM     23  H   UNL     1       0.867   8.369  19.478  0.00  0.00    +0.000 HD
BRANCH  20  30
ATOM     24  C   UNL     1       0.018  11.804  19.468  0.00  0.00    +0.000 A 
ATOM     25  C   UNL     1      -1.245  12.356  19.760  0.00  0.00    +0.000 A 
ATOM     26  C   UNL     1      -2.405  11.922  19.110  0.00  0.00    +0.000 A 
ATOM     27  C   UNL     1      -2.302  10.830  18.239  0.00  0.00    +0.000 A 
ATOM     28 CL   UNL     1      -3.702  10.214  17.430  0.00  0.00    +0.000 Cl
ATOM     29  C   UNL     1      -1.069  10.231  17.981  0.00  0.00    +0.000 A 
ATOM     30  C   UNL     1       0.105  10.703  18.596  0.00  0.00    +0.000 A 
BRANCH  26  31
ATOM     31  N   UNL     1      -3.648  12.442  19.512  0.00  0.00    +0.000 N 
ATOM     32  H   UNL     1      -4.068  11.990  20.317  0.00  0.00    +0.000 HD
ATOM     33  H   UNL     1      -3.647  13.459  19.586  0.00  0.00    +0.000 HD
ENDBRANCH  26  31
BRANCH  24  34
ATOM     34  O   UNL     1       1.171  12.299  20.025  0.00  0.00    +0.000 OA
BRANCH  34  36
ATOM     35  C   UNL     1       2.081  13.847  18.443  0.00  0.00    +0.000 C 
ATOM     36  C   UNL     1       1.423  13.692  19.800  0.00  0.00    +0.000 C 
ENDBRANCH  34  36
ENDBRANCH  24  34
ENDBRANCH  20  30
ENDBRANCH   1  22
TORSDOF 8
ENDMDL
MODEL 6
REMARK VINA RESULT:      -8.0      1.736      3.160
REMARK  Name = 
REMARK  9 active torsions:
REMARK  status: ('A' for Active; 'I' for Inactive)
REMARK    1  A    between atoms: C_1  and  C_2
REMARK    2  A    between atoms: C_2  and  O_3
REMARK    3  A    between atoms: O_3  and  C_4
REMARK    4  A    between atoms: C_6  and  N_7
REMARK    5  A    between atoms: C_11  and  C_12
REMARK    6  A    between atoms: N_14  and  C_15
REMARK    7  A    between atoms: C_15  and  C_16
REMARK    8  A    between atoms: N_18  and  C_19
REMARK    9  A    between atoms: C_19  and  C_20
REMARK                            x       y       z     vdW  Elec       q    Type
REMARK                         _______ _______ _______ _____ _____    ______ ____
ROOT
ATOM      1  C   UNL     1       2.017   6.052  21.174  0.00  0.00    +0.000 C 
ENDROOT
BRANCH   1   2
ATOM      2  C   UNL     1       2.145   4.749  20.363  0.00  0.00    +0.000 C 
ATOM      3  C   UNL     1       2.030   5.022  18.851  0.00  0.00    +0.000 C 
ATOM      4  N   UNL     1       2.207   3.807  18.022  0.00  0.00    +0.000 NA
ATOM      5  C   UNL     1       1.203   2.820  18.490  0.00  0.00    +0.000 C 
ATOM      6  C   UNL     1       1.209   2.594  20.019  0.00  0.00    +0.000 C 
ATOM      7  O   UNL     1       1.100   3.828  20.751  0.00  0.00    +0.000 OA
BRANCH   4   8
ATOM      8  C   UNL     1       3.568   3.232  18.079  0.00  0.00    +0.000 C 
BRANCH   8   9
ATOM      9  C   UNL     1       4.718   4.158  17.758  0.00  0.00    +0.000 A 
ATOM     10  C   UNL     1       4.940   4.529  16.424  0.00  0.00    +0.000 A 
ATOM     11  F   UNL     1       4.128   4.065  15.460  0.00  0.00    +0.000 F 
ATOM     12  C   UNL     1       5.975   5.393  16.069  0.00  0.00    +0.000 A 
ATOM     13  F   UNL     1       6.155   5.736  14.786  0.00  0.00    +0.000 F 
ATOM     14  C   UNL     1       6.803   5.914  17.048  0.00  0.00    +0.000 A 
ATOM     15  F   UNL     1       7.805   6.740  16.713  0.00  0.00    +0.000 F 
ATOM     16  C   UNL     1       6.589   5.587  18.379  0.00  0.00    +0.000 A 
ATOM     17  F   UNL     1       7.380   6.100  19.330  0.00  0.00    +0.000 F 
ATOM     18  C   UNL     1       5.542   4.737  18.731  0.00  0.00    +0.000 A 
ATOM     19  F   UNL     1       5.346   4.473  20.030  0.00  0.00    +0.000 F 
ENDBRANCH   8   9
ENDBRANCH   4   8
ENDBRANCH   1   2
BRANCH   1  22
ATOM     20  C   UNL     1       1.155   8.383  21.041  0.00  0.00    +0.000 C 
ATOM     21  O   UNL     1       1.589   8.662  22.158  0.00  0.00    +0.000 OA
ATOM     22  N   UNL     1       1.342   7.143  20.478  0.00  0.00    +0.000 N 
ATOM     23  H   UNL     1       0.938   6.967  19.562  0.00  0.00    +0.000 HD
BRANCH  20  30
ATOM     24  C   UNL     1       0.515   9.582  18.845  0.00  0.00    +0.000 A 
ATOM     25  C   UNL     1      -0.130  10.672  18.229  0.00  0.00    +0.000 A 
ATOM     26  C   UNL     1      -0.947  11.546  18.954  0.00  0.00    +0.000 A 
ATOM     27  C   UNL     1      -1.016  11.386  20.343  0.00  0.00    +0.000 A 
ATOM     28 CL   UNL     1      -1.976  12.454  21.307  0.00  0.00    +0.000 Cl
ATOM     29  C   UNL     1      -0.335  10.347  20.980  0.00  0.00    +0.000 A 
ATOM     30  C   UNL     1       0.444   9.437  20.243  0.00  0.00    +0.000 A 
BRANCH  26  31
ATOM     31  N   UNL     1      -1.487  12.670  18.305  0.00  0.00    +0.000 N 
ATOM     32  H   UNL     1      -2.119  12.467  17.537  0.00  0.00    +0.000 HD
ATOM     33  H   UNL     1      -1.865  13.360  18.954  0.00  0.00    +0.000 HD
ENDBRANCH  26  31
BRANCH  24  34
ATOM     34  O   UNL     1       1.232   8.661  18.121  0.00  0.00    +0.000 OA
BRANCH  34  36
ATOM     35  C   UNL     1       3.414   7.846  17.572  0.00  0.00    +0.000 C 
ATOM     36  C   UNL     1       2.539   9.077  17.706  0.00  0.00    +0.000 C 
ENDBRANCH  34  36
ENDBRANCH  24  34
ENDBRANCH  20  30
ENDBRANCH   1  22
TORSDOF 8
ENDMDL
MODEL 7
REMARK VINA RESULT:      -8.0      1.613      2.435
REMARK  Name = 
REMARK  9 active torsions:
REMARK  status: ('A' for Active; 'I' for Inactive)
REMARK    1  A    between atoms: C_1  and  C_2
REMARK    2  A    between atoms: C_2  and  O_3
REMARK    3  A    between atoms: O_3  and  C_4
REMARK    4  A    between atoms: C_6  and  N_7
REMARK    5  A    between atoms: C_11  and  C_12
REMARK    6  A    between atoms: N_14  and  C_15
REMARK    7  A    between atoms: C_15  and  C_16
REMARK    8  A    between atoms: N_18  and  C_19
REMARK    9  A    between atoms: C_19  and  C_20
REMARK                            x       y       z     vdW  Elec       q    Type
REMARK                         _______ _______ _______ _____ _____    ______ ____
ROOT
ATOM      1  C   UNL     1       2.484   8.056  18.220  0.00  0.00    +0.000 C 
ENDROOT
BRANCH   1   2
ATOM      2  C   UNL     1       2.624   6.749  19.025  0.00  0.00    +0.000 C 
ATOM      3  C   UNL     1       2.212   5.530  18.179  0.00  0.00    +0.000 C 
ATOM      4  N   UNL     1       2.386   4.240  18.889  0.00  0.00    +0.000 NA
ATOM      5  C   UNL     1       1.606   4.338  20.148  0.00  0.00    +0.000 C 
ATOM      6  C   UNL     1       1.909   5.605  20.978  0.00  0.00    +0.000 C 
ATOM      7  O   UNL     1       1.782   6.808  20.199  0.00  0.00    +0.000 OA
BRANCH   4   8
ATOM      8  C   UNL     1       3.794   3.895  19.175  0.00  0.00    +0.000 C 
BRANCH   8   9
ATOM      9  C   UNL     1       4.813   4.235  18.112  0.00  0.00    +0.000 A 
ATOM     10  C   UNL     1       5.930   5.008  18.462  0.00  0.00    +0.000 A 
ATOM     11  F   UNL     1       6.079   5.424  19.730  0.00  0.00    +0.000 F 
ATOM     12  C   UNL     1       6.910   5.340  17.528  0.00  0.00    +0.000 A 
ATOM     13  F   UNL     1       7.971   6.072  17.898  0.00  0.00    +0.000 F 
ATOM     14  C   UNL     1       6.797   4.893  16.224  0.00  0.00    +0.000 A 
ATOM     15  F   UNL     1       7.733   5.215  15.318  0.00  0.00    +0.000 F 
ATOM     16  C   UNL     1       5.719   4.103  15.855  0.00  0.00    +0.000 A 
ATOM     17  F   UNL     1       5.614   3.657  14.596  0.00  0.00    +0.000 F 
ATOM     18  C   UNL     1       4.750   3.759  16.797  0.00  0.00    +0.000 A 
ATOM     19  F   UNL     1       3.741   2.966  16.411  0.00  0.00    +0.000 F 
ENDBRANCH   8   9
ENDBRANCH   4   8
ENDBRANCH   1   2
BRANCH   1  22
ATOM     20  C   UNL     1       1.071  10.098  18.387  0.00  0.00    +0.000 C 
ATOM     21  O   UNL     1       2.040  10.842  18.240  0.00  0.00    +0.000 OA
ATOM     22  N   UNL     1       1.197   8.729  18.364  0.00  0.00    +0.000 N 
ATOM     23  H   UNL     1       0.363   8.169  18.516  0.00  0.00    +0.000 HD
BRANCH  20  30
ATOM     24  C   UNL     1      -0.799  11.274  19.723  0.00  0.00    +0.000 A 
ATOM     25  C   UNL     1      -2.137  11.715  19.762  0.00  0.00    +0.000 A 
ATOM     26  C   UNL     1      -2.946  11.707  18.621  0.00  0.00    +0.000 A 
ATOM     27  C   UNL     1      -2.432  11.132  17.452  0.00  0.00    +0.000 A 
ATOM     28 CL   UNL     1      -3.390  11.052  16.014  0.00  0.00    +0.000 Cl
ATOM     29  C   UNL     1      -1.128  10.636  17.410  0.00  0.00    +0.000 A 
ATOM     30  C   UNL     1      -0.298  10.692  18.544  0.00  0.00    +0.000 A 
BRANCH  26  31
ATOM     31  N   UNL     1      -4.300  12.068  18.742  0.00  0.00    +0.000 N 
ATOM     32  H   UNL     1      -4.630  12.749  18.066  0.00  0.00    +0.000 HD
ATOM     33  H   UNL     1      -4.919  11.262  18.824  0.00  0.00    +0.000 HD
ENDBRANCH  26  31
BRANCH  24  34
ATOM     34  O   UNL     1       0.029  11.379  20.813  0.00  0.00    +0.000 OA
BRANCH  34  36
ATOM     35  C   UNL     1      -0.684  10.612  22.964  0.00  0.00    +0.000 C 
ATOM     36  C   UNL     1       0.050  10.246  21.690  0.00  0.00    +0.000 C 
ENDBRANCH  34  36
ENDBRANCH  24  34
ENDBRANCH  20  30
ENDBRANCH   1  22
TORSDOF 8
ENDMDL
MODEL 8
REMARK VINA RESULT:      -8.0      1.497      2.364
REMARK  Name = 
REMARK  9 active torsions:
REMARK  status: ('A' for Active; 'I' for Inactive)
REMARK    1  A    between atoms: C_1  and  C_2
REMARK    2  A    between atoms: C_2  and  O_3
REMARK    3  A    between atoms: O_3  and  C_4
REMARK    4  A    between atoms: C_6  and  N_7
REMARK    5  A    between atoms: C_11  and  C_12
REMARK    6  A    between atoms: N_14  and  C_15
REMARK    7  A    between atoms: C_15  and  C_16
REMARK    8  A    between atoms: N_18  and  C_19
REMARK    9  A    between atoms: C_19  and  C_20
REMARK                            x       y       z     vdW  Elec       q    Type
REMARK                         _______ _______ _______ _____ _____    ______ ____
ROOT
ATOM      1  C   UNL     1       2.697   7.983  18.453  0.00  0.00    +0.000 C 
ENDROOT
BRANCH   1   2
ATOM      2  C   UNL     1       2.707   6.601  19.136  0.00  0.00    +0.000 C 
ATOM      3  C   UNL     1       2.206   5.505  18.177  0.00  0.00    +0.000 C 
ATOM      4  N   UNL     1       2.254   4.146  18.766  0.00  0.00    +0.000 NA
ATOM      5  C   UNL     1       1.463   4.196  20.021  0.00  0.00    +0.000 C 
ATOM      6  C   UNL     1       1.860   5.352  20.967  0.00  0.00    +0.000 C 
ATOM      7  O   UNL     1       1.853   6.626  20.301  0.00  0.00    +0.000 OA
BRANCH   4   8
ATOM      8  C   UNL     1       3.622   3.653  19.034  0.00  0.00    +0.000 C 
BRANCH   8   9
ATOM      9  C   UNL     1       4.687   4.003  18.021  0.00  0.00    +0.000 A 
ATOM     10  C   UNL     1       5.886   4.579  18.466  0.00  0.00    +0.000 A 
ATOM     11  F   UNL     1       6.070   4.799  19.778  0.00  0.00    +0.000 F 
ATOM     12  C   UNL     1       6.911   4.908  17.581  0.00  0.00    +0.000 A 
ATOM     13  F   UNL     1       8.049   5.448  18.041  0.00  0.00    +0.000 F 
ATOM     14  C   UNL     1       6.759   4.657  16.229  0.00  0.00    +0.000 A 
ATOM     15  F   UNL     1       7.739   4.979  15.370  0.00  0.00    +0.000 F 
ATOM     16  C   UNL     1       5.596   4.063  15.763  0.00  0.00    +0.000 A 
ATOM     17  F   UNL     1       5.452   3.806  14.456  0.00  0.00    +0.000 F 
ATOM     18  C   UNL     1       4.581   3.719  16.654  0.00  0.00    +0.000 A 
ATOM     19  F   UNL     1       3.488   3.115  16.170  0.00  0.00    +0.000 F 
ENDBRANCH   8   9
ENDBRANCH   4   8
ENDBRANCH   1   2
BRANCH   1  22
ATOM     20  C   UNL     1       1.337  10.053  18.211  0.00  0.00    +0.000 C 
ATOM     21  O   UNL     1       2.166  10.570  17.462  0.00  0.00    +0.000 OA
ATOM     22  N   UNL     1       1.507   8.786  18.717  0.00  0.00    +0.000 N 
ATOM     23  H   UNL     1       0.800   8.424  19.350  0.00  0.00    +0.000 HD
BRANCH  20  30
ATOM     24  C   UNL     1       0.012  11.975  19.314  0.00  0.00    +0.000 A 
ATOM     25  C   UNL     1      -1.246  12.525  19.629  0.00  0.00    +0.000 A 
ATOM     26  C   UNL     1      -2.429  12.007  19.092  0.00  0.00    +0.000 A 
ATOM     27  C   UNL     1      -2.348  10.840  18.321  0.00  0.00    +0.000 A 
ATOM     28 CL   UNL     1      -3.775  10.122  17.658  0.00  0.00    +0.000 Cl
ATOM     29  C   UNL     1      -1.116  10.246  18.047  0.00  0.00    +0.000 A 
ATOM     30  C   UNL     1       0.079  10.799  18.544  0.00  0.00    +0.000 A 
BRANCH  26  31
ATOM     31  N   UNL     1      -3.660  12.536  19.518  0.00  0.00    +0.000 N 
ATOM     32  H   UNL     1      -4.282  12.841  18.775  0.00  0.00    +0.000 HD
ATOM     33  H   UNL     1      -4.127  11.948  20.207  0.00  0.00    +0.000 HD
ENDBRANCH  26  31
BRANCH  24  34
ATOM     34  O   UNL     1       1.182  12.545  19.753  0.00  0.00    +0.000 OA
BRANCH  34  36
ATOM     35  C   UNL     1       2.932  13.710  18.609  0.00  0.00    +0.000 C 
ATOM     36  C   UNL     1       1.522  13.804  19.158  0.00  0.00    +0.000 C 
ENDBRANCH  34  36
ENDBRANCH  24  34
ENDBRANCH  20  30
ENDBRANCH   1  22
TORSDOF 8
ENDMDL
MODEL 9
REMARK VINA RESULT:      -8.0      1.597      2.073
REMARK  Name = 
REMARK  9 active torsions:
REMARK  status: ('A' for Active; 'I' for Inactive)
REMARK    1  A    between atoms: C_1  and  C_2
REMARK    2  A    between atoms: C_2  and  O_3
REMARK    3  A    between atoms: O_3  and  C_4
REMARK    4  A    between atoms: C_6  and  N_7
REMARK    5  A    between atoms: C_11  and  C_12
REMARK    6  A    between atoms: N_14  and  C_15
REMARK    7  A    between atoms: C_15  and  C_16
REMARK    8  A    between atoms: N_18  and  C_19
REMARK    9  A    between atoms: C_19  and  C_20
REMARK                            x       y       z     vdW  Elec       q    Type
REMARK                         _______ _______ _______ _____ _____    ______ ____
ROOT
ATOM      1  C   UNL     1       2.469   8.098  18.131  0.00  0.00    +0.000 C 
ENDROOT
BRANCH   1   2
ATOM      2  C   UNL     1       2.595   6.791  18.938  0.00  0.00    +0.000 C 
ATOM      3  C   UNL     1       2.216   5.570  18.079  0.00  0.00    +0.000 C 
ATOM      4  N   UNL     1       2.379   4.280  18.791  0.00  0.00    +0.000 NA
ATOM      5  C   UNL     1       1.564   4.370  20.029  0.00  0.00    +0.000 C 
ATOM      6  C   UNL     1       1.834   5.638  20.868  0.00  0.00    +0.000 C 
ATOM      7  O   UNL     1       1.721   6.841  20.088  0.00  0.00    +0.000 OA
BRANCH   4   8
ATOM      8  C   UNL     1       3.782   3.945  19.117  0.00  0.00    +0.000 C 
BRANCH   8   9
ATOM      9  C   UNL     1       4.824   4.273  18.073  0.00  0.00    +0.000 A 
ATOM     10  C   UNL     1       5.925   5.063  18.436  0.00  0.00    +0.000 A 
ATOM     11  F   UNL     1       6.038   5.506  19.699  0.00  0.00    +0.000 F 
ATOM     12  C   UNL     1       6.926   5.385  17.521  0.00  0.00    +0.000 A 
ATOM     13  F   UNL     1       7.970   6.134  17.903  0.00  0.00    +0.000 F 
ATOM     14  C   UNL     1       6.851   4.911  16.224  0.00  0.00    +0.000 A 
ATOM     15  F   UNL     1       7.807   5.223  15.336  0.00  0.00    +0.000 F 
ATOM     16  C   UNL     1       5.789   4.104  15.844  0.00  0.00    +0.000 A 
ATOM     17  F   UNL     1       5.721   3.632  14.592  0.00  0.00    +0.000 F 
ATOM     18  C   UNL     1       4.800   3.770  16.767  0.00  0.00    +0.000 A 
ATOM     19  F   UNL     1       3.808   2.960  16.372  0.00  0.00    +0.000 F 
ENDBRANCH   8   9
ENDBRANCH   4   8
ENDBRANCH   1   2
BRANCH   1  22
ATOM     20  C   UNL     1       1.627  10.411  18.496  0.00  0.00    +0.000 C 
ATOM     21  O   UNL     1       2.550  10.904  17.847  0.00  0.00    +0.000 OA
ATOM     22  N   UNL     1       1.500   9.052  18.661  0.00  0.00    +0.000 N 
ATOM     23  H   UNL     1       0.730   8.709  19.228  0.00  0.00    +0.000 HD
BRANCH  20  30
ATOM     24  C   UNL     1      -0.416  10.909  19.995  0.00  0.00    +0.000 A 
ATOM     25  C   UNL     1      -1.397  11.834  20.400  0.00  0.00    +0.000 A 
ATOM     26  C   UNL     1      -1.339  13.179  20.019  0.00  0.00    +0.000 A 
ATOM     27  C   UNL     1      -0.340  13.567  19.118  0.00  0.00    +0.000 A 
ATOM     28 CL   UNL     1      -0.232  15.205  18.573  0.00  0.00    +0.000 Cl
ATOM     29  C   UNL     1       0.607  12.650  18.659  0.00  0.00    +0.000 A 
ATOM     30  C   UNL     1       0.578  11.310  19.084  0.00  0.00    +0.000 A 
BRANCH  26  31
ATOM     31  N   UNL     1      -2.397  14.035  20.373  0.00  0.00    +0.000 N 
ATOM     32  H   UNL     1      -2.530  14.837  19.765  0.00  0.00    +0.000 HD
ATOM     33  H   UNL     1      -3.265  13.535  20.562  0.00  0.00    +0.000 HD
ENDBRANCH  26  31
BRANCH  24  34
ATOM     34  O   UNL     1      -0.410   9.614  20.452  0.00  0.00    +0.000 OA
BRANCH  34  36
ATOM     35  C   UNL     1       1.046   9.257  22.318  0.00  0.00    +0.000 C 
ATOM     36  C   UNL     1      -0.391   9.456  21.876  0.00  0.00    +0.000 C 
ENDBRANCH  34  36
ENDBRANCH  24  34
ENDBRANCH  20  30
ENDBRANCH   1  22
TORSDOF 8
ENDMDL
