MODEL 1
REMARK VINA RESULT:      -7.9      0.000      0.000
REMARK  Name = 
REMARK  9 active torsions:
REMARK  status: ('A' for Active; 'I' for Inactive)
REMARK    1  A    between atoms: C_1  and  O_2
REMARK    2  A    between atoms: O_2  and  C_3
REMARK    3  A    between atoms: C_3  and  C_5
REMARK    4  A    between atoms: N_8  and  C_9
REMARK    5  A    between atoms: C_15  and  C_16
REMARK    6  A    between atoms: N_17  and  N_18
REMARK    7  A    between atoms: N_18  and  C_19
REMARK    8  A    between atoms: C_19  and  N_21
REMARK    9  A    between atoms: N_21  and  C_22
REMARK                            x       y       z     vdW  Elec       q    Type
REMARK                         _______ _______ _______ _____ _____    ______ ____
ROOT
ATOM      1  C   UNL     1       6.065   5.645  17.605  0.00  0.00    +0.000 A 
ATOM      2  C   UNL     1       6.497   4.521  18.328  0.00  0.00    +0.000 A 
ATOM      3  N   UNL     1       5.525   3.976  19.058  0.00  0.00    +0.000 NA
ATOM      4  N   UNL     1       4.404   4.653  18.695  0.00  0.00    +0.000 N 
ATOM      5  C   UNL     1       4.699   5.705  17.846  0.00  0.00    +0.000 A 
ENDROOT
BRANCH   4   6
ATOM      6  C   UNL     1       3.140   4.235  19.197  0.00  0.00    +0.000 A 
ATOM      7  C   UNL     1       2.352   3.376  18.415  0.00  0.00    +0.000 A 
ATOM      8  C   UNL     1       1.122   2.922  18.894  0.00  0.00    +0.000 A 
ATOM      9  C   UNL     1       0.657   3.352  20.136  0.00  0.00    +0.000 A 
ATOM     10  C   UNL     1       1.418   4.237  20.900  0.00  0.00    +0.000 A 
ATOM     11  C   UNL     1       2.662   4.676  20.437  0.00  0.00    +0.000 A 
ENDBRANCH   4   6
BRANCH   1  12
ATOM     12  C   UNL     1       6.874   6.590  16.857  0.00  0.00    +0.000 C 
ATOM     13  O   UNL     1       6.966   7.780  17.132  0.00  0.00    +0.000 OA
BRANCH  12  15
ATOM     14  C   UNL     1       6.800   5.222  14.955  0.00  0.00    +0.000 C 
ATOM     15  O   UNL     1       7.593   5.974  15.874  0.00  0.00    +0.000 OA
ENDBRANCH  12  15
ENDBRANCH   1  12
BRANCH   5  16
ATOM     16  C   UNL     1       3.780   6.698  17.382  0.00  0.00    +0.000 C 
ATOM     17  N   UNL     1       3.231   7.494  18.240  0.00  0.00    +0.000 NA
BRANCH  17  18
ATOM     18  N   UNL     1       2.234   8.281  17.749  0.00  0.00    +0.000 N 
ATOM     19  H   UNL     1       1.876   8.079  16.819  0.00  0.00    +0.000 HD
BRANCH  18  20
ATOM     20  C   UNL     1       1.445   9.042  18.587  0.00  0.00    +0.000 C 
ATOM     21  S   UNL     1       1.277   8.812  20.234  0.00  0.00    +0.000 S 
BRANCH  20  22
ATOM     22  N   UNL     1       0.869  10.143  17.998  0.00  0.00    +0.000 N 
ATOM     23  H   UNL     1       1.520  10.873  17.728  0.00  0.00    +0.000 HD
BRANCH  22  24
ATOM     24  C   UNL     1      -0.489  10.522  18.062  0.00  0.00    +0.000 A 
ATOM     25  C   UNL     1      -1.502   9.791  17.430  0.00  0.00    +0.000 A 
ATOM     26  C   UNL     1      -2.837  10.178  17.561  0.00  0.00    +0.000 A 
ATOM     27  C   UNL     1      -3.166  11.301  18.317  0.00  0.00    +0.000 A 
ATOM     28  C   UNL     1      -2.163  12.022  18.962  0.00  0.00    +0.000 A 
ATOM     29  C   UNL     1      -0.829  11.622  18.852  0.00  0.00    +0.000 A 
ENDBRANCH  22  24
ENDBRANCH  20  22
ENDBRANCH  18  20
ENDBRANCH  17  18
ENDBRANCH   5  16
TORSDOF 8
ENDMDL
MODEL 2
REMARK VINA RESULT:      -7.8      0.580      1.718
REMARK  Name = 
REMARK  9 active torsions:
REMARK  status: ('A' for Active; 'I' for Inactive)
REMARK    1  A    between atoms: C_1  and  O_2
REMARK    2  A    between atoms: O_2  and  C_3
REMARK    3  A    between atoms: C_3  and  C_5
REMARK    4  A    between atoms: N_8  and  C_9
REMARK    5  A    between atoms: C_15  and  C_16
REMARK    6  A    between atoms: N_17  and  N_18
REMARK    7  A    between atoms: N_18  and  C_19
REMARK    8  A    between atoms: C_19  and  N_21
REMARK    9  A    between atoms: N_21  and  C_22
REMARK                            x       y       z     vdW  Elec       q    Type
REMARK                         _______ _______ _______ _____ _____    ______ ____
ROOT
ATOM      1  C   UNL     1       6.084   5.662  17.800  0.00  0.00    +0.000 A 
ATOM      2  C   UNL     1       6.499   4.513  18.492  0.00  0.00    +0.000 A 
ATOM      3  N   UNL     1       5.492   3.891  19.105  0.00  0.00    +0.000 NA
ATOM      4  N   UNL     1       4.378   4.548  18.686  0.00  0.00    +0.000 N 
ATOM      5  C   UNL     1       4.701   5.659  17.926  0.00  0.00    +0.000 A 
ENDROOT
BRANCH   4   6
ATOM      6  C   UNL     1       3.095   4.057  19.053  0.00  0.00    +0.000 A 
ATOM      7  C   UNL     1       2.539   4.465  20.277  0.00  0.00    +0.000 A 
ATOM      8  C   UNL     1       1.268   4.026  20.649  0.00  0.00    +0.000 A 
ATOM      9  C   UNL     1       0.563   3.151  19.825  0.00  0.00    +0.000 A 
ATOM     10  C   UNL     1       1.128   2.711  18.628  0.00  0.00    +0.000 A 
ATOM     11  C   UNL     1       2.390   3.165  18.236  0.00  0.00    +0.000 A 
ENDBRANCH   4   6
BRANCH   1  12
ATOM     12  C   UNL     1       6.914   6.678  17.179  0.00  0.00    +0.000 C 
ATOM     13  O   UNL     1       7.550   6.506  16.147  0.00  0.00    +0.000 OA
BRANCH  12  15
ATOM     14  C   UNL     1       7.969   8.711  17.677  0.00  0.00    +0.000 C 
ATOM     15  O   UNL     1       6.822   7.874  17.831  0.00  0.00    +0.000 OA
ENDBRANCH  12  15
ENDBRANCH   1  12
BRANCH   5  16
ATOM     16  C   UNL     1       3.784   6.645  17.442  0.00  0.00    +0.000 C 
ATOM     17  N   UNL     1       3.190   7.418  18.289  0.00  0.00    +0.000 NA
BRANCH  17  18
ATOM     18  N   UNL     1       2.200   8.197  17.772  0.00  0.00    +0.000 N 
ATOM     19  H   UNL     1       1.838   7.966  16.850  0.00  0.00    +0.000 HD
BRANCH  18  20
ATOM     20  C   UNL     1       1.420   8.995  18.584  0.00  0.00    +0.000 C 
ATOM     21  S   UNL     1       1.289   8.855  20.244  0.00  0.00    +0.000 S 
BRANCH  20  22
ATOM     22  N   UNL     1       0.818  10.056  17.948  0.00  0.00    +0.000 N 
ATOM     23  H   UNL     1       1.456  10.767  17.606  0.00  0.00    +0.000 HD
BRANCH  22  24
ATOM     24  C   UNL     1      -0.537  10.436  18.038  0.00  0.00    +0.000 A 
ATOM     25  C   UNL     1      -0.955  11.555  18.771  0.00  0.00    +0.000 A 
ATOM     26  C   UNL     1      -2.303  11.920  18.792  0.00  0.00    +0.000 A 
ATOM     27  C   UNL     1      -3.240  11.167  18.090  0.00  0.00    +0.000 A 
ATOM     28  C   UNL     1      -2.827  10.062  17.346  0.00  0.00    +0.000 A 
ATOM     29  C   UNL     1      -1.476   9.710  17.304  0.00  0.00    +0.000 A 
ENDBRANCH  22  24
ENDBRANCH  20  22
ENDBRANCH  18  20
ENDBRANCH  17  18
ENDBRANCH   5  16
TORSDOF 8
ENDMDL
MODEL 3
REMARK VINA RESULT:      -7.7      2.625      4.689
REMARK  Name = 
REMARK  9 active torsions:
REMARK  status: ('A' for Active; 'I' for Inactive)
REMARK    1  A    between atoms: C_1  and  O_2
REMARK    2  A    between atoms: O_2  and  C_3
REMARK    3  A    between atoms: C_3  and  C_5
REMARK    4  A    between atoms: N_8  and  C_9
REMARK    5  A    between atoms: C_15  and  C_16
REMARK    6  A    between atoms: N_17  and  N_18
REMARK    7  A    between atoms: N_18  and  C_19
REMARK    8  A    between atoms: C_19  and  N_21
REMARK    9  A    between atoms: N_21  and  C_22
REMARK                            x       y       z     vdW  Elec       q    Type
REMARK                         _______ _______ _______ _____ _____    ______ ____
ROOT
ATOM      1  C   UNL     1       2.404   3.462  18.833  0.00  0.00    +0.000 A 
ATOM      2  C   UNL     1       3.097   2.768  17.828  0.00  0.00    +0.000 A 
ATOM      3  N   UNL     1       4.176   3.424  17.402  0.00  0.00    +0.000 NA
ATOM      4  N   UNL     1       4.283   4.488  18.241  0.00  0.00    +0.000 N 
ATOM      5  C   UNL     1       3.199   4.570  19.097  0.00  0.00    +0.000 A 
ENDROOT
BRANCH   4   6
ATOM      6  C   UNL     1       5.417   5.342  18.149  0.00  0.00    +0.000 A 
ATOM      7  C   UNL     1       5.397   6.395  17.221  0.00  0.00    +0.000 A 
ATOM      8  C   UNL     1       6.481   7.270  17.130  0.00  0.00    +0.000 A 
ATOM      9  C   UNL     1       7.603   7.075  17.934  0.00  0.00    +0.000 A 
ATOM     10  C   UNL     1       7.644   6.006  18.829  0.00  0.00    +0.000 A 
ATOM     11  C   UNL     1       6.552   5.141  18.943  0.00  0.00    +0.000 A 
ENDBRANCH   4   6
BRANCH   1  12
ATOM     12  C   UNL     1       1.105   3.150  19.399  0.00  0.00    +0.000 C 
ATOM     13  O   UNL     1       0.236   2.517  18.811  0.00  0.00    +0.000 OA
BRANCH  12  15
ATOM     14  C   UNL     1       1.479   2.613  21.650  0.00  0.00    +0.000 C 
ATOM     15  O   UNL     1       1.004   3.564  20.696  0.00  0.00    +0.000 OA
ENDBRANCH  12  15
ENDBRANCH   1  12
BRANCH   5  16
ATOM     16  C   UNL     1       2.924   5.635  20.012  0.00  0.00    +0.000 C 
ATOM     17  N   UNL     1       2.227   6.645  19.607  0.00  0.00    +0.000 NA
BRANCH  17  18
ATOM     18  N   UNL     1       2.168   7.696  20.471  0.00  0.00    +0.000 N 
ATOM     19  H   UNL     1       3.028   7.995  20.923  0.00  0.00    +0.000 HD
BRANCH  18  20
ATOM     20  C   UNL     1       1.117   8.589  20.440  0.00  0.00    +0.000 C 
ATOM     21  S   UNL     1      -0.097   8.699  21.583  0.00  0.00    +0.000 S 
BRANCH  20  22
ATOM     22  N   UNL     1       1.185   9.527  19.437  0.00  0.00    +0.000 N 
ATOM     23  H   UNL     1       2.110   9.908  19.269  0.00  0.00    +0.000 HD
BRANCH  22  24
ATOM     24  C   UNL     1       0.109  10.262  18.893  0.00  0.00    +0.000 A 
ATOM     25  C   UNL     1      -0.158  11.586  19.264  0.00  0.00    +0.000 A 
ATOM     26  C   UNL     1      -1.205  12.288  18.663  0.00  0.00    +0.000 A 
ATOM     27  C   UNL     1      -1.994  11.670  17.696  0.00  0.00    +0.000 A 
ATOM     28  C   UNL     1      -1.722  10.358  17.311  0.00  0.00    +0.000 A 
ATOM     29  C   UNL     1      -0.659   9.662  17.894  0.00  0.00    +0.000 A 
ENDBRANCH  22  24
ENDBRANCH  20  22
ENDBRANCH  18  20
ENDBRANCH  17  18
ENDBRANCH   5  16
TORSDOF 8
ENDMDL
MODEL 4
REMARK VINA RESULT:      -7.7      0.748      1.432
REMARK  Name = 
REMARK  9 active torsions:
REMARK  status: ('A' for Active; 'I' for Inactive)
REMARK    1  A    between atoms: C_1  and  O_2
REMARK    2  A    between atoms: O_2  and  C_3
REMARK    3  A    between atoms: C_3  and  C_5
REMARK    4  A    between atoms: N_8  and  C_9
REMARK    5  A    between atoms: C_15  and  C_16
REMARK    6  A    between atoms: N_17  and  N_18
REMARK    7  A    between atoms: N_18  and  C_19
REMARK    8  A    between atoms: C_19  and  N_21
REMARK    9  A    between atoms: N_21  and  C_22
REMARK                            x       y       z     vdW  Elec       q    Type
REMARK                         _______ _______ _______ _____ _____    ______ ____
ROOT
ATOM      1  C   UNL     1       5.925   5.792  17.956  0.00  0.00    +0.000 A 
ATOM      2  C   UNL     1       6.389   4.681  18.679  0.00  0.00    +0.000 A 
ATOM      3  N   UNL     1       5.407   4.024  19.296  0.00  0.00    +0.000 NA
ATOM      4  N   UNL     1       4.267   4.614  18.851  0.00  0.00    +0.000 N 
ATOM      5  C   UNL     1       4.542   5.723  18.069  0.00  0.00    +0.000 A 
ENDROOT
BRANCH   4   6
ATOM      6  C   UNL     1       3.006   4.068  19.217  0.00  0.00    +0.000 A 
ATOM      7  C   UNL     1       2.380   3.167  18.341  0.00  0.00    +0.000 A 
ATOM      8  C   UNL     1       1.158   2.588  18.687  0.00  0.00    +0.000 A 
ATOM      9  C   UNL     1       0.539   2.932  19.888  0.00  0.00    +0.000 A 
ATOM     10  C   UNL     1       1.138   3.857  20.743  0.00  0.00    +0.000 A 
ATOM     11  C   UNL     1       2.373   4.422  20.415  0.00  0.00    +0.000 A 
ENDBRANCH   4   6
BRANCH   1  12
ATOM     12  C   UNL     1       6.709   6.834  17.320  0.00  0.00    +0.000 C 
ATOM     13  O   UNL     1       6.441   7.325  16.230  0.00  0.00    +0.000 OA
BRANCH  12  15
ATOM     14  C   UNL     1       8.111   8.622  17.896  0.00  0.00    +0.000 C 
ATOM     15  O   UNL     1       7.724   7.266  18.124  0.00  0.00    +0.000 OA
ENDBRANCH  12  15
ENDBRANCH   1  12
BRANCH   5  16
ATOM     16  C   UNL     1       3.583   6.650  17.553  0.00  0.00    +0.000 C 
ATOM     17  N   UNL     1       3.281   7.694  18.252  0.00  0.00    +0.000 NA
BRANCH  17  18
ATOM     18  N   UNL     1       2.231   8.424  17.784  0.00  0.00    +0.000 N 
ATOM     19  H   UNL     1       1.889   8.229  16.847  0.00  0.00    +0.000 HD
BRANCH  18  20
ATOM     20  C   UNL     1       1.390   9.099  18.645  0.00  0.00    +0.000 C 
ATOM     21  S   UNL     1       1.204   8.773  20.273  0.00  0.00    +0.000 S 
BRANCH  20  22
ATOM     22  N   UNL     1       0.770  10.200  18.104  0.00  0.00    +0.000 N 
ATOM     23  H   UNL     1       1.387  10.977  17.891  0.00  0.00    +0.000 HD
BRANCH  22  24
ATOM     24  C   UNL     1      -0.607  10.504  18.153  0.00  0.00    +0.000 A 
ATOM     25  C   UNL     1      -1.118  11.549  18.934  0.00  0.00    +0.000 A 
ATOM     26  C   UNL     1      -2.483  11.842  18.914  0.00  0.00    +0.000 A 
ATOM     27  C   UNL     1      -3.346  11.088  18.122  0.00  0.00    +0.000 A 
ATOM     28  C   UNL     1      -2.841  10.058  17.330  0.00  0.00    +0.000 A 
ATOM     29  C   UNL     1      -1.471   9.779  17.331  0.00  0.00    +0.000 A 
ENDBRANCH  22  24
ENDBRANCH  20  22
ENDBRANCH  18  20
ENDBRANCH  17  18
ENDBRANCH   5  16
TORSDOF 8
ENDMDL
MODEL 5
REMARK VINA RESULT:      -7.7      1.757      2.493
REMARK  Name = 
REMARK  9 active torsions:
REMARK  status: ('A' for Active; 'I' for Inactive)
REMARK    1  A    between atoms: C_1  and  O_2
REMARK    2  A    between atoms: O_2  and  C_3
REMARK    3  A    between atoms: C_3  and  C_5
REMARK    4  A    between atoms: N_8  and  C_9
REMARK    5  A    between atoms: C_15  and  C_16
REMARK    6  A    between atoms: N_17  and  N_18
REMARK    7  A    between atoms: N_18  and  C_19
REMARK    8  A    between atoms: C_19  and  N_21
REMARK    9  A    between atoms: N_21  and  C_22
REMARK                            x       y       z     vdW  Elec       q    Type
REMARK                         _______ _______ _______ _____ _____    ______ ____
ROOT
ATOM      1  C   UNL     1       6.184   5.920  17.905  0.00  0.00    +0.000 A 
ATOM      2  C   UNL     1       6.583   4.851  18.722  0.00  0.00    +0.000 A 
ATOM      3  N   UNL     1       5.561   4.286  19.365  0.00  0.00    +0.000 NA
ATOM      4  N   UNL     1       4.458   4.889  18.850  0.00  0.00    +0.000 N 
ATOM      5  C   UNL     1       4.797   5.920  17.991  0.00  0.00    +0.000 A 
ENDROOT
BRANCH   4   6
ATOM      6  C   UNL     1       3.167   4.426  19.227  0.00  0.00    +0.000 A 
ATOM      7  C   UNL     1       2.416   3.684  18.301  0.00  0.00    +0.000 A 
ATOM      8  C   UNL     1       1.160   3.188  18.654  0.00  0.00    +0.000 A 
ATOM      9  C   UNL     1       0.631   3.462  19.914  0.00  0.00    +0.000 A 
ATOM     10  C   UNL     1       1.356   4.233  20.823  0.00  0.00    +0.000 A 
ATOM     11  C   UNL     1       2.625   4.712  20.486  0.00  0.00    +0.000 A 
ENDBRANCH   4   6
BRANCH   1  12
ATOM     12  C   UNL     1       7.026   6.875  17.210  0.00  0.00    +0.000 C 
ATOM     13  O   UNL     1       7.708   6.601  16.230  0.00  0.00    +0.000 OA
BRANCH  12  15
ATOM     14  C   UNL     1       8.131   8.808  17.944  0.00  0.00    +0.000 C 
ATOM     15  O   UNL     1       6.892   8.134  17.719  0.00  0.00    +0.000 OA
ENDBRANCH  12  15
ENDBRANCH   1  12
BRANCH   5  16
ATOM     16  C   UNL     1       3.890   6.844  17.383  0.00  0.00    +0.000 C 
ATOM     17  N   UNL     1       3.366   7.776  18.108  0.00  0.00    +0.000 NA
BRANCH  17  18
ATOM     18  N   UNL     1       2.378   8.495  17.507  0.00  0.00    +0.000 N 
ATOM     19  H   UNL     1       1.854   8.056  16.754  0.00  0.00    +0.000 HD
BRANCH  18  20
ATOM     20  C   UNL     1       1.811   9.589  18.127  0.00  0.00    +0.000 C 
ATOM     21  S   UNL     1       2.338  11.168  17.981  0.00  0.00    +0.000 S 
BRANCH  20  22
ATOM     22  N   UNL     1       0.645   9.328  18.809  0.00  0.00    +0.000 N 
ATOM     23  H   UNL     1      -0.164   9.154  18.223  0.00  0.00    +0.000 HD
BRANCH  22  24
ATOM     24  C   UNL     1       0.373   9.628  20.161  0.00  0.00    +0.000 A 
ATOM     25  C   UNL     1      -0.517  10.641  20.540  0.00  0.00    +0.000 A 
ATOM     26  C   UNL     1      -0.792  10.869  21.891  0.00  0.00    +0.000 A 
ATOM     27  C   UNL     1      -0.173  10.094  22.868  0.00  0.00    +0.000 A 
ATOM     28  C   UNL     1       0.701   9.073  22.495  0.00  0.00    +0.000 A 
ATOM     29  C   UNL     1       0.958   8.828  21.144  0.00  0.00    +0.000 A 
ENDBRANCH  22  24
ENDBRANCH  20  22
ENDBRANCH  18  20
ENDBRANCH  17  18
ENDBRANCH   5  16
TORSDOF 8
ENDMDL
MODEL 6
REMARK VINA RESULT:      -7.7      0.745      1.458
REMARK  Name = 
REMARK  9 active torsions:
REMARK  status: ('A' for Active; 'I' for Inactive)
REMARK    1  A    between atoms: C_1  and  O_2
REMARK    2  A    between atoms: O_2  and  C_3
REMARK    3  A    between atoms: C_3  and  C_5
REMARK    4  A    between atoms: N_8  and  C_9
REMARK    5  A    between atoms: C_15  and  C_16
REMARK    6  A    between atoms: N_17  and  N_18
REMARK    7  A    between atoms: N_18  and  C_19
REMARK    8  A    between atoms: C_19  and  N_21
REMARK    9  A    between atoms: N_21  and  C_22
REMARK                            x       y       z     vdW  Elec       q    Type
REMARK                         _______ _______ _______ _____ _____    ______ ____
ROOT
ATOM      1  C   UNL     1       6.062   5.841  17.994  0.00  0.00    +0.000 A 
ATOM      2  C   UNL     1       6.505   4.689  18.664  0.00  0.00    +0.000 A 
ATOM      3  N   UNL     1       5.510   4.022  19.248  0.00  0.00    +0.000 NA
ATOM      4  N   UNL     1       4.382   4.654  18.831  0.00  0.00    +0.000 N 
ATOM      5  C   UNL     1       4.678   5.793  18.103  0.00  0.00    +0.000 A 
ENDROOT
BRANCH   4   6
ATOM      6  C   UNL     1       3.110   4.114  19.170  0.00  0.00    +0.000 A 
ATOM      7  C   UNL     1       2.586   4.369  20.447  0.00  0.00    +0.000 A 
ATOM      8  C   UNL     1       1.326   3.881  20.797  0.00  0.00    +0.000 A 
ATOM      9  C   UNL     1       0.602   3.107  19.892  0.00  0.00    +0.000 A 
ATOM     10  C   UNL     1       1.136   2.817  18.636  0.00  0.00    +0.000 A 
ATOM     11  C   UNL     1       2.386   3.323  18.269  0.00  0.00    +0.000 A 
ENDBRANCH   4   6
BRANCH   1  12
ATOM     12  C   UNL     1       6.867   6.898  17.409  0.00  0.00    +0.000 C 
ATOM     13  O   UNL     1       6.627   7.424  16.329  0.00  0.00    +0.000 OA
BRANCH  12  15
ATOM     14  C   UNL     1       8.248   8.666  18.089  0.00  0.00    +0.000 C 
ATOM     15  O   UNL     1       7.865   7.299  18.250  0.00  0.00    +0.000 OA
ENDBRANCH  12  15
ENDBRANCH   1  12
BRANCH   5  16
ATOM     16  C   UNL     1       3.737   6.762  17.630  0.00  0.00    +0.000 C 
ATOM     17  N   UNL     1       3.052   7.440  18.490  0.00  0.00    +0.000 NA
BRANCH  17  18
ATOM     18  N   UNL     1       2.051   8.201  17.966  0.00  0.00    +0.000 N 
ATOM     19  H   UNL     1       1.663   7.932  17.066  0.00  0.00    +0.000 HD
BRANCH  18  20
ATOM     20  C   UNL     1       1.298   9.039  18.763  0.00  0.00    +0.000 C 
ATOM     21  S   UNL     1       1.148   8.922  20.423  0.00  0.00    +0.000 S 
BRANCH  20  22
ATOM     22  N   UNL     1       0.747  10.117  18.111  0.00  0.00    +0.000 N 
ATOM     23  H   UNL     1       1.403  10.851  17.868  0.00  0.00    +0.000 HD
BRANCH  22  24
ATOM     24  C   UNL     1      -0.618  10.473  18.073  0.00  0.00    +0.000 A 
ATOM     25  C   UNL     1      -1.560   9.759  17.321  0.00  0.00    +0.000 A 
ATOM     26  C   UNL     1      -2.908  10.121  17.353  0.00  0.00    +0.000 A 
ATOM     27  C   UNL     1      -3.322  11.201  18.129  0.00  0.00    +0.000 A 
ATOM     28  C   UNL     1      -2.391  11.905  18.893  0.00  0.00    +0.000 A 
ATOM     29  C   UNL     1      -1.046  11.529  18.880  0.00  0.00    +0.000 A 
ENDBRANCH  22  24
ENDBRANCH  20  22
ENDBRANCH  18  20
ENDBRANCH  17  18
ENDBRANCH   5  16
TORSDOF 8
ENDMDL
MODEL 7
REMARK VINA RESULT:      -7.7      2.575      4.607
REMARK  Name = 
REMARK  9 active torsions:
REMARK  status: ('A' for Active; 'I' for Inactive)
REMARK    1  A    between atoms: C_1  and  O_2
REMARK    2  A    between atoms: O_2  and  C_3
REMARK    3  A    between atoms: C_3  and  C_5
REMARK    4  A    between atoms: N_8  and  C_9
REMARK    5  A    between atoms: C_15  and  C_16
REMARK    6  A    between atoms: N_17  and  N_18
REMARK    7  A    between atoms: N_18  and  C_19
REMARK    8  A    between atoms: C_19  and  N_21
REMARK    9  A    between atoms: N_21  and  C_22
REMARK                            x       y       z     vdW  Elec       q    Type
REMARK                         _______ _______ _______ _____ _____    ______ ____
ROOT
ATOM      1  C   UNL     1       2.974   3.445  18.401  0.00  0.00    +0.000 A 
ATOM      2  C   UNL     1       3.761   2.909  17.368  0.00  0.00    +0.000 A 
ATOM      3  N   UNL     1       4.802   3.683  17.063  0.00  0.00    +0.000 NA
ATOM      4  N   UNL     1       4.789   4.662  18.005  0.00  0.00    +0.000 N 
ATOM      5  C   UNL     1       3.667   4.577  18.810  0.00  0.00    +0.000 A 
ENDROOT
BRANCH   4   6
ATOM      6  C   UNL     1       5.856   5.602  18.052  0.00  0.00    +0.000 A 
ATOM      7  C   UNL     1       6.900   5.395  18.968  0.00  0.00    +0.000 A 
ATOM      8  C   UNL     1       7.977   6.282  19.015  0.00  0.00    +0.000 A 
ATOM      9  C   UNL     1       7.999   7.397  18.179  0.00  0.00    +0.000 A 
ATOM     10  C   UNL     1       6.945   7.628  17.296  0.00  0.00    +0.000 A 
ATOM     11  C   UNL     1       5.875   6.732  17.225  0.00  0.00    +0.000 A 
ENDBRANCH   4   6
BRANCH   1  12
ATOM     12  C   UNL     1       1.680   2.983  18.868  0.00  0.00    +0.000 C 
ATOM     13  O   UNL     1       0.626   3.190  18.280  0.00  0.00    +0.000 OA
BRANCH  12  15
ATOM     14  C   UNL     1       1.318   2.835  21.179  0.00  0.00    +0.000 C 
ATOM     15  O   UNL     1       1.793   2.209  19.987  0.00  0.00    +0.000 OA
ENDBRANCH  12  15
ENDBRANCH   1  12
BRANCH   5  16
ATOM     16  C   UNL     1       3.272   5.521  19.809  0.00  0.00    +0.000 C 
ATOM     17  N   UNL     1       2.491   6.495  19.476  0.00  0.00    +0.000 NA
BRANCH  17  18
ATOM     18  N   UNL     1       2.313   7.451  20.431  0.00  0.00    +0.000 N 
ATOM     19  H   UNL     1       3.083   7.647  21.064  0.00  0.00    +0.000 HD
BRANCH  18  20
ATOM     20  C   UNL     1       1.322   8.404  20.312  0.00  0.00    +0.000 C 
ATOM     21  S   UNL     1       0.182   8.770  21.477  0.00  0.00    +0.000 S 
BRANCH  20  22
ATOM     22  N   UNL     1       1.397   9.177  19.176  0.00  0.00    +0.000 N 
ATOM     23  H   UNL     1       2.307   9.190  18.727  0.00  0.00    +0.000 HD
BRANCH  22  24
ATOM     24  C   UNL     1       0.505  10.200  18.791  0.00  0.00    +0.000 A 
ATOM     25  C   UNL     1      -0.727   9.931  18.181  0.00  0.00    +0.000 A 
ATOM     26  C   UNL     1      -1.598  10.974  17.861  0.00  0.00    +0.000 A 
ATOM     27  C   UNL     1      -1.240  12.291  18.140  0.00  0.00    +0.000 A 
ATOM     28  C   UNL     1      -0.023  12.563  18.763  0.00  0.00    +0.000 A 
ATOM     29  C   UNL     1       0.839  11.518  19.105  0.00  0.00    +0.000 A 
ENDBRANCH  22  24
ENDBRANCH  20  22
ENDBRANCH  18  20
ENDBRANCH  17  18
ENDBRANCH   5  16
TORSDOF 8
ENDMDL
MODEL 8
REMARK VINA RESULT:      -7.6      3.376      7.333
REMARK  Name = 
REMARK  9 active torsions:
REMARK  status: ('A' for Active; 'I' for Inactive)
REMARK    1  A    between atoms: C_1  and  O_2
REMARK    2  A    between atoms: O_2  and  C_3
REMARK    3  A    between atoms: C_3  and  C_5
REMARK    4  A    between atoms: N_8  and  C_9
REMARK    5  A    between atoms: C_15  and  C_16
REMARK    6  A    between atoms: N_17  and  N_18
REMARK    7  A    between atoms: N_18  and  C_19
REMARK    8  A    between atoms: C_19  and  N_21
REMARK    9  A    between atoms: N_21  and  C_22
REMARK                            x       y       z     vdW  Elec       q    Type
REMARK                         _______ _______ _______ _____ _____    ______ ____
ROOT
ATOM      1  C   UNL     1       3.164   3.776  19.982  0.00  0.00    +0.000 A 
ATOM      2  C   UNL     1       2.221   4.041  20.988  0.00  0.00    +0.000 A 
ATOM      3  N   UNL     1       1.816   5.311  20.990  0.00  0.00    +0.000 NA
ATOM      4  N   UNL     1       2.381   5.852  19.880  0.00  0.00    +0.000 N 
ATOM      5  C   UNL     1       3.244   4.963  19.264  0.00  0.00    +0.000 A 
ENDROOT
BRANCH   4   6
ATOM      6  C   UNL     1       2.048   7.183  19.502  0.00  0.00    +0.000 A 
ATOM      7  C   UNL     1       2.262   7.582  18.173  0.00  0.00    +0.000 A 
ATOM      8  C   UNL     1       1.913   8.871  17.764  0.00  0.00    +0.000 A 
ATOM      9  C   UNL     1       1.389   9.776  18.685  0.00  0.00    +0.000 A 
ATOM     10  C   UNL     1       1.213   9.397  20.016  0.00  0.00    +0.000 A 
ATOM     11  C   UNL     1       1.536   8.101  20.427  0.00  0.00    +0.000 A 
ENDBRANCH   4   6
BRANCH   1  12
ATOM     12  C   UNL     1       3.954   2.573  19.793  0.00  0.00    +0.000 C 
ATOM     13  O   UNL     1       4.750   2.140  20.617  0.00  0.00    +0.000 OA
BRANCH  12  15
ATOM     14  C   UNL     1       2.227   1.768  18.427  0.00  0.00    +0.000 C 
ATOM     15  O   UNL     1       3.631   1.933  18.632  0.00  0.00    +0.000 OA
ENDBRANCH  12  15
ENDBRANCH   1  12
BRANCH   5  16
ATOM     16  C   UNL     1       4.102   5.249  18.155  0.00  0.00    +0.000 C 
ATOM     17  N   UNL     1       5.196   5.904  18.363  0.00  0.00    +0.000 NA
BRANCH  17  18
ATOM     18  N   UNL     1       5.860   6.298  17.241  0.00  0.00    +0.000 N 
ATOM     19  H   UNL     1       5.725   7.250  16.912  0.00  0.00    +0.000 HD
BRANCH  18  20
ATOM     20  C   UNL     1       6.976   5.619  16.796  0.00  0.00    +0.000 C 
ATOM     21  S   UNL     1       7.834   4.484  17.671  0.00  0.00    +0.000 S 
BRANCH  20  22
ATOM     22  N   UNL     1       7.294   5.833  15.475  0.00  0.00    +0.000 N 
ATOM     23  H   UNL     1       7.582   6.780  15.252  0.00  0.00    +0.000 HD
BRANCH  22  24
ATOM     24  C   UNL     1       6.927   5.026  14.376  0.00  0.00    +0.000 A 
ATOM     25  C   UNL     1       5.788   4.213  14.391  0.00  0.00    +0.000 A 
ATOM     26  C   UNL     1       5.439   3.468  13.261  0.00  0.00    +0.000 A 
ATOM     27  C   UNL     1       6.230   3.526  12.117  0.00  0.00    +0.000 A 
ATOM     28  C   UNL     1       7.357   4.347  12.092  0.00  0.00    +0.000 A 
ATOM     29  C   UNL     1       7.693   5.111  13.213  0.00  0.00    +0.000 A 
ENDBRANCH  22  24
ENDBRANCH  20  22
ENDBRANCH  18  20
ENDBRANCH  17  18
ENDBRANCH   5  16
TORSDOF 8
ENDMDL
MODEL 9
REMARK VINA RESULT:      -7.6      1.805      2.691
REMARK  Name = 
REMARK  9 active torsions:
REMARK  status: ('A' for Active; 'I' for Inactive)
REMARK    1  A    between atoms: C_1  and  O_2
REMARK    2  A    between atoms: O_2  and  C_3
REMARK    3  A    between atoms: C_3  and  C_5
REMARK    4  A    between atoms: N_8  and  C_9
REMARK    5  A    between atoms: C_15  and  C_16
REMARK    6  A    between atoms: N_17  and  N_18
REMARK    7  A    between atoms: N_18  and  C_19
REMARK    8  A    between atoms: C_19  and  N_21
REMARK    9  A    between atoms: N_21  and  C_22
REMARK                            x       y       z     vdW  Elec       q    Type
REMARK                         _______ _______ _______ _____ _____    ______ ____
ROOT
ATOM      1  C   UNL     1       6.244   6.044  17.894  0.00  0.00    +0.000 A 
ATOM      2  C   UNL     1       6.639   4.949  18.679  0.00  0.00    +0.000 A 
ATOM      3  N   UNL     1       5.613   4.368  19.301  0.00  0.00    +0.000 NA
ATOM      4  N   UNL     1       4.513   4.989  18.802  0.00  0.00    +0.000 N 
ATOM      5  C   UNL     1       4.857   6.045  17.976  0.00  0.00    +0.000 A 
ENDROOT
BRANCH   4   6
ATOM      6  C   UNL     1       3.220   4.519  19.161  0.00  0.00    +0.000 A 
ATOM      7  C   UNL     1       2.683   4.899  20.402  0.00  0.00    +0.000 A 
ATOM      8  C   UNL     1       1.402   4.482  20.769  0.00  0.00    +0.000 A 
ATOM      9  C   UNL     1       0.669   3.654  19.920  0.00  0.00    +0.000 A 
ATOM     10  C   UNL     1       1.214   3.241  18.705  0.00  0.00    +0.000 A 
ATOM     11  C   UNL     1       2.486   3.675  18.319  0.00  0.00    +0.000 A 
ENDBRANCH   4   6
BRANCH   1  12
ATOM     12  C   UNL     1       7.091   7.017  17.230  0.00  0.00    +0.000 C 
ATOM     13  O   UNL     1       7.768   6.773  16.238  0.00  0.00    +0.000 OA
BRANCH  12  15
ATOM     14  C   UNL     1       8.207   8.952  17.942  0.00  0.00    +0.000 C 
ATOM     15  O   UNL     1       6.968   8.258  17.785  0.00  0.00    +0.000 OA
ENDBRANCH  12  15
ENDBRANCH   1  12
BRANCH   5  16
ATOM     16  C   UNL     1       3.955   6.990  17.393  0.00  0.00    +0.000 C 
ATOM     17  N   UNL     1       3.186   7.681  18.168  0.00  0.00    +0.000 NA
BRANCH  17  18
ATOM     18  N   UNL     1       2.231   8.417  17.535  0.00  0.00    +0.000 N 
ATOM     19  H   UNL     1       1.667   7.961  16.822  0.00  0.00    +0.000 HD
BRANCH  18  20
ATOM     20  C   UNL     1       1.744   9.583  18.087  0.00  0.00    +0.000 C 
ATOM     21  S   UNL     1       2.379  11.110  17.846  0.00  0.00    +0.000 S 
BRANCH  20  22
ATOM     22  N   UNL     1       0.566   9.446  18.783  0.00  0.00    +0.000 N 
ATOM     23  H   UNL     1      -0.275   9.542  18.223  0.00  0.00    +0.000 HD
BRANCH  22  24
ATOM     24  C   UNL     1       0.392   9.555  20.179  0.00  0.00    +0.000 A 
ATOM     25  C   UNL     1       1.163   8.822  21.090  0.00  0.00    +0.000 A 
ATOM     26  C   UNL     1       0.987   8.999  22.465  0.00  0.00    +0.000 A 
ATOM     27  C   UNL     1       0.036   9.901  22.935  0.00  0.00    +0.000 A 
ATOM     28  C   UNL     1      -0.722  10.645  22.032  0.00  0.00    +0.000 A 
ATOM     29  C   UNL     1      -0.531  10.487  20.657  0.00  0.00    +0.000 A 
ENDBRANCH  22  24
ENDBRANCH  20  22
ENDBRANCH  18  20
ENDBRANCH  17  18
ENDBRANCH   5  16
TORSDOF 8
ENDMDL
