MODEL 1
REMARK VINA RESULT:      -7.4      0.000      0.000
REMARK  Name = 
REMARK  5 active torsions:
REMARK  status: ('A' for Active; 'I' for Inactive)
REMARK    1  A    between atoms: C_2  and  C_3
REMARK    2  A    between atoms: C_9  and  C_11
REMARK    3  A    between atoms: C_11  and  N_12
REMARK    4  A    between atoms: C_11  and  C_13
REMARK    5  A    between atoms: C_19  and  O_20
REMARK                            x       y       z     vdW  Elec       q    Type
REMARK                         _______ _______ _______ _____ _____    ______ ____
ROOT
ATOM      1  C   UNL     1       3.496   5.566  18.189  0.00  0.00    +0.000 C 
ENDROOT
BRANCH   1   2
ATOM      2  C   UNL     1       2.700   4.602  19.087  0.00  0.00    +0.000 C 
ATOM      3  C   UNL     1       1.764   5.152  20.198  0.00  0.00    +0.000 C 
ATOM      4  C   UNL     1       1.164   3.952  21.006  0.00  0.00    +0.000 C 
ATOM      5  C   UNL     1       0.389   2.958  20.112  0.00  0.00    +0.000 C 
ATOM      6  C   UNL     1       1.278   2.493  18.954  0.00  0.00    +0.000 C 
ATOM      7  C   UNL     1       2.470   1.724  19.533  0.00  0.00    +0.000 C 
ATOM      8  C   UNL     1       3.227   2.584  20.555  0.00  0.00    +0.000 C 
ATOM      9  C   UNL     1       2.331   3.182  21.645  0.00  0.00    +0.000 C 
ATOM     10  C   UNL     1       3.810   3.752  19.771  0.00  0.00    +0.000 C 
ATOM     11  C   UNL     1       1.750   3.741  18.201  0.00  0.00    +0.000 C 
BRANCH   8  12
ATOM     12  O   UNL     1       4.282   1.846  21.138  0.00  0.00    +0.000 OA
ATOM     13  H   UNL     1       4.976   1.723  20.469  0.00  0.00    +0.000 HD
ENDBRANCH   8  12
ENDBRANCH   1   2
BRANCH   1  20
ATOM     14  C   UNL     1       6.396   6.232  17.969  0.00  0.00    +0.000 C 
ATOM     15  C   UNL     1       7.417   6.736  16.902  0.00  0.00    +0.000 C 
ATOM     16  C   UNL     1       7.746   5.517  16.067  0.00  0.00    +0.000 C 
ATOM     17  C   UNL     1       6.859   5.061  14.939  0.00  0.00    +0.000 C 
ATOM     18  C   UNL     1       6.648   4.521  16.316  0.00  0.00    +0.000 C 
ATOM     19  N   UNL     1       5.732   5.094  17.270  0.00  0.00    +0.000 N 
ATOM     20  C   UNL     1       4.382   4.865  17.142  0.00  0.00    +0.000 C 
ATOM     21  O   UNL     1       3.886   4.174  16.262  0.00  0.00    +0.000 OA
BRANCH  14  23
ATOM     22  N   UNL     1       7.840   5.273  20.143  0.00  0.00    +0.000 NA
ATOM     23  C   UNL     1       7.185   5.708  19.157  0.00  0.00    +0.000 C 
ENDBRANCH  14  23
ENDBRANCH   1  20
BRANCH   1  24
ATOM     24  N   UNL     1       2.742   6.642  17.553  0.00  0.00    +0.000 NA
ATOM     25  H   UNL     1       1.787   6.641  17.922  0.00  0.00    +0.000 HD
ATOM     26  H   UNL     1       2.657   6.505  16.541  0.00  0.00    +0.000 HD
ENDBRANCH   1  24
TORSDOF 5
ENDMDL
MODEL 2
REMARK VINA RESULT:      -7.2      2.065      5.878
REMARK  Name = 
REMARK  5 active torsions:
REMARK  status: ('A' for Active; 'I' for Inactive)
REMARK    1  A    between atoms: C_2  and  C_3
REMARK    2  A    between atoms: C_9  and  C_11
REMARK    3  A    between atoms: C_11  and  N_12
REMARK    4  A    between atoms: C_11  and  C_13
REMARK    5  A    between atoms: C_19  and  O_20
REMARK                            x       y       z     vdW  Elec       q    Type
REMARK                         _______ _______ _______ _____ _____    ______ ____
ROOT
ATOM      1  C   UNL     1       3.498   5.759  18.003  0.00  0.00    +0.000 C 
ENDROOT
BRANCH   1   2
ATOM      2  C   UNL     1       4.978   5.626  17.599  0.00  0.00    +0.000 C 
ATOM      3  C   UNL     1       5.448   4.438  16.716  0.00  0.00    +0.000 C 
ATOM      4  C   UNL     1       7.004   4.507  16.546  0.00  0.00    +0.000 C 
ATOM      5  C   UNL     1       7.478   5.842  15.927  0.00  0.00    +0.000 C 
ATOM      6  C   UNL     1       6.927   7.019  16.738  0.00  0.00    +0.000 C 
ATOM      7  C   UNL     1       7.519   6.957  18.150  0.00  0.00    +0.000 C 
ATOM      8  C   UNL     1       7.226   5.598  18.802  0.00  0.00    +0.000 C 
ATOM      9  C   UNL     1       7.637   4.398  17.942  0.00  0.00    +0.000 C 
ATOM     10  C   UNL     1       5.714   5.529  18.967  0.00  0.00    +0.000 C 
ATOM     11  C   UNL     1       5.403   6.882  16.780  0.00  0.00    +0.000 C 
BRANCH   8  12
ATOM     12  O   UNL     1       7.835   5.519  20.075  0.00  0.00    +0.000 OA
ATOM     13  H   UNL     1       7.145   5.321  20.732  0.00  0.00    +0.000 HD
ENDBRANCH   8  12
ENDBRANCH   1   2
BRANCH   1  20
ATOM     14  C   UNL     1       2.310   3.041  18.327  0.00  0.00    +0.000 C 
ATOM     15  C   UNL     1       1.056   2.367  18.966  0.00  0.00    +0.000 C 
ATOM     16  C   UNL     1       1.362   2.289  20.445  0.00  0.00    +0.000 C 
ATOM     17  C   UNL     1       1.145   3.461  21.365  0.00  0.00    +0.000 C 
ATOM     18  C   UNL     1       2.470   3.271  20.704  0.00  0.00    +0.000 C 
ATOM     19  N   UNL     1       2.832   3.877  19.447  0.00  0.00    +0.000 N 
ATOM     20  C   UNL     1       3.178   5.208  19.406  0.00  0.00    +0.000 C 
ATOM     21  O   UNL     1       3.219   5.934  20.390  0.00  0.00    +0.000 OA
BRANCH  14  23
ATOM     22  N   UNL     1       4.144   1.038  17.730  0.00  0.00    +0.000 NA
ATOM     23  C   UNL     1       3.313   1.946  18.001  0.00  0.00    +0.000 C 
ENDBRANCH  14  23
ENDBRANCH   1  20
BRANCH   1  24
ATOM     24  N   UNL     1       2.892   7.076  17.843  0.00  0.00    +0.000 NA
ATOM     25  H   UNL     1       2.396   7.321  18.705  0.00  0.00    +0.000 HD
ATOM     26  H   UNL     1       2.189   7.088  17.097  0.00  0.00    +0.000 HD
ENDBRANCH   1  24
TORSDOF 5
ENDMDL
MODEL 3
REMARK VINA RESULT:      -7.1      2.180      5.992
REMARK  Name = 
REMARK  5 active torsions:
REMARK  status: ('A' for Active; 'I' for Inactive)
REMARK    1  A    between atoms: C_2  and  C_3
REMARK    2  A    between atoms: C_9  and  C_11
REMARK    3  A    between atoms: C_11  and  N_12
REMARK    4  A    between atoms: C_11  and  C_13
REMARK    5  A    between atoms: C_19  and  O_20
REMARK                            x       y       z     vdW  Elec       q    Type
REMARK                         _______ _______ _______ _____ _____    ______ ____
ROOT
ATOM      1  C   UNL     1       3.697   5.964  17.882  0.00  0.00    +0.000 C 
ENDROOT
BRANCH   1   2
ATOM      2  C   UNL     1       5.222   5.754  17.873  0.00  0.00    +0.000 C 
ATOM      3  C   UNL     1       5.946   5.187  19.125  0.00  0.00    +0.000 C 
ATOM      4  C   UNL     1       7.490   5.172  18.864  0.00  0.00    +0.000 C 
ATOM      5  C   UNL     1       7.876   4.346  17.616  0.00  0.00    +0.000 C 
ATOM      6  C   UNL     1       7.085   4.836  16.399  0.00  0.00    +0.000 C 
ATOM      7  C   UNL     1       7.487   6.285  16.107  0.00  0.00    +0.000 C 
ATOM      8  C   UNL     1       7.278   7.168  17.346  0.00  0.00    +0.000 C 
ATOM      9  C   UNL     1       7.941   6.620  18.615  0.00  0.00    +0.000 C 
ATOM     10  C   UNL     1       5.777   7.182  17.602  0.00  0.00    +0.000 C 
ATOM     11  C   UNL     1       5.596   4.745  16.746  0.00  0.00    +0.000 C 
BRANCH   8  12
ATOM     12  O   UNL     1       7.718   8.487  17.094  0.00  0.00    +0.000 OA
ATOM     13  H   UNL     1       6.981   8.985  16.701  0.00  0.00    +0.000 HD
ENDBRANCH   8  12
ENDBRANCH   1   2
BRANCH   1  20
ATOM     14  C   UNL     1       2.367   3.301  18.095  0.00  0.00    +0.000 C 
ATOM     15  C   UNL     1       0.968   2.702  18.440  0.00  0.00    +0.000 C 
ATOM     16  C   UNL     1       0.885   2.741  19.950  0.00  0.00    +0.000 C 
ATOM     17  C   UNL     1       0.484   3.988  20.692  0.00  0.00    +0.000 C 
ATOM     18  C   UNL     1       1.926   3.723  20.409  0.00  0.00    +0.000 C 
ATOM     19  N   UNL     1       2.617   4.218  19.245  0.00  0.00    +0.000 N 
ATOM     20  C   UNL     1       3.011   5.535  19.193  0.00  0.00    +0.000 C 
ATOM     21  O   UNL     1       2.827   6.339  20.097  0.00  0.00    +0.000 OA
BRANCH  14  23
ATOM     22  N   UNL     1       4.218   1.227  18.140  0.00  0.00    +0.000 NA
ATOM     23  C   UNL     1       3.379   2.167  18.119  0.00  0.00    +0.000 C 
ENDBRANCH  14  23
ENDBRANCH   1  20
BRANCH   1  24
ATOM     24  N   UNL     1       3.215   7.282  17.484  0.00  0.00    +0.000 NA
ATOM     25  H   UNL     1       3.986   7.953  17.555  0.00  0.00    +0.000 HD
ATOM     26  H   UNL     1       2.479   7.627  18.108  0.00  0.00    +0.000 HD
ENDBRANCH   1  24
TORSDOF 5
ENDMDL
MODEL 4
REMARK VINA RESULT:      -7.0      1.069      1.925
REMARK  Name = 
REMARK  5 active torsions:
REMARK  status: ('A' for Active; 'I' for Inactive)
REMARK    1  A    between atoms: C_2  and  C_3
REMARK    2  A    between atoms: C_9  and  C_11
REMARK    3  A    between atoms: C_11  and  N_12
REMARK    4  A    between atoms: C_11  and  C_13
REMARK    5  A    between atoms: C_19  and  O_20
REMARK                            x       y       z     vdW  Elec       q    Type
REMARK                         _______ _______ _______ _____ _____    ______ ____
ROOT
ATOM      1  C   UNL     1       3.549   5.348  18.160  0.00  0.00    +0.000 C 
ENDROOT
BRANCH   1   2
ATOM      2  C   UNL     1       2.991   4.316  19.156  0.00  0.00    +0.000 C 
ATOM      3  C   UNL     1       3.939   3.308  19.859  0.00  0.00    +0.000 C 
ATOM      4  C   UNL     1       3.089   2.326  20.735  0.00  0.00    +0.000 C 
ATOM      5  C   UNL     1       2.228   3.059  21.789  0.00  0.00    +0.000 C 
ATOM      6  C   UNL     1       1.366   4.126  21.108  0.00  0.00    +0.000 C 
ATOM      7  C   UNL     1       0.391   3.430  20.152  0.00  0.00    +0.000 C 
ATOM      8  C   UNL     1       1.150   2.550  19.148  0.00  0.00    +0.000 C 
ATOM      9  C   UNL     1       2.131   1.570  19.802  0.00  0.00    +0.000 C 
ATOM     10  C   UNL     1       1.978   3.504  18.297  0.00  0.00    +0.000 C 
ATOM     11  C   UNL     1       2.305   5.062  20.340  0.00  0.00    +0.000 C 
BRANCH   8  12
ATOM     12  O   UNL     1       0.244   1.855  18.316  0.00  0.00    +0.000 OA
ATOM     13  H   UNL     1      -0.510   2.440  18.129  0.00  0.00    +0.000 HD
ENDBRANCH   8  12
ENDBRANCH   1   2
BRANCH   1  20
ATOM     14  C   UNL     1       6.399   6.217  17.999  0.00  0.00    +0.000 C 
ATOM     15  C   UNL     1       7.392   6.831  16.963  0.00  0.00    +0.000 C 
ATOM     16  C   UNL     1       7.810   5.672  16.085  0.00  0.00    +0.000 C 
ATOM     17  C   UNL     1       6.966   5.204  14.930  0.00  0.00    +0.000 C 
ATOM     18  C   UNL     1       6.781   4.595  16.282  0.00  0.00    +0.000 C 
ATOM     19  N   UNL     1       5.820   5.066  17.247  0.00  0.00    +0.000 N 
ATOM     20  C   UNL     1       4.489   4.751  17.096  0.00  0.00    +0.000 C 
ATOM     21  O   UNL     1       4.049   4.065  16.183  0.00  0.00    +0.000 OA
BRANCH  14  23
ATOM     22  N   UNL     1       7.887   5.270  20.149  0.00  0.00    +0.000 NA
ATOM     23  C   UNL     1       7.212   5.700  19.174  0.00  0.00    +0.000 C 
ENDBRANCH  14  23
ENDBRANCH   1  20
BRANCH   1  24
ATOM     24  N   UNL     1       2.580   6.231  17.519  0.00  0.00    +0.000 NA
ATOM     25  H   UNL     1       2.141   5.731  16.739  0.00  0.00    +0.000 HD
ATOM     26  H   UNL     1       3.025   7.059  17.111  0.00  0.00    +0.000 HD
ENDBRANCH   1  24
TORSDOF 5
ENDMDL
MODEL 5
REMARK VINA RESULT:      -6.7      1.487      2.283
REMARK  Name = 
REMARK  5 active torsions:
REMARK  status: ('A' for Active; 'I' for Inactive)
REMARK    1  A    between atoms: C_2  and  C_3
REMARK    2  A    between atoms: C_9  and  C_11
REMARK    3  A    between atoms: C_11  and  N_12
REMARK    4  A    between atoms: C_11  and  C_13
REMARK    5  A    between atoms: C_19  and  O_20
REMARK                            x       y       z     vdW  Elec       q    Type
REMARK                         _______ _______ _______ _____ _____    ______ ____
ROOT
ATOM      1  C   UNL     1       3.916   5.095  17.920  0.00  0.00    +0.000 C 
ENDROOT
BRANCH   1   2
ATOM      2  C   UNL     1       3.233   4.281  19.033  0.00  0.00    +0.000 C 
ATOM      3  C   UNL     1       4.032   3.217  19.834  0.00  0.00    +0.000 C 
ATOM      4  C   UNL     1       3.065   2.486  20.826  0.00  0.00    +0.000 C 
ATOM      5  C   UNL     1       2.362   3.458  21.800  0.00  0.00    +0.000 C 
ATOM      6  C   UNL     1       1.658   4.568  21.013  0.00  0.00    +0.000 C 
ATOM      7  C   UNL     1       0.558   3.936  20.155  0.00  0.00    +0.000 C 
ATOM      8  C   UNL     1       1.138   2.842  19.248  0.00  0.00    +0.000 C 
ATOM      9  C   UNL     1       1.971   1.795  19.996  0.00  0.00    +0.000 C 
ATOM     10  C   UNL     1       2.079   3.551  18.284  0.00  0.00    +0.000 C 
ATOM     11  C   UNL     1       2.709   5.252  20.133  0.00  0.00    +0.000 C 
BRANCH   8  12
ATOM     12  O   UNL     1       0.109   2.213  18.511  0.00  0.00    +0.000 OA
ATOM     13  H   UNL     1      -0.396   1.644  19.116  0.00  0.00    +0.000 HD
ENDBRANCH   8  12
ENDBRANCH   1   2
BRANCH   1  20
ATOM     14  C   UNL     1       6.579   5.320  16.592  0.00  0.00    +0.000 C 
ATOM     15  C   UNL     1       7.179   5.680  15.198  0.00  0.00    +0.000 C 
ATOM     16  C   UNL     1       6.986   4.439  14.355  0.00  0.00    +0.000 C 
ATOM     17  C   UNL     1       5.681   4.140  13.666  0.00  0.00    +0.000 C 
ATOM     18  C   UNL     1       5.933   3.616  15.041  0.00  0.00    +0.000 C 
ATOM     19  N   UNL     1       5.542   4.306  16.245  0.00  0.00    +0.000 N 
ATOM     20  C   UNL     1       4.226   4.285  16.647  0.00  0.00    +0.000 C 
ATOM     21  O   UNL     1       3.339   3.691  16.049  0.00  0.00    +0.000 OA
BRANCH  14  23
ATOM     22  N   UNL     1       8.584   4.120  18.099  0.00  0.00    +0.000 NA
ATOM     23  C   UNL     1       7.675   4.664  17.416  0.00  0.00    +0.000 C 
ENDBRANCH  14  23
ENDBRANCH   1  20
BRANCH   1  24
ATOM     24  N   UNL     1       3.289   6.361  17.555  0.00  0.00    +0.000 NA
ATOM     25  H   UNL     1       2.366   6.170  17.153  0.00  0.00    +0.000 HD
ATOM     26  H   UNL     1       3.817   6.857  16.831  0.00  0.00    +0.000 HD
ENDBRANCH   1  24
TORSDOF 5
ENDMDL
MODEL 6
REMARK VINA RESULT:      -6.6      1.993      5.921
REMARK  Name = 
REMARK  5 active torsions:
REMARK  status: ('A' for Active; 'I' for Inactive)
REMARK    1  A    between atoms: C_2  and  C_3
REMARK    2  A    between atoms: C_9  and  C_11
REMARK    3  A    between atoms: C_11  and  N_12
REMARK    4  A    between atoms: C_11  and  C_13
REMARK    5  A    between atoms: C_19  and  O_20
REMARK                            x       y       z     vdW  Elec       q    Type
REMARK                         _______ _______ _______ _____ _____    ______ ____
ROOT
ATOM      1  C   UNL     1       3.377   5.866  18.062  0.00  0.00    +0.000 C 
ENDROOT
BRANCH   1   2
ATOM      2  C   UNL     1       4.887   6.021  17.808  0.00  0.00    +0.000 C 
ATOM      3  C   UNL     1       5.494   7.416  17.496  0.00  0.00    +0.000 C 
ATOM      4  C   UNL     1       7.022   7.256  17.190  0.00  0.00    +0.000 C 
ATOM      5  C   UNL     1       7.797   6.595  18.352  0.00  0.00    +0.000 C 
ATOM      6  C   UNL     1       7.137   5.265  18.730  0.00  0.00    +0.000 C 
ATOM      7  C   UNL     1       7.241   4.312  17.536  0.00  0.00    +0.000 C 
ATOM      8  C   UNL     1       6.623   4.945  16.280  0.00  0.00    +0.000 C 
ATOM      9  C   UNL     1       7.165   6.343  15.962  0.00  0.00    +0.000 C 
ATOM     10  C   UNL     1       5.138   5.102  16.577  0.00  0.00    +0.000 C 
ATOM     11  C   UNL     1       5.672   5.554  19.071  0.00  0.00    +0.000 C 
BRANCH   8  12
ATOM     12  O   UNL     1       6.785   4.092  15.165  0.00  0.00    +0.000 OA
ATOM     13  H   UNL     1       7.684   4.213  14.816  0.00  0.00    +0.000 HD
ENDBRANCH   8  12
ENDBRANCH   1   2
BRANCH   1  20
ATOM     14  C   UNL     1       2.321   3.081  18.240  0.00  0.00    +0.000 C 
ATOM     15  C   UNL     1       1.079   2.321  18.801  0.00  0.00    +0.000 C 
ATOM     16  C   UNL     1       1.329   2.204  20.289  0.00  0.00    +0.000 C 
ATOM     17  C   UNL     1       1.013   3.328  21.239  0.00  0.00    +0.000 C 
ATOM     18  C   UNL     1       2.372   3.231  20.628  0.00  0.00    +0.000 C 
ATOM     19  N   UNL     1       2.752   3.901  19.410  0.00  0.00    +0.000 N 
ATOM     20  C   UNL     1       3.029   5.248  19.429  0.00  0.00    +0.000 C 
ATOM     21  O   UNL     1       2.992   5.938  20.439  0.00  0.00    +0.000 OA
BRANCH  14  23
ATOM     22  N   UNL     1       4.280   1.198  17.651  0.00  0.00    +0.000 NA
ATOM     23  C   UNL     1       3.392   2.052  17.918  0.00  0.00    +0.000 C 
ENDBRANCH  14  23
ENDBRANCH   1  20
BRANCH   1  24
ATOM     24  N   UNL     1       2.550   7.046  17.832  0.00  0.00    +0.000 NA
ATOM     25  H   UNL     1       2.056   7.279  18.699  0.00  0.00    +0.000 HD
ATOM     26  H   UNL     1       1.824   6.876  17.128  0.00  0.00    +0.000 HD
ENDBRANCH   1  24
TORSDOF 5
ENDMDL
MODEL 7
REMARK VINA RESULT:      -6.5      1.808      6.113
REMARK  Name = 
REMARK  5 active torsions:
REMARK  status: ('A' for Active; 'I' for Inactive)
REMARK    1  A    between atoms: C_2  and  C_3
REMARK    2  A    between atoms: C_9  and  C_11
REMARK    3  A    between atoms: C_11  and  N_12
REMARK    4  A    between atoms: C_11  and  C_13
REMARK    5  A    between atoms: C_19  and  O_20
REMARK                            x       y       z     vdW  Elec       q    Type
REMARK                         _______ _______ _______ _____ _____    ______ ____
ROOT
ATOM      1  C   UNL     1       4.721   3.971  18.921  0.00  0.00    +0.000 C 
ENDROOT
BRANCH   1   2
ATOM      2  C   UNL     1       5.315   5.061  18.010  0.00  0.00    +0.000 C 
ATOM      3  C   UNL     1       4.598   6.429  17.848  0.00  0.00    +0.000 C 
ATOM      4  C   UNL     1       5.372   7.294  16.797  0.00  0.00    +0.000 C 
ATOM      5  C   UNL     1       6.852   7.520  17.183  0.00  0.00    +0.000 C 
ATOM      6  C   UNL     1       7.535   6.174  17.445  0.00  0.00    +0.000 C 
ATOM      7  C   UNL     1       7.540   5.368  16.142  0.00  0.00    +0.000 C 
ATOM      8  C   UNL     1       6.114   5.214  15.593  0.00  0.00    +0.000 C 
ATOM      9  C   UNL     1       5.356   6.539  15.459  0.00  0.00    +0.000 C 
ATOM     10  C   UNL     1       5.360   4.374  16.614  0.00  0.00    +0.000 C 
ATOM     11  C   UNL     1       6.732   5.449  18.529  0.00  0.00    +0.000 C 
BRANCH   8  12
ATOM     12  O   UNL     1       6.131   4.533  14.355  0.00  0.00    +0.000 OA
ATOM     13  H   UNL     1       6.748   3.785  14.426  0.00  0.00    +0.000 HD
ENDBRANCH   8  12
ENDBRANCH   1   2
BRANCH   1  20
ATOM     14  C   UNL     1       2.287   4.243  20.625  0.00  0.00    +0.000 C 
ATOM     15  C   UNL     1       1.191   3.343  21.275  0.00  0.00    +0.000 C 
ATOM     16  C   UNL     1       0.233   3.015  20.151  0.00  0.00    +0.000 C 
ATOM     17  C   UNL     1       0.505   1.902  19.174  0.00  0.00    +0.000 C 
ATOM     18  C   UNL     1       0.970   3.288  18.870  0.00  0.00    +0.000 C 
ATOM     19  N   UNL     1       2.281   3.784  19.205  0.00  0.00    +0.000 N 
ATOM     20  C   UNL     1       3.365   3.421  18.440  0.00  0.00    +0.000 C 
ATOM     21  O   UNL     1       3.294   2.698  17.455  0.00  0.00    +0.000 OA
BRANCH  14  23
ATOM     22  N   UNL     1       1.410   6.879  20.753  0.00  0.00    +0.000 NA
ATOM     23  C   UNL     1       1.807   5.684  20.695  0.00  0.00    +0.000 C 
ENDBRANCH  14  23
ENDBRANCH   1  20
BRANCH   1  24
ATOM     24  N   UNL     1       5.601   2.864  19.278  0.00  0.00    +0.000 NA
ATOM     25  H   UNL     1       6.045   3.069  20.178  0.00  0.00    +0.000 HD
ATOM     26  H   UNL     1       6.365   2.747  18.604  0.00  0.00    +0.000 HD
ENDBRANCH   1  24
TORSDOF 5
ENDMDL
MODEL 8
REMARK VINA RESULT:      -6.4      1.811      6.078
REMARK  Name = 
REMARK  5 active torsions:
REMARK  status: ('A' for Active; 'I' for Inactive)
REMARK    1  A    between atoms: C_2  and  C_3
REMARK    2  A    between atoms: C_9  and  C_11
REMARK    3  A    between atoms: C_11  and  N_12
REMARK    4  A    between atoms: C_11  and  C_13
REMARK    5  A    between atoms: C_19  and  O_20
REMARK                            x       y       z     vdW  Elec       q    Type
REMARK                         _______ _______ _______ _____ _____    ______ ____
ROOT
ATOM      1  C   UNL     1       4.814   3.863  19.056  0.00  0.00    +0.000 C 
ENDROOT
BRANCH   1   2
ATOM      2  C   UNL     1       5.589   4.792  18.105  0.00  0.00    +0.000 C 
ATOM      3  C   UNL     1       6.915   5.459  18.562  0.00  0.00    +0.000 C 
ATOM      4  C   UNL     1       7.426   6.416  17.433  0.00  0.00    +0.000 C 
ATOM      5  C   UNL     1       7.642   5.690  16.086  0.00  0.00    +0.000 C 
ATOM      6  C   UNL     1       6.365   4.944  15.684  0.00  0.00    +0.000 C 
ATOM      7  C   UNL     1       5.252   5.972  15.454  0.00  0.00    +0.000 C 
ATOM      8  C   UNL     1       5.060   6.852  16.698  0.00  0.00    +0.000 C 
ATOM      9  C   UNL     1       6.355   7.495  17.208  0.00  0.00    +0.000 C 
ATOM     10  C   UNL     1       4.564   5.922  17.797  0.00  0.00    +0.000 C 
ATOM     11  C   UNL     1       6.000   3.996  16.830  0.00  0.00    +0.000 C 
BRANCH   8  12
ATOM     12  O   UNL     1       4.083   7.844  16.456  0.00  0.00    +0.000 OA
ATOM     13  H   UNL     1       3.974   8.370  17.266  0.00  0.00    +0.000 HD
ENDBRANCH   8  12
ENDBRANCH   1   2
BRANCH   1  20
ATOM     14  C   UNL     1       2.295   4.201  20.619  0.00  0.00    +0.000 C 
ATOM     15  C   UNL     1       1.134   3.332  21.195  0.00  0.00    +0.000 C 
ATOM     16  C   UNL     1       0.233   3.047  20.013  0.00  0.00    +0.000 C 
ATOM     17  C   UNL     1       0.524   1.935  19.041  0.00  0.00    +0.000 C 
ATOM     18  C   UNL     1       1.051   3.307  18.780  0.00  0.00    +0.000 C 
ATOM     19  N   UNL     1       2.356   3.756  19.197  0.00  0.00    +0.000 N 
ATOM     20  C   UNL     1       3.471   3.363  18.492  0.00  0.00    +0.000 C 
ATOM     21  O   UNL     1       3.434   2.653  17.496  0.00  0.00    +0.000 OA
BRANCH  14  23
ATOM     22  N   UNL     1       1.500   6.864  20.726  0.00  0.00    +0.000 NA
ATOM     23  C   UNL     1       1.860   5.657  20.677  0.00  0.00    +0.000 C 
ENDBRANCH  14  23
ENDBRANCH   1  20
BRANCH   1  24
ATOM     24  N   UNL     1       5.555   2.742  19.625  0.00  0.00    +0.000 NA
ATOM     25  H   UNL     1       6.537   3.013  19.732  0.00  0.00    +0.000 HD
ATOM     26  H   UNL     1       5.551   1.925  19.006  0.00  0.00    +0.000 HD
ENDBRANCH   1  24
TORSDOF 5
ENDMDL
MODEL 9
REMARK VINA RESULT:      -6.4      2.002      6.112
REMARK  Name = 
REMARK  5 active torsions:
REMARK  status: ('A' for Active; 'I' for Inactive)
REMARK    1  A    between atoms: C_2  and  C_3
REMARK    2  A    between atoms: C_9  and  C_11
REMARK    3  A    between atoms: C_11  and  N_12
REMARK    4  A    between atoms: C_11  and  C_13
REMARK    5  A    between atoms: C_19  and  O_20
REMARK                            x       y       z     vdW  Elec       q    Type
REMARK                         _______ _______ _______ _____ _____    ______ ____
ROOT
ATOM      1  C   UNL     1       4.694   3.917  18.812  0.00  0.00    +0.000 C 
ENDROOT
BRANCH   1   2
ATOM      2  C   UNL     1       5.374   4.743  17.706  0.00  0.00    +0.000 C 
ATOM      3  C   UNL     1       6.029   4.038  16.487  0.00  0.00    +0.000 C 
ATOM      4  C   UNL     1       6.721   5.112  15.581  0.00  0.00    +0.000 C 
ATOM      5  C   UNL     1       5.740   6.201  15.092  0.00  0.00    +0.000 C 
ATOM      6  C   UNL     1       5.016   6.827  16.288  0.00  0.00    +0.000 C 
ATOM      7  C   UNL     1       6.051   7.534  17.170  0.00  0.00    +0.000 C 
ATOM      8  C   UNL     1       7.161   6.560  17.591  0.00  0.00    +0.000 C 
ATOM      9  C   UNL     1       7.803   5.810  16.419  0.00  0.00    +0.000 C 
ATOM     10  C   UNL     1       6.489   5.514  18.471  0.00  0.00    +0.000 C 
ATOM     11  C   UNL     1       4.326   5.697  17.058  0.00  0.00    +0.000 C 
BRANCH   8  12
ATOM     12  O   UNL     1       8.150   7.232  18.344  0.00  0.00    +0.000 OA
ATOM     13  H   UNL     1       7.742   8.013  18.755  0.00  0.00    +0.000 HD
ENDBRANCH   8  12
ENDBRANCH   1   2
BRANCH   1  20
ATOM     14  C   UNL     1       2.345   4.217  20.628  0.00  0.00    +0.000 C 
ATOM     15  C   UNL     1       1.291   3.326  21.357  0.00  0.00    +0.000 C 
ATOM     16  C   UNL     1       0.282   2.961  20.290  0.00  0.00    +0.000 C 
ATOM     17  C   UNL     1       0.513   1.824  19.331  0.00  0.00    +0.000 C 
ATOM     18  C   UNL     1       0.951   3.205  18.967  0.00  0.00    +0.000 C 
ATOM     19  N   UNL     1       2.272   3.720  19.224  0.00  0.00    +0.000 N 
ATOM     20  C   UNL     1       3.321   3.344  18.415  0.00  0.00    +0.000 C 
ATOM     21  O   UNL     1       3.207   2.595  17.454  0.00  0.00    +0.000 OA
BRANCH  14  23
ATOM     22  N   UNL     1       1.453   6.849  20.729  0.00  0.00    +0.000 NA
ATOM     23  C   UNL     1       1.857   5.656  20.684  0.00  0.00    +0.000 C 
ENDBRANCH  14  23
ENDBRANCH   1  20
BRANCH   1  24
ATOM     24  N   UNL     1       5.498   2.873  19.439  0.00  0.00    +0.000 NA
ATOM     25  H   UNL     1       6.137   3.306  20.113  0.00  0.00    +0.000 HD
ATOM     26  H   UNL     1       6.089   2.384  18.760  0.00  0.00    +0.000 HD
ENDBRANCH   1  24
TORSDOF 5
ENDMDL
