MODEL 1
REMARK VINA RESULT:      -3.8      0.000      0.000
REMARK  Name = 
REMARK  5 active torsions:
REMARK  status: ('A' for Active; 'I' for Inactive)
REMARK    1  A    between atoms: C_1  and  S_2
REMARK    2  A    between atoms: S_2  and  C_4
REMARK    3  A    between atoms: C_4  and  C_5
REMARK    4  A    between atoms: C_5  and  C_6
REMARK    5  A    between atoms: C_6  and  N_7
REMARK                            x       y       z     vdW  Elec       q    Type
REMARK                         _______ _______ _______ _____ _____    ______ ____
ROOT
ATOM      1  C   UNL     1       2.795   2.922  17.596  0.00  0.00    +0.000 C 
ENDROOT
BRANCH   1   2
ATOM      2  C   UNL     1       3.848   3.978  17.286  0.00  0.00    +0.000 C 
BRANCH   2   4
ATOM      3  C   UNL     1       4.063   5.478  19.527  0.00  0.00    +0.000 C 
ATOM      4  S   UNL     1       4.983   4.157  18.705  0.00  0.00    +0.000 S 
ATOM      5  O   UNL     1       4.842   2.866  19.589  0.00  0.00    +0.000 OA
ENDBRANCH   2   4
ENDBRANCH   1   2
BRANCH   1   6
ATOM      6  C   UNL     1       1.459   3.545  17.994  0.00  0.00    +0.000 C 
BRANCH   6   7
ATOM      7  N   UNL     1       0.844   2.680  19.011  0.00  0.00    +0.000 NA
ATOM      8  C   UNL     1       1.276   2.792  20.096  0.00  0.00    +0.000 C 
ATOM      9  S   UNL     1       1.847   2.934  21.574  0.00  0.00    +0.000 S 
ENDBRANCH   6   7
ENDBRANCH   1   6
TORSDOF 4
ENDMDL
MODEL 2
REMARK VINA RESULT:      -3.7      2.282      2.664
REMARK  Name = 
REMARK  5 active torsions:
REMARK  status: ('A' for Active; 'I' for Inactive)
REMARK    1  A    between atoms: C_1  and  S_2
REMARK    2  A    between atoms: S_2  and  C_4
REMARK    3  A    between atoms: C_4  and  C_5
REMARK    4  A    between atoms: C_5  and  C_6
REMARK    5  A    between atoms: C_6  and  N_7
REMARK                            x       y       z     vdW  Elec       q    Type
REMARK                         _______ _______ _______ _____ _____    ______ ____
ROOT
ATOM      1  C   UNL     1       3.760   4.587  17.372  0.00  0.00    +0.000 C 
ENDROOT
BRANCH   1   2
ATOM      2  C   UNL     1       5.198   4.206  17.700  0.00  0.00    +0.000 C 
BRANCH   2   4
ATOM      3  C   UNL     1       5.465   5.765  15.505  0.00  0.00    +0.000 C 
ATOM      4  S   UNL     1       6.216   4.268  16.185  0.00  0.00    +0.000 S 
ATOM      5  O   UNL     1       7.682   4.631  16.615  0.00  0.00    +0.000 OA
ENDBRANCH   2   4
ENDBRANCH   1   2
BRANCH   1   6
ATOM      6  C   UNL     1       2.869   3.360  17.194  0.00  0.00    +0.000 C 
BRANCH   6   7
ATOM      7  N   UNL     1       1.512   3.723  17.626  0.00  0.00    +0.000 NA
ATOM      8  C   UNL     1       1.360   3.818  18.785  0.00  0.00    +0.000 C 
ATOM      9  S   UNL     1       1.137   3.955  20.354  0.00  0.00    +0.000 S 
ENDBRANCH   6   7
ENDBRANCH   1   6
TORSDOF 4
ENDMDL
MODEL 3
REMARK VINA RESULT:      -3.7      2.985      3.175
REMARK  Name = 
REMARK  5 active torsions:
REMARK  status: ('A' for Active; 'I' for Inactive)
REMARK    1  A    between atoms: C_1  and  S_2
REMARK    2  A    between atoms: S_2  and  C_4
REMARK    3  A    between atoms: C_4  and  C_5
REMARK    4  A    between atoms: C_5  and  C_6
REMARK    5  A    between atoms: C_6  and  N_7
REMARK                            x       y       z     vdW  Elec       q    Type
REMARK                         _______ _______ _______ _____ _____    ______ ____
ROOT
ATOM      1  C   UNL     1       4.279   4.357  17.251  0.00  0.00    +0.000 C 
ENDROOT
BRANCH   1   2
ATOM      2  C   UNL     1       5.375   4.120  16.219  0.00  0.00    +0.000 C 
BRANCH   2   4
ATOM      3  C   UNL     1       7.587   4.647  17.685  0.00  0.00    +0.000 C 
ATOM      4  S   UNL     1       6.644   5.426  16.354  0.00  0.00    +0.000 S 
ATOM      5  O   UNL     1       7.526   5.364  15.055  0.00  0.00    +0.000 OA
ENDBRANCH   2   4
ENDBRANCH   1   2
BRANCH   1   6
ATOM      6  C   UNL     1       3.775   3.051  17.860  0.00  0.00    +0.000 C 
BRANCH   6   7
ATOM      7  N   UNL     1       4.260   2.983  19.246  0.00  0.00    +0.000 NA
ATOM      8  C   UNL     1       3.428   2.981  20.073  0.00  0.00    +0.000 C 
ATOM      9  S   UNL     1       2.312   2.973  21.206  0.00  0.00    +0.000 S 
ENDBRANCH   6   7
ENDBRANCH   1   6
TORSDOF 4
ENDMDL
MODEL 4
REMARK VINA RESULT:      -3.6      2.919      4.571
REMARK  Name = 
REMARK  5 active torsions:
REMARK  status: ('A' for Active; 'I' for Inactive)
REMARK    1  A    between atoms: C_1  and  S_2
REMARK    2  A    between atoms: S_2  and  C_4
REMARK    3  A    between atoms: C_4  and  C_5
REMARK    4  A    between atoms: C_5  and  C_6
REMARK    5  A    between atoms: C_6  and  N_7
REMARK                            x       y       z     vdW  Elec       q    Type
REMARK                         _______ _______ _______ _____ _____    ______ ____
ROOT
ATOM      1  C   UNL     1       3.850   3.613  18.294  0.00  0.00    +0.000 C 
ENDROOT
BRANCH   1   2
ATOM      2  C   UNL     1       3.319   2.413  19.067  0.00  0.00    +0.000 C 
BRANCH   2   4
ATOM      3  C   UNL     1       1.162   3.084  20.556  0.00  0.00    +0.000 C 
ATOM      4  S   UNL     1       1.499   2.349  18.938  0.00  0.00    +0.000 S 
ATOM      5  O   UNL     1       1.065   3.394  17.849  0.00  0.00    +0.000 OA
ENDBRANCH   2   4
ENDBRANCH   1   2
BRANCH   1   6
ATOM      6  C   UNL     1       4.564   4.610  19.204  0.00  0.00    +0.000 C 
BRANCH   6   7
ATOM      7  N   UNL     1       6.011   4.403  19.051  0.00  0.00    +0.000 NA
ATOM      8  C   UNL     1       6.429   4.550  17.965  0.00  0.00    +0.000 C 
ATOM      9  S   UNL     1       7.014   4.749  16.499  0.00  0.00    +0.000 S 
ENDBRANCH   6   7
ENDBRANCH   1   6
TORSDOF 4
ENDMDL
MODEL 5
REMARK VINA RESULT:      -3.6      3.501      5.265
REMARK  Name = 
REMARK  5 active torsions:
REMARK  status: ('A' for Active; 'I' for Inactive)
REMARK    1  A    between atoms: C_1  and  S_2
REMARK    2  A    between atoms: S_2  and  C_4
REMARK    3  A    between atoms: C_4  and  C_5
REMARK    4  A    between atoms: C_5  and  C_6
REMARK    5  A    between atoms: C_6  and  N_7
REMARK                            x       y       z     vdW  Elec       q    Type
REMARK                         _______ _______ _______ _____ _____    ______ ____
ROOT
ATOM      1  C   UNL     1       6.226   4.817  18.503  0.00  0.00    +0.000 C 
ENDROOT
BRANCH   1   2
ATOM      2  C   UNL     1       4.895   5.056  19.205  0.00  0.00    +0.000 C 
BRANCH   2   4
ATOM      3  C   UNL     1       3.932   3.127  17.570  0.00  0.00    +0.000 C 
ATOM      4  S   UNL     1       3.975   3.485  19.342  0.00  0.00    +0.000 S 
ATOM      5  O   UNL     1       4.932   2.434  20.010  0.00  0.00    +0.000 OA
ENDBRANCH   2   4
ENDBRANCH   1   2
BRANCH   1   6
ATOM      6  C   UNL     1       6.563   5.934  17.518  0.00  0.00    +0.000 C 
BRANCH   6   7
ATOM      7  N   UNL     1       7.439   5.370  16.482  0.00  0.00    +0.000 NA
ATOM      8  C   UNL     1       6.893   4.801  15.613  0.00  0.00    +0.000 C 
ATOM      9  S   UNL     1       6.167   4.029  14.427  0.00  0.00    +0.000 S 
ENDBRANCH   6   7
ENDBRANCH   1   6
TORSDOF 4
ENDMDL
MODEL 6
REMARK VINA RESULT:      -3.6      3.191      3.836
REMARK  Name = 
REMARK  5 active torsions:
REMARK  status: ('A' for Active; 'I' for Inactive)
REMARK    1  A    between atoms: C_1  and  S_2
REMARK    2  A    between atoms: S_2  and  C_4
REMARK    3  A    between atoms: C_4  and  C_5
REMARK    4  A    between atoms: C_5  and  C_6
REMARK    5  A    between atoms: C_6  and  N_7
REMARK                            x       y       z     vdW  Elec       q    Type
REMARK                         _______ _______ _______ _____ _____    ______ ____
ROOT
ATOM      1  C   UNL     1       4.322   4.969  17.638  0.00  0.00    +0.000 C 
ENDROOT
BRANCH   1   2
ATOM      2  C   UNL     1       4.948   5.525  16.366  0.00  0.00    +0.000 C 
BRANCH   2   4
ATOM      3  C   UNL     1       6.432   4.190  14.539  0.00  0.00    +0.000 C 
ATOM      4  S   UNL     1       6.653   4.896  16.189  0.00  0.00    +0.000 S 
ATOM      5  O   UNL     1       7.603   6.139  16.044  0.00  0.00    +0.000 OA
ENDBRANCH   2   4
ENDBRANCH   1   2
BRANCH   1   6
ATOM      6  C   UNL     1       5.337   4.852  18.773  0.00  0.00    +0.000 C 
BRANCH   6   7
ATOM      7  N   UNL     1       5.219   3.504  19.346  0.00  0.00    +0.000 NA
ATOM      8  C   UNL     1       4.135   3.183  19.660  0.00  0.00    +0.000 C 
ATOM      9  S   UNL     1       2.671   2.730  20.087  0.00  0.00    +0.000 S 
ENDBRANCH   6   7
ENDBRANCH   1   6
TORSDOF 4
ENDMDL
MODEL 7
REMARK VINA RESULT:      -3.6      2.484      4.103
REMARK  Name = 
REMARK  5 active torsions:
REMARK  status: ('A' for Active; 'I' for Inactive)
REMARK    1  A    between atoms: C_1  and  S_2
REMARK    2  A    between atoms: S_2  and  C_4
REMARK    3  A    between atoms: C_4  and  C_5
REMARK    4  A    between atoms: C_5  and  C_6
REMARK    5  A    between atoms: C_6  and  N_7
REMARK                            x       y       z     vdW  Elec       q    Type
REMARK                         _______ _______ _______ _____ _____    ______ ____
ROOT
ATOM      1  C   UNL     1       3.018   1.938  18.493  0.00  0.00    +0.000 C 
ENDROOT
BRANCH   1   2
ATOM      2  C   UNL     1       1.794   2.173  19.367  0.00  0.00    +0.000 C 
BRANCH   2   4
ATOM      3  C   UNL     1       1.217   4.553  20.517  0.00  0.00    +0.000 C 
ATOM      4  S   UNL     1       2.267   3.121  20.855  0.00  0.00    +0.000 S 
ATOM      5  O   UNL     1       1.663   2.379  22.100  0.00  0.00    +0.000 OA
ENDBRANCH   2   4
ENDBRANCH   1   2
BRANCH   1   6
ATOM      6  C   UNL     1       4.038   3.067  18.619  0.00  0.00    +0.000 C 
BRANCH   6   7
ATOM      7  N   UNL     1       3.849   3.974  17.478  0.00  0.00    +0.000 NA
ATOM      8  C   UNL     1       4.715   3.976  16.687  0.00  0.00    +0.000 C 
ATOM      9  S   UNL     1       5.878   3.987  15.602  0.00  0.00    +0.000 S 
ENDBRANCH   6   7
ENDBRANCH   1   6
TORSDOF 4
ENDMDL
MODEL 8
REMARK VINA RESULT:      -3.5      2.703      3.796
REMARK  Name = 
REMARK  5 active torsions:
REMARK  status: ('A' for Active; 'I' for Inactive)
REMARK    1  A    between atoms: C_1  and  S_2
REMARK    2  A    between atoms: S_2  and  C_4
REMARK    3  A    between atoms: C_4  and  C_5
REMARK    4  A    between atoms: C_5  and  C_6
REMARK    5  A    between atoms: C_6  and  N_7
REMARK                            x       y       z     vdW  Elec       q    Type
REMARK                         _______ _______ _______ _____ _____    ______ ____
ROOT
ATOM      1  C   UNL     1       3.861   3.375  17.920  0.00  0.00    +0.000 C 
ENDROOT
BRANCH   1   2
ATOM      2  C   UNL     1       3.191   2.188  18.600  0.00  0.00    +0.000 C 
BRANCH   2   4
ATOM      3  C   UNL     1       1.256   2.934  20.339  0.00  0.00    +0.000 C 
ATOM      4  S   UNL     1       1.380   2.421  18.610  0.00  0.00    +0.000 S 
ATOM      5  O   UNL     1       1.060   3.677  17.723  0.00  0.00    +0.000 OA
ENDBRANCH   2   4
ENDBRANCH   1   2
BRANCH   1   6
ATOM      6  C   UNL     1       4.847   4.084  18.845  0.00  0.00    +0.000 C 
BRANCH   6   7
ATOM      7  N   UNL     1       4.090   5.042  19.662  0.00  0.00    +0.000 NA
ATOM      8  C   UNL     1       3.538   5.888  19.065  0.00  0.00    +0.000 C 
ATOM      9  S   UNL     1       2.781   7.040  18.271  0.00  0.00    +0.000 S 
ENDBRANCH   6   7
ENDBRANCH   1   6
TORSDOF 4
ENDMDL
MODEL 9
REMARK VINA RESULT:      -3.5      2.158      3.767
REMARK  Name = 
REMARK  5 active torsions:
REMARK  status: ('A' for Active; 'I' for Inactive)
REMARK    1  A    between atoms: C_1  and  S_2
REMARK    2  A    between atoms: S_2  and  C_4
REMARK    3  A    between atoms: C_4  and  C_5
REMARK    4  A    between atoms: C_5  and  C_6
REMARK    5  A    between atoms: C_6  and  N_7
REMARK                            x       y       z     vdW  Elec       q    Type
REMARK                         _______ _______ _______ _____ _____    ______ ____
ROOT
ATOM      1  C   UNL     1       2.106   3.610  17.866  0.00  0.00    +0.000 C 
ENDROOT
BRANCH   1   2
ATOM      2  C   UNL     1       1.132   3.013  18.874  0.00  0.00    +0.000 C 
BRANCH   2   4
ATOM      3  C   UNL     1       1.528   2.664  21.528  0.00  0.00    +0.000 C 
ATOM      4  S   UNL     1       1.126   4.018  20.399  0.00  0.00    +0.000 S 
ATOM      5  O   UNL     1       2.375   4.969  20.343  0.00  0.00    +0.000 OA
ENDBRANCH   2   4
ENDBRANCH   1   2
BRANCH   1   6
ATOM      6  C   UNL     1       3.353   2.746  17.693  0.00  0.00    +0.000 C 
BRANCH   6   7
ATOM      7  N   UNL     1       4.423   3.602  17.161  0.00  0.00    +0.000 NA
ATOM      8  C   UNL     1       4.991   4.252  17.956  0.00  0.00    +0.000 C 
ATOM      9  S   UNL     1       5.773   5.137  19.021  0.00  0.00    +0.000 S 
ENDBRANCH   6   7
ENDBRANCH   1   6
TORSDOF 4
ENDMDL
