MODEL 1
REMARK VINA RESULT:      -7.3      0.000      0.000
REMARK  Name = 
REMARK  6 active torsions:
REMARK  status: ('A' for Active; 'I' for Inactive)
REMARK    1  A    between atoms: C_2  and  O_3
REMARK    2  A    between atoms: C_2  and  C_4
REMARK    3  A    between atoms: C_6  and  N_7
REMARK    4  A    between atoms: N_7  and  N_8
REMARK    5  A    between atoms: C_9  and  C_10
REMARK    6  A    between atoms: C_13  and  N_14
REMARK                            x       y       z     vdW  Elec       q    Type
REMARK                         _______ _______ _______ _____ _____    ______ ____
ROOT
ATOM      1  N   UNL     1       8.608   9.168  17.606  0.00  0.00    +0.000 N 
ATOM      2  H   UNL     1       9.194   8.993  16.793  0.00  0.00    +0.000 HD
ENDROOT
BRANCH   1   5
ATOM      3  C   UNL     1       9.294  12.708  18.607  0.00  0.00    +0.000 A 
ATOM      4  C   UNL     1       8.952  11.575  17.834  0.00  0.00    +0.000 A 
ATOM      5  C   UNL     1       8.908  10.293  18.398  0.00  0.00    +0.000 A 
ATOM      6  C   UNL     1       9.244  10.162  19.750  0.00  0.00    +0.000 A 
ATOM      7  C   UNL     1       9.592  11.270  20.526  0.00  0.00    +0.000 A 
ATOM      8  C   UNL     1       9.621  12.543  19.958  0.00  0.00    +0.000 A 
ATOM      9 CL   UNL     1      10.093  13.842  20.994  0.00  0.00    +0.000 Cl
BRANCH   3  11
ATOM     10  O   UNL     1      10.355  14.558  17.575  0.00  0.00    +0.000 OA
ATOM     11  C   UNL     1       9.310  14.013  17.891  0.00  0.00    +0.000 C 
BRANCH  11  12
ATOM     12  O   UNL     1       8.107  14.503  17.532  0.00  0.00    +0.000 OA
ATOM     13  H   UNL     1       8.128  15.312  16.986  0.00  0.00    +0.000 HD
ENDBRANCH  11  12
ENDBRANCH   3  11
ENDBRANCH   1   5
BRANCH   1  14
ATOM     14  N   UNL     1       7.420   8.536  17.805  0.00  0.00    +0.000 NA
ATOM     15  C   UNL     1       7.350   7.284  17.469  0.00  0.00    +0.000 C 
BRANCH  15  16
ATOM     16  C   UNL     1       6.121   6.552  17.682  0.00  0.00    +0.000 A 
ATOM     17  C   UNL     1       4.914   6.691  17.036  0.00  0.00    +0.000 A 
ATOM     18  C   UNL     1       3.927   5.793  17.540  0.00  0.00    +0.000 A 
ATOM     19  C   UNL     1       4.383   4.976  18.563  0.00  0.00    +0.000 A 
ATOM     20  S   UNL     1       6.048   5.334  18.870  0.00  0.00    +0.000 S 
BRANCH  19  21
ATOM     21  N   UNL     1       3.665   4.031  19.247  0.00  0.00    +0.000 N 
ATOM     22  C   UNL     1       3.721   2.596  18.922  0.00  0.00    +0.000 C 
ATOM     23  C   UNL     1       2.306   2.080  18.598  0.00  0.00    +0.000 C 
ATOM     24  O   UNL     1       1.377   2.360  19.659  0.00  0.00    +0.000 OA
ATOM     25  C   UNL     1       1.307   3.777  19.898  0.00  0.00    +0.000 C 
ATOM     26  C   UNL     1       2.679   4.343  20.293  0.00  0.00    +0.000 C 
ENDBRANCH  19  21
ENDBRANCH  15  16
ENDBRANCH   1  14
TORSDOF 6
ENDMDL
MODEL 2
REMARK VINA RESULT:      -7.2      6.935     10.135
REMARK  Name = 
REMARK  6 active torsions:
REMARK  status: ('A' for Active; 'I' for Inactive)
REMARK    1  A    between atoms: C_2  and  O_3
REMARK    2  A    between atoms: C_2  and  C_4
REMARK    3  A    between atoms: C_6  and  N_7
REMARK    4  A    between atoms: N_7  and  N_8
REMARK    5  A    between atoms: C_9  and  C_10
REMARK    6  A    between atoms: C_13  and  N_14
REMARK                            x       y       z     vdW  Elec       q    Type
REMARK                         _______ _______ _______ _____ _____    ______ ____
ROOT
ATOM      1  N   UNL     1       3.165   7.350  17.810  0.00  0.00    +0.000 N 
ATOM      2  H   UNL     1       4.027   7.829  17.559  0.00  0.00    +0.000 HD
ENDROOT
BRANCH   1   5
ATOM      3  C   UNL     1       2.148   3.825  18.545  0.00  0.00    +0.000 A 
ATOM      4  C   UNL     1       2.111   5.232  18.414  0.00  0.00    +0.000 A 
ATOM      5  C   UNL     1       3.200   5.945  17.895  0.00  0.00    +0.000 A 
ATOM      6  C   UNL     1       4.344   5.222  17.538  0.00  0.00    +0.000 A 
ATOM      7  C   UNL     1       4.400   3.833  17.669  0.00  0.00    +0.000 A 
ATOM      8  C   UNL     1       3.306   3.131  18.174  0.00  0.00    +0.000 A 
ATOM      9 CL   UNL     1       3.487   1.420  18.325  0.00  0.00    +0.000 Cl
BRANCH   3  11
ATOM     10  O   UNL     1       0.298   2.344  18.494  0.00  0.00    +0.000 OA
ATOM     11  C   UNL     1       0.930   3.184  19.114  0.00  0.00    +0.000 C 
BRANCH  11  12
ATOM     12  O   UNL     1       0.629   3.518  20.385  0.00  0.00    +0.000 OA
ATOM     13  H   UNL     1       0.719   4.466  20.603  0.00  0.00    +0.000 HD
ENDBRANCH  11  12
ENDBRANCH   3  11
ENDBRANCH   1   5
BRANCH   1  14
ATOM     14  N   UNL     1       2.083   8.001  18.313  0.00  0.00    +0.000 NA
ATOM     15  C   UNL     1       1.919   9.241  17.963  0.00  0.00    +0.000 C 
BRANCH  15  16
ATOM     16  C   UNL     1       0.772   9.977  18.445  0.00  0.00    +0.000 A 
ATOM     17  C   UNL     1      -0.524   9.950  17.984  0.00  0.00    +0.000 A 
ATOM     18  C   UNL     1      -1.373  10.835  18.713  0.00  0.00    +0.000 A 
ATOM     19  C   UNL     1      -0.726  11.529  19.722  0.00  0.00    +0.000 A 
ATOM     20  S   UNL     1       0.938  11.053  19.755  0.00  0.00    +0.000 S 
BRANCH  19  21
ATOM     21  N   UNL     1      -1.274  12.451  20.574  0.00  0.00    +0.000 N 
ATOM     22  C   UNL     1      -0.538  13.021  21.714  0.00  0.00    +0.000 C 
ATOM     23  C   UNL     1      -1.308  12.747  23.020  0.00  0.00    +0.000 C 
ATOM     24  O   UNL     1      -2.662  13.224  22.955  0.00  0.00    +0.000 OA
ATOM     25  C   UNL     1      -3.361  12.592  21.868  0.00  0.00    +0.000 C 
ATOM     26  C   UNL     1      -2.679  12.885  20.523  0.00  0.00    +0.000 C 
ENDBRANCH  19  21
ENDBRANCH  15  16
ENDBRANCH   1  14
TORSDOF 6
ENDMDL
MODEL 3
REMARK VINA RESULT:      -7.1      7.562     10.855
REMARK  Name = 
REMARK  6 active torsions:
REMARK  status: ('A' for Active; 'I' for Inactive)
REMARK    1  A    between atoms: C_2  and  O_3
REMARK    2  A    between atoms: C_2  and  C_4
REMARK    3  A    between atoms: C_6  and  N_7
REMARK    4  A    between atoms: N_7  and  N_8
REMARK    5  A    between atoms: C_9  and  C_10
REMARK    6  A    between atoms: C_13  and  N_14
REMARK                            x       y       z     vdW  Elec       q    Type
REMARK                         _______ _______ _______ _____ _____    ______ ____
ROOT
ATOM      1  N   UNL     1       2.436   7.395  19.537  0.00  0.00    +0.000 N 
ATOM      2  H   UNL     1       3.201   7.897  19.092  0.00  0.00    +0.000 HD
ENDROOT
BRANCH   1   5
ATOM      3  C   UNL     1       2.367   3.701  20.135  0.00  0.00    +0.000 A 
ATOM      4  C   UNL     1       2.419   5.096  20.360  0.00  0.00    +0.000 A 
ATOM      5  C   UNL     1       2.340   6.010  19.301  0.00  0.00    +0.000 A 
ATOM      6  C   UNL     1       2.239   5.498  18.003  0.00  0.00    +0.000 A 
ATOM      7  C   UNL     1       2.195   4.124  17.761  0.00  0.00    +0.000 A 
ATOM      8  C   UNL     1       2.261   3.222  18.824  0.00  0.00    +0.000 A 
ATOM      9 CL   UNL     1       2.230   1.544  18.416  0.00  0.00    +0.000 Cl
BRANCH   3  11
ATOM     10  O   UNL     1       3.503   2.263  21.637  0.00  0.00    +0.000 OA
ATOM     11  C   UNL     1       2.466   2.834  21.341  0.00  0.00    +0.000 C 
BRANCH  11  12
ATOM     12  O   UNL     1       1.374   2.798  22.130  0.00  0.00    +0.000 OA
ATOM     13  H   UNL     1       0.959   1.920  22.234  0.00  0.00    +0.000 HD
ENDBRANCH  11  12
ENDBRANCH   3  11
ENDBRANCH   1   5
BRANCH   1  14
ATOM     14  N   UNL     1       1.684   7.934  20.534  0.00  0.00    +0.000 NA
ATOM     15  C   UNL     1       1.203   9.124  20.337  0.00  0.00    +0.000 C 
BRANCH  15  16
ATOM     16  C   UNL     1       0.374   9.739  21.350  0.00  0.00    +0.000 A 
ATOM     17  C   UNL     1      -0.128   9.184  22.505  0.00  0.00    +0.000 A 
ATOM     18  C   UNL     1      -0.922  10.109  23.246  0.00  0.00    +0.000 A 
ATOM     19  C   UNL     1      -1.023  11.359  22.656  0.00  0.00    +0.000 A 
ATOM     20  S   UNL     1      -0.108  11.364  21.187  0.00  0.00    +0.000 S 
BRANCH  19  21
ATOM     21  N   UNL     1      -1.723  12.439  23.124  0.00  0.00    +0.000 N 
ATOM     22  C   UNL     1      -3.134  12.358  23.536  0.00  0.00    +0.000 C 
ATOM     23  C   UNL     1      -3.974  13.356  22.716  0.00  0.00    +0.000 C 
ATOM     24  O   UNL     1      -3.458  14.694  22.807  0.00  0.00    +0.000 OA
ATOM     25  C   UNL     1      -2.100  14.738  22.334  0.00  0.00    +0.000 C 
ATOM     26  C   UNL     1      -1.194  13.811  23.158  0.00  0.00    +0.000 C 
ENDBRANCH  19  21
ENDBRANCH  15  16
ENDBRANCH   1  14
TORSDOF 6
ENDMDL
MODEL 4
REMARK VINA RESULT:      -7.1      0.981      1.519
REMARK  Name = 
REMARK  6 active torsions:
REMARK  status: ('A' for Active; 'I' for Inactive)
REMARK    1  A    between atoms: C_2  and  O_3
REMARK    2  A    between atoms: C_2  and  C_4
REMARK    3  A    between atoms: C_6  and  N_7
REMARK    4  A    between atoms: N_7  and  N_8
REMARK    5  A    between atoms: C_9  and  C_10
REMARK    6  A    between atoms: C_13  and  N_14
REMARK                            x       y       z     vdW  Elec       q    Type
REMARK                         _______ _______ _______ _____ _____    ______ ____
ROOT
ATOM      1  N   UNL     1       8.579   9.500  17.534  0.00  0.00    +0.000 N 
ATOM      2  H   UNL     1       8.917   9.520  16.574  0.00  0.00    +0.000 HD
ENDROOT
BRANCH   1   5
ATOM      3  C   UNL     1       9.412  12.949  18.723  0.00  0.00    +0.000 A 
ATOM      4  C   UNL     1       8.999  11.878  17.899  0.00  0.00    +0.000 A 
ATOM      5  C   UNL     1       8.952  10.563  18.379  0.00  0.00    +0.000 A 
ATOM      6  C   UNL     1       9.357  10.335  19.700  0.00  0.00    +0.000 A 
ATOM      7  C   UNL     1       9.776  11.380  20.525  0.00  0.00    +0.000 A 
ATOM      8  C   UNL     1       9.807  12.688  20.041  0.00  0.00    +0.000 A 
ATOM      9 CL   UNL     1      10.369  13.903  21.131  0.00  0.00    +0.000 Cl
BRANCH   3  11
ATOM     10  O   UNL     1      10.397  14.715  17.488  0.00  0.00    +0.000 OA
ATOM     11  C   UNL     1       9.423  14.298  18.094  0.00  0.00    +0.000 C 
BRANCH  11  12
ATOM     12  O   UNL     1       8.266  14.986  18.155  0.00  0.00    +0.000 OA
ATOM     13  H   UNL     1       7.592  14.733  17.495  0.00  0.00    +0.000 HD
ENDBRANCH  11  12
ENDBRANCH   3  11
ENDBRANCH   1   5
BRANCH   1  14
ATOM     14  N   UNL     1       7.595   8.658  17.949  0.00  0.00    +0.000 NA
ATOM     15  C   UNL     1       7.627   7.441  17.501  0.00  0.00    +0.000 C 
BRANCH  15  16
ATOM     16  C   UNL     1       6.622   6.492  17.927  0.00  0.00    +0.000 A 
ATOM     17  C   UNL     1       6.693   5.560  18.937  0.00  0.00    +0.000 A 
ATOM     18  C   UNL     1       5.495   4.792  19.044  0.00  0.00    +0.000 A 
ATOM     19  C   UNL     1       4.521   5.140  18.121  0.00  0.00    +0.000 A 
ATOM     20  S   UNL     1       5.113   6.436  17.139  0.00  0.00    +0.000 S 
BRANCH  19  21
ATOM     21  N   UNL     1       3.283   4.574  17.975  0.00  0.00    +0.000 N 
ATOM     22  C   UNL     1       2.116   4.989  18.770  0.00  0.00    +0.000 C 
ATOM     23  C   UNL     1       1.544   3.776  19.529  0.00  0.00    +0.000 C 
ATOM     24  O   UNL     1       1.238   2.686  18.645  0.00  0.00    +0.000 OA
ATOM     25  C   UNL     1       2.420   2.270  17.937  0.00  0.00    +0.000 C 
ATOM     26  C   UNL     1       3.002   3.422  17.103  0.00  0.00    +0.000 C 
ENDBRANCH  19  21
ENDBRANCH  15  16
ENDBRANCH   1  14
TORSDOF 6
ENDMDL
MODEL 5
REMARK VINA RESULT:      -7.1      7.111     10.049
REMARK  Name = 
REMARK  6 active torsions:
REMARK  status: ('A' for Active; 'I' for Inactive)
REMARK    1  A    between atoms: C_2  and  O_3
REMARK    2  A    between atoms: C_2  and  C_4
REMARK    3  A    between atoms: C_6  and  N_7
REMARK    4  A    between atoms: N_7  and  N_8
REMARK    5  A    between atoms: C_9  and  C_10
REMARK    6  A    between atoms: C_13  and  N_14
REMARK                            x       y       z     vdW  Elec       q    Type
REMARK                         _______ _______ _______ _____ _____    ______ ____
ROOT
ATOM      1  N   UNL     1       3.115   7.428  18.212  0.00  0.00    +0.000 N 
ATOM      2  H   UNL     1       3.979   7.868  17.902  0.00  0.00    +0.000 HD
ENDROOT
BRANCH   1   5
ATOM      3  C   UNL     1       2.467   4.000  19.568  0.00  0.00    +0.000 A 
ATOM      4  C   UNL     1       2.449   5.405  19.406  0.00  0.00    +0.000 A 
ATOM      5  C   UNL     1       3.106   6.025  18.336  0.00  0.00    +0.000 A 
ATOM      6  C   UNL     1       3.811   5.210  17.442  0.00  0.00    +0.000 A 
ATOM      7  C   UNL     1       3.847   3.823  17.592  0.00  0.00    +0.000 A 
ATOM      8  C   UNL     1       3.179   3.214  18.654  0.00  0.00    +0.000 A 
ATOM      9 CL   UNL     1       3.310   1.495  18.767  0.00  0.00    +0.000 Cl
BRANCH   3  11
ATOM     10  O   UNL     1       2.250   3.415  21.854  0.00  0.00    +0.000 OA
ATOM     11  C   UNL     1       1.736   3.464  20.748  0.00  0.00    +0.000 C 
BRANCH  11  12
ATOM     12  O   UNL     1       0.447   3.128  20.540  0.00  0.00    +0.000 OA
ATOM     13  H   UNL     1       0.304   2.330  19.994  0.00  0.00    +0.000 HD
ENDBRANCH  11  12
ENDBRANCH   3  11
ENDBRANCH   1   5
BRANCH   1  14
ATOM     14  N   UNL     1       2.083   8.130  18.750  0.00  0.00    +0.000 NA
ATOM     15  C   UNL     1       1.639   9.146  18.074  0.00  0.00    +0.000 C 
BRANCH  15  16
ATOM     16  C   UNL     1       0.526   9.916  18.584  0.00  0.00    +0.000 A 
ATOM     17  C   UNL     1      -0.702  10.139  18.005  0.00  0.00    +0.000 A 
ATOM     18  C   UNL     1      -1.534  10.969  18.814  0.00  0.00    +0.000 A 
ATOM     19  C   UNL     1      -0.941  11.373  19.999  0.00  0.00    +0.000 A 
ATOM     20  S   UNL     1       0.649  10.695  20.093  0.00  0.00    +0.000 S 
BRANCH  19  21
ATOM     21  N   UNL     1      -1.486  12.179  20.963  0.00  0.00    +0.000 N 
ATOM     22  C   UNL     1      -1.105  12.097  22.382  0.00  0.00    +0.000 C 
ATOM     23  C   UNL     1      -2.352  11.816  23.241  0.00  0.00    +0.000 C 
ATOM     24  O   UNL     1      -3.390  12.784  23.014  0.00  0.00    +0.000 OA
ATOM     25  C   UNL     1      -3.776  12.784  21.628  0.00  0.00    +0.000 C 
ATOM     26  C   UNL     1      -2.586  13.125  20.719  0.00  0.00    +0.000 C 
ENDBRANCH  19  21
ENDBRANCH  15  16
ENDBRANCH   1  14
TORSDOF 6
ENDMDL
MODEL 6
REMARK VINA RESULT:      -7.1      0.690      1.366
REMARK  Name = 
REMARK  6 active torsions:
REMARK  status: ('A' for Active; 'I' for Inactive)
REMARK    1  A    between atoms: C_2  and  O_3
REMARK    2  A    between atoms: C_2  and  C_4
REMARK    3  A    between atoms: C_6  and  N_7
REMARK    4  A    between atoms: N_7  and  N_8
REMARK    5  A    between atoms: C_9  and  C_10
REMARK    6  A    between atoms: C_13  and  N_14
REMARK                            x       y       z     vdW  Elec       q    Type
REMARK                         _______ _______ _______ _____ _____    ______ ____
ROOT
ATOM      1  N   UNL     1       8.645   9.177  17.623  0.00  0.00    +0.000 N 
ATOM      2  H   UNL     1       9.280   8.988  16.851  0.00  0.00    +0.000 HD
ENDROOT
BRANCH   1   5
ATOM      3  C   UNL     1       9.230  12.718  18.684  0.00  0.00    +0.000 A 
ATOM      4  C   UNL     1       8.916  11.588  17.894  0.00  0.00    +0.000 A 
ATOM      5  C   UNL     1       8.918  10.296  18.433  0.00  0.00    +0.000 A 
ATOM      6  C   UNL     1       9.270  10.151  19.780  0.00  0.00    +0.000 A 
ATOM      7  C   UNL     1       9.591  11.254  20.573  0.00  0.00    +0.000 A 
ATOM      8  C   UNL     1       9.575  12.538  20.029  0.00  0.00    +0.000 A 
ATOM      9 CL   UNL     1      10.016  13.831  21.086  0.00  0.00    +0.000 Cl
BRANCH   3  11
ATOM     10  O   UNL     1       8.393  14.901  18.298  0.00  0.00    +0.000 OA
ATOM     11  C   UNL     1       9.199  14.036  17.993  0.00  0.00    +0.000 C 
BRANCH  11  12
ATOM     12  O   UNL     1      10.170  14.246  17.083  0.00  0.00    +0.000 OA
ATOM     13  H   UNL     1       9.867  14.556  16.208  0.00  0.00    +0.000 HD
ENDBRANCH  11  12
ENDBRANCH   3  11
ENDBRANCH   1   5
BRANCH   1  14
ATOM     14  N   UNL     1       7.433   8.572  17.742  0.00  0.00    +0.000 NA
ATOM     15  C   UNL     1       7.379   7.297  17.505  0.00  0.00    +0.000 C 
BRANCH  15  16
ATOM     16  C   UNL     1       6.122   6.595  17.641  0.00  0.00    +0.000 A 
ATOM     17  C   UNL     1       4.948   6.790  16.951  0.00  0.00    +0.000 A 
ATOM     18  C   UNL     1       3.916   5.905  17.383  0.00  0.00    +0.000 A 
ATOM     19  C   UNL     1       4.305   5.042  18.395  0.00  0.00    +0.000 A 
ATOM     20  S   UNL     1       5.966   5.341  18.783  0.00  0.00    +0.000 S 
BRANCH  19  21
ATOM     21  N   UNL     1       3.534   4.096  19.016  0.00  0.00    +0.000 N 
ATOM     22  C   UNL     1       2.241   4.407  19.645  0.00  0.00    +0.000 C 
ATOM     23  C   UNL     1       2.273   4.000  21.131  0.00  0.00    +0.000 C 
ATOM     24  O   UNL     1       2.642   2.622  21.302  0.00  0.00    +0.000 OA
ATOM     25  C   UNL     1       3.939   2.378  20.730  0.00  0.00    +0.000 C 
ATOM     26  C   UNL     1       3.954   2.701  19.228  0.00  0.00    +0.000 C 
ENDBRANCH  19  21
ENDBRANCH  15  16
ENDBRANCH   1  14
TORSDOF 6
ENDMDL
MODEL 7
REMARK VINA RESULT:      -7.0      6.372      8.081
REMARK  Name = 
REMARK  6 active torsions:
REMARK  status: ('A' for Active; 'I' for Inactive)
REMARK    1  A    between atoms: C_2  and  O_3
REMARK    2  A    between atoms: C_2  and  C_4
REMARK    3  A    between atoms: C_6  and  N_7
REMARK    4  A    between atoms: N_7  and  N_8
REMARK    5  A    between atoms: C_9  and  C_10
REMARK    6  A    between atoms: C_13  and  N_14
REMARK                            x       y       z     vdW  Elec       q    Type
REMARK                         _______ _______ _______ _____ _____    ______ ____
ROOT
ATOM      1  N   UNL     1       0.538   8.666  21.986  0.00  0.00    +0.000 N 
ATOM      2  H   UNL     1       0.475   8.135  22.852  0.00  0.00    +0.000 HD
ENDROOT
BRANCH   1   5
ATOM      3  C   UNL     1      -1.067  11.733  20.564  0.00  0.00    +0.000 A 
ATOM      4  C   UNL     1      -0.348  10.521  20.668  0.00  0.00    +0.000 A 
ATOM      5  C   UNL     1      -0.217   9.851  21.891  0.00  0.00    +0.000 A 
ATOM      6  C   UNL     1      -0.797  10.437  23.022  0.00  0.00    +0.000 A 
ATOM      7  C   UNL     1      -1.503  11.639  22.940  0.00  0.00    +0.000 A 
ATOM      8  C   UNL     1      -1.639  12.291  21.714  0.00  0.00    +0.000 A 
ATOM      9 CL   UNL     1      -2.505  13.786  21.725  0.00  0.00    +0.000 Cl
BRANCH   3  11
ATOM     10  O   UNL     1      -0.125  12.737  18.636  0.00  0.00    +0.000 OA
ATOM     11  C   UNL     1      -1.130  12.349  19.211  0.00  0.00    +0.000 C 
BRANCH  11  12
ATOM     12  O   UNL     1      -2.344  12.364  18.626  0.00  0.00    +0.000 OA
ATOM     13  H   UNL     1      -2.457  11.745  17.879  0.00  0.00    +0.000 HD
ENDBRANCH  11  12
ENDBRANCH   3  11
ENDBRANCH   1   5
BRANCH   1  14
ATOM     14  N   UNL     1       1.496   8.434  21.049  0.00  0.00    +0.000 NA
ATOM     15  C   UNL     1       1.464   7.288  20.440  0.00  0.00    +0.000 C 
BRANCH  15  16
ATOM     16  C   UNL     1       2.441   6.993  19.415  0.00  0.00    +0.000 A 
ATOM     17  C   UNL     1       2.760   7.725  18.294  0.00  0.00    +0.000 A 
ATOM     18  C   UNL     1       3.772   7.095  17.510  0.00  0.00    +0.000 A 
ATOM     19  C   UNL     1       4.218   5.892  18.033  0.00  0.00    +0.000 A 
ATOM     20  S   UNL     1       3.375   5.571  19.510  0.00  0.00    +0.000 S 
BRANCH  19  21
ATOM     21  N   UNL     1       5.166   5.060  17.499  0.00  0.00    +0.000 N 
ATOM     22  C   UNL     1       6.200   4.400  18.313  0.00  0.00    +0.000 C 
ATOM     23  C   UNL     1       7.598   4.786  17.793  0.00  0.00    +0.000 C 
ATOM     24  O   UNL     1       7.747   4.502  16.393  0.00  0.00    +0.000 OA
ATOM     25  C   UNL     1       6.759   5.218  15.630  0.00  0.00    +0.000 C 
ATOM     26  C   UNL     1       5.336   4.825  16.056  0.00  0.00    +0.000 C 
ENDBRANCH  19  21
ENDBRANCH  15  16
ENDBRANCH   1  14
TORSDOF 6
ENDMDL
MODEL 8
REMARK VINA RESULT:      -7.0      5.653      8.200
REMARK  Name = 
REMARK  6 active torsions:
REMARK  status: ('A' for Active; 'I' for Inactive)
REMARK    1  A    between atoms: C_2  and  O_3
REMARK    2  A    between atoms: C_2  and  C_4
REMARK    3  A    between atoms: C_6  and  N_7
REMARK    4  A    between atoms: N_7  and  N_8
REMARK    5  A    between atoms: C_9  and  C_10
REMARK    6  A    between atoms: C_13  and  N_14
REMARK                            x       y       z     vdW  Elec       q    Type
REMARK                         _______ _______ _______ _____ _____    ______ ____
ROOT
ATOM      1  N   UNL     1       3.072   4.418  19.895  0.00  0.00    +0.000 N 
ATOM      2  H   UNL     1       2.679   3.489  20.025  0.00  0.00    +0.000 HD
ENDROOT
BRANCH   1   5
ATOM      3  C   UNL     1       6.349   5.349  18.346  0.00  0.00    +0.000 A 
ATOM      4  C   UNL     1       5.322   5.156  19.298  0.00  0.00    +0.000 A 
ATOM      5  C   UNL     1       4.101   4.565  18.946  0.00  0.00    +0.000 A 
ATOM      6  C   UNL     1       3.917   4.196  17.608  0.00  0.00    +0.000 A 
ATOM      7  C   UNL     1       4.917   4.387  16.654  0.00  0.00    +0.000 A 
ATOM      8  C   UNL     1       6.133   4.965  17.017  0.00  0.00    +0.000 A 
ATOM      9 CL   UNL     1       7.293   5.186  15.756  0.00  0.00    +0.000 Cl
BRANCH   3  11
ATOM     10  O   UNL     1       7.997   7.051  18.387  0.00  0.00    +0.000 OA
ATOM     11  C   UNL     1       7.596   5.993  18.843  0.00  0.00    +0.000 C 
BRANCH  11  12
ATOM     12  O   UNL     1       8.196   5.387  19.887  0.00  0.00    +0.000 OA
ATOM     13  H   UNL     1       9.172   5.399  19.875  0.00  0.00    +0.000 HD
ENDBRANCH  11  12
ENDBRANCH   3  11
ENDBRANCH   1   5
BRANCH   1  14
ATOM     14  N   UNL     1       2.484   5.541  20.389  0.00  0.00    +0.000 NA
ATOM     15  C   UNL     1       2.430   6.576  19.608  0.00  0.00    +0.000 C 
BRANCH  15  16
ATOM     16  C   UNL     1       1.794   7.790  20.069  0.00  0.00    +0.000 A 
ATOM     17  C   UNL     1       1.322   8.090  21.326  0.00  0.00    +0.000 A 
ATOM     18  C   UNL     1       0.741   9.392  21.386  0.00  0.00    +0.000 A 
ATOM     19  C   UNL     1       0.772  10.076  20.180  0.00  0.00    +0.000 A 
ATOM     20  S   UNL     1       1.543   9.084  18.989  0.00  0.00    +0.000 S 
BRANCH  19  21
ATOM     21  N   UNL     1       0.282  11.330  19.929  0.00  0.00    +0.000 N 
ATOM     22  C   UNL     1      -1.137  11.588  19.632  0.00  0.00    +0.000 C 
ATOM     23  C   UNL     1      -1.264  12.287  18.265  0.00  0.00    +0.000 C 
ATOM     24  O   UNL     1      -0.469  13.482  18.198  0.00  0.00    +0.000 OA
ATOM     25  C   UNL     1       0.917  13.173  18.429  0.00  0.00    +0.000 C 
ATOM     26  C   UNL     1       1.120  12.533  19.811  0.00  0.00    +0.000 C 
ENDBRANCH  19  21
ENDBRANCH  15  16
ENDBRANCH   1  14
TORSDOF 6
ENDMDL
MODEL 9
REMARK VINA RESULT:      -7.0      7.180     10.249
REMARK  Name = 
REMARK  6 active torsions:
REMARK  status: ('A' for Active; 'I' for Inactive)
REMARK    1  A    between atoms: C_2  and  O_3
REMARK    2  A    between atoms: C_2  and  C_4
REMARK    3  A    between atoms: C_6  and  N_7
REMARK    4  A    between atoms: N_7  and  N_8
REMARK    5  A    between atoms: C_9  and  C_10
REMARK    6  A    between atoms: C_13  and  N_14
REMARK                            x       y       z     vdW  Elec       q    Type
REMARK                         _______ _______ _______ _____ _____    ______ ____
ROOT
ATOM      1  N   UNL     1       2.014   6.423  21.030  0.00  0.00    +0.000 N 
ATOM      2  H   UNL     1       2.087   5.966  21.937  0.00  0.00    +0.000 HD
ENDROOT
BRANCH   1   5
ATOM      3  C   UNL     1       3.637   3.803  18.906  0.00  0.00    +0.000 A 
ATOM      4  C   UNL     1       2.976   4.437  19.983  0.00  0.00    +0.000 A 
ATOM      5  C   UNL     1       2.633   5.795  19.932  0.00  0.00    +0.000 A 
ATOM      6  C   UNL     1       2.992   6.516  18.788  0.00  0.00    +0.000 A 
ATOM      7  C   UNL     1       3.652   5.907  17.718  0.00  0.00    +0.000 A 
ATOM      8  C   UNL     1       3.978   4.552  17.774  0.00  0.00    +0.000 A 
ATOM      9 CL   UNL     1       4.820   3.903  16.413  0.00  0.00    +0.000 Cl
BRANCH   3  11
ATOM     10  O   UNL     1       3.295   1.487  18.538  0.00  0.00    +0.000 OA
ATOM     11  C   UNL     1       3.951   2.359  19.084  0.00  0.00    +0.000 C 
BRANCH  11  12
ATOM     12  O   UNL     1       5.057   2.082  19.804  0.00  0.00    +0.000 OA
ATOM     13  H   UNL     1       4.897   1.758  20.712  0.00  0.00    +0.000 HD
ENDBRANCH  11  12
ENDBRANCH   3  11
ENDBRANCH   1   5
BRANCH   1  14
ATOM     14  N   UNL     1       1.148   7.442  20.787  0.00  0.00    +0.000 NA
ATOM     15  C   UNL     1       1.329   8.545  21.446  0.00  0.00    +0.000 C 
BRANCH  15  16
ATOM     16  C   UNL     1       0.454   9.673  21.211  0.00  0.00    +0.000 A 
ATOM     17  C   UNL     1       0.270  10.392  20.053  0.00  0.00    +0.000 A 
ATOM     18  C   UNL     1      -0.672  11.450  20.221  0.00  0.00    +0.000 A 
ATOM     19  C   UNL     1      -1.200  11.533  21.499  0.00  0.00    +0.000 A 
ATOM     20  S   UNL     1      -0.520  10.274  22.473  0.00  0.00    +0.000 S 
BRANCH  19  21
ATOM     21  N   UNL     1      -2.110  12.448  21.959  0.00  0.00    +0.000 N 
ATOM     22  C   UNL     1      -2.202  12.840  23.375  0.00  0.00    +0.000 C 
ATOM     23  C   UNL     1      -3.624  12.563  23.901  0.00  0.00    +0.000 C 
ATOM     24  O   UNL     1      -4.628  13.202  23.095  0.00  0.00    +0.000 OA
ATOM     25  C   UNL     1      -4.542  12.740  21.734  0.00  0.00    +0.000 C 
ATOM     26  C   UNL     1      -3.165  13.049  21.128  0.00  0.00    +0.000 C 
ENDBRANCH  19  21
ENDBRANCH  15  16
ENDBRANCH   1  14
TORSDOF 6
ENDMDL
