MODEL 1
REMARK VINA RESULT:      -8.6      0.000      0.000
REMARK  Name = 
REMARK  5 active torsions:
REMARK  status: ('A' for Active; 'I' for Inactive)
REMARK    1  A    between atoms: C_1  and  C_2
REMARK    2  A    between atoms: C_5  and  C_6
REMARK    3  A    between atoms: C_10  and  O_11
REMARK    4  A    between atoms: C_16  and  C_17
REMARK    5  A    between atoms: C_21  and  O_22
REMARK                            x       y       z     vdW  Elec       q    Type
REMARK                         _______ _______ _______ _____ _____    ______ ____
ROOT
ATOM      1  C   UNL     1       4.073   2.927  19.581  0.00  0.00    +0.000 C 
ATOM      2  C   UNL     1       3.401   4.268  19.643  0.00  0.00    +0.000 A 
ATOM      3  N   UNL     1       2.412   4.318  20.577  0.00  0.00    +0.000 NA
ATOM      4  C   UNL     1       1.768   5.487  20.774  0.00  0.00    +0.000 A 
ATOM      5  C   UNL     1       2.044   6.668  20.100  0.00  0.00    +0.000 A 
ATOM      6  C   UNL     1       3.046   6.570  19.116  0.00  0.00    +0.000 A 
ATOM      7  C   UNL     1       3.754   5.372  18.843  0.00  0.00    +0.000 A 
ENDROOT
BRANCH   5   8
ATOM      8  C   UNL     1       1.337   7.934  20.403  0.00  0.00    +0.000 A 
ATOM      9  C   UNL     1       1.336   9.012  19.492  0.00  0.00    +0.000 A 
ATOM     10  C   UNL     1       0.675  10.206  19.790  0.00  0.00    +0.000 A 
ATOM     11  F   UNL     1       0.707  11.215  18.906  0.00  0.00    +0.000 F 
ATOM     12  C   UNL     1      -0.012  10.364  20.980  0.00  0.00    +0.000 A 
ATOM     13  C   UNL     1      -0.033   9.314  21.885  0.00  0.00    +0.000 A 
ATOM     14  F   UNL     1      -0.697   9.429  23.043  0.00  0.00    +0.000 F 
ATOM     15  C   UNL     1       0.634   8.118  21.609  0.00  0.00    +0.000 A 
BRANCH  12  16
ATOM     16  O   UNL     1      -0.663  11.531  21.262  0.00  0.00    +0.000 OA
ATOM     17  H   UNL     1      -0.095  12.263  20.955  0.00  0.00    +0.000 HD
ENDBRANCH  12  16
ENDBRANCH   5   8
BRANCH   7  18
ATOM     18  C   UNL     1       4.799   5.364  17.776  0.00  0.00    +0.000 A 
ATOM     19  C   UNL     1       5.948   6.179  17.867  0.00  0.00    +0.000 A 
ATOM     20  C   UNL     1       6.913   6.192  16.856  0.00  0.00    +0.000 A 
ATOM     21  F   UNL     1       7.971   7.009  16.963  0.00  0.00    +0.000 F 
ATOM     22  C   UNL     1       6.797   5.376  15.743  0.00  0.00    +0.000 A 
ATOM     23  C   UNL     1       5.682   4.564  15.631  0.00  0.00    +0.000 A 
ATOM     24  F   UNL     1       5.534   3.751  14.575  0.00  0.00    +0.000 F 
ATOM     25  C   UNL     1       4.686   4.581  16.611  0.00  0.00    +0.000 A 
BRANCH  22  26
ATOM     26  O   UNL     1       7.750   5.377  14.767  0.00  0.00    +0.000 OA
ATOM     27  H   UNL     1       8.483   5.944  15.071  0.00  0.00    +0.000 HD
ENDBRANCH  22  26
ENDBRANCH   7  18
TORSDOF 4
ENDMDL
MODEL 2
REMARK VINA RESULT:      -8.6      0.933      1.566
REMARK  Name = 
REMARK  5 active torsions:
REMARK  status: ('A' for Active; 'I' for Inactive)
REMARK    1  A    between atoms: C_1  and  C_2
REMARK    2  A    between atoms: C_5  and  C_6
REMARK    3  A    between atoms: C_10  and  O_11
REMARK    4  A    between atoms: C_16  and  C_17
REMARK    5  A    between atoms: C_21  and  O_22
REMARK                            x       y       z     vdW  Elec       q    Type
REMARK                         _______ _______ _______ _____ _____    ______ ____
ROOT
ATOM      1  C   UNL     1       3.553   2.783  19.837  0.00  0.00    +0.000 C 
ATOM      2  C   UNL     1       3.061   4.203  19.859  0.00  0.00    +0.000 A 
ATOM      3  N   UNL     1       2.022   4.386  20.717  0.00  0.00    +0.000 NA
ATOM      4  C   UNL     1       1.525   5.631  20.873  0.00  0.00    +0.000 A 
ATOM      5  C   UNL     1       2.004   6.763  20.230  0.00  0.00    +0.000 A 
ATOM      6  C   UNL     1       3.055   6.530  19.322  0.00  0.00    +0.000 A 
ATOM      7  C   UNL     1       3.616   5.247  19.094  0.00  0.00    +0.000 A 
ENDROOT
BRANCH   5   8
ATOM      8  C   UNL     1       1.451   8.113  20.489  0.00  0.00    +0.000 A 
ATOM      9  C   UNL     1       1.334   9.069  19.458  0.00  0.00    +0.000 A 
ATOM     10  C   UNL     1       0.820  10.343  19.712  0.00  0.00    +0.000 A 
ATOM     11  F   UNL     1       0.737  11.232  18.711  0.00  0.00    +0.000 F 
ATOM     12  C   UNL     1       0.396  10.702  20.979  0.00  0.00    +0.000 A 
ATOM     13  C   UNL     1       0.493   9.774  22.005  0.00  0.00    +0.000 A 
ATOM     14  F   UNL     1       0.082  10.084  23.241  0.00  0.00    +0.000 F 
ATOM     15  C   UNL     1       1.017   8.500  21.771  0.00  0.00    +0.000 A 
BRANCH  12  16
ATOM     16  O   UNL     1      -0.112  11.946  21.220  0.00  0.00    +0.000 OA
ATOM     17  H   UNL     1       0.497  12.396  21.836  0.00  0.00    +0.000 HD
ENDBRANCH  12  16
ENDBRANCH   5   8
BRANCH   7  18
ATOM     18  C   UNL     1       4.727   5.097  18.107  0.00  0.00    +0.000 A 
ATOM     19  C   UNL     1       4.506   5.254  16.722  0.00  0.00    +0.000 A 
ATOM     20  C   UNL     1       5.540   5.089  15.796  0.00  0.00    +0.000 A 
ATOM     21  F   UNL     1       5.280   5.208  14.486  0.00  0.00    +0.000 F 
ATOM     22  C   UNL     1       6.831   4.800  16.208  0.00  0.00    +0.000 A 
ATOM     23  C   UNL     1       7.076   4.646  17.560  0.00  0.00    +0.000 A 
ATOM     24  F   UNL     1       8.313   4.376  18.003  0.00  0.00    +0.000 F 
ATOM     25  C   UNL     1       6.040   4.758  18.491  0.00  0.00    +0.000 A 
BRANCH  22  26
ATOM     26  O   UNL     1       7.842   4.657  15.302  0.00  0.00    +0.000 OA
ATOM     27  H   UNL     1       7.887   3.715  15.057  0.00  0.00    +0.000 HD
ENDBRANCH  22  26
ENDBRANCH   7  18
TORSDOF 4
ENDMDL
MODEL 3
REMARK VINA RESULT:      -8.5      0.309      1.650
REMARK  Name = 
REMARK  5 active torsions:
REMARK  status: ('A' for Active; 'I' for Inactive)
REMARK    1  A    between atoms: C_1  and  C_2
REMARK    2  A    between atoms: C_5  and  C_6
REMARK    3  A    between atoms: C_10  and  O_11
REMARK    4  A    between atoms: C_16  and  C_17
REMARK    5  A    between atoms: C_21  and  O_22
REMARK                            x       y       z     vdW  Elec       q    Type
REMARK                         _______ _______ _______ _____ _____    ______ ____
ROOT
ATOM      1  C   UNL     1       3.868   3.016  19.510  0.00  0.00    +0.000 C 
ATOM      2  C   UNL     1       3.277   4.393  19.613  0.00  0.00    +0.000 A 
ATOM      3  N   UNL     1       2.293   4.474  20.548  0.00  0.00    +0.000 NA
ATOM      4  C   UNL     1       1.719   5.673  20.780  0.00  0.00    +0.000 A 
ATOM      5  C   UNL     1       2.065   6.855  20.141  0.00  0.00    +0.000 A 
ATOM      6  C   UNL     1       3.061   6.726  19.155  0.00  0.00    +0.000 A 
ATOM      7  C   UNL     1       3.697   5.496  18.845  0.00  0.00    +0.000 A 
ENDROOT
BRANCH   5   8
ATOM      8  C   UNL     1       1.435   8.151  20.483  0.00  0.00    +0.000 A 
ATOM      9  C   UNL     1       1.017   8.440  21.799  0.00  0.00    +0.000 A 
ATOM     10  C   UNL     1       0.414   9.661  22.112  0.00  0.00    +0.000 A 
ATOM     11  F   UNL     1       0.016   9.897  23.371  0.00  0.00    +0.000 F 
ATOM     12  C   UNL     1       0.223  10.631  21.145  0.00  0.00    +0.000 A 
ATOM     13  C   UNL     1       0.635  10.372  19.846  0.00  0.00    +0.000 A 
ATOM     14  F   UNL     1       0.475  11.292  18.887  0.00  0.00    +0.000 F 
ATOM     15  C   UNL     1       1.227   9.151  19.514  0.00  0.00    +0.000 A 
BRANCH  12  16
ATOM     16  O   UNL     1      -0.359  11.826  21.457  0.00  0.00    +0.000 OA
ATOM     17  H   UNL     1       0.039  12.135  22.293  0.00  0.00    +0.000 HD
ENDBRANCH  12  16
ENDBRANCH   5   8
BRANCH   7  18
ATOM     18  C   UNL     1       4.740   5.458  17.777  0.00  0.00    +0.000 A 
ATOM     19  C   UNL     1       5.921   6.226  17.876  0.00  0.00    +0.000 A 
ATOM     20  C   UNL     1       6.886   6.211  16.865  0.00  0.00    +0.000 A 
ATOM     21  F   UNL     1       7.975   6.984  16.980  0.00  0.00    +0.000 F 
ATOM     22  C   UNL     1       6.736   5.411  15.744  0.00  0.00    +0.000 A 
ATOM     23  C   UNL     1       5.591   4.645  15.624  0.00  0.00    +0.000 A 
ATOM     24  F   UNL     1       5.410   3.850  14.560  0.00  0.00    +0.000 F 
ATOM     25  C   UNL     1       4.595   4.693  16.604  0.00  0.00    +0.000 A 
BRANCH  22  26
ATOM     26  O   UNL     1       7.689   5.385  14.767  0.00  0.00    +0.000 OA
ATOM     27  H   UNL     1       8.559   5.328  15.205  0.00  0.00    +0.000 HD
ENDBRANCH  22  26
ENDBRANCH   7  18
TORSDOF 4
ENDMDL
MODEL 4
REMARK VINA RESULT:      -8.5      0.342      2.329
REMARK  Name = 
REMARK  5 active torsions:
REMARK  status: ('A' for Active; 'I' for Inactive)
REMARK    1  A    between atoms: C_1  and  C_2
REMARK    2  A    between atoms: C_5  and  C_6
REMARK    3  A    between atoms: C_10  and  O_11
REMARK    4  A    between atoms: C_16  and  C_17
REMARK    5  A    between atoms: C_21  and  O_22
REMARK                            x       y       z     vdW  Elec       q    Type
REMARK                         _______ _______ _______ _____ _____    ______ ____
ROOT
ATOM      1  C   UNL     1       3.824   3.061  19.509  0.00  0.00    +0.000 C 
ATOM      2  C   UNL     1       3.233   4.437  19.619  0.00  0.00    +0.000 A 
ATOM      3  N   UNL     1       2.246   4.513  20.552  0.00  0.00    +0.000 NA
ATOM      4  C   UNL     1       1.673   5.711  20.791  0.00  0.00    +0.000 A 
ATOM      5  C   UNL     1       2.021   6.896  20.160  0.00  0.00    +0.000 A 
ATOM      6  C   UNL     1       3.018   6.774  19.175  0.00  0.00    +0.000 A 
ATOM      7  C   UNL     1       3.655   5.545  18.859  0.00  0.00    +0.000 A 
ENDROOT
BRANCH   5   8
ATOM      8  C   UNL     1       1.390   8.191  20.509  0.00  0.00    +0.000 A 
ATOM      9  C   UNL     1       0.986   8.479  21.829  0.00  0.00    +0.000 A 
ATOM     10  C   UNL     1       0.383   9.698  22.149  0.00  0.00    +0.000 A 
ATOM     11  F   UNL     1      -0.002   9.933  23.412  0.00  0.00    +0.000 F 
ATOM     12  C   UNL     1       0.178  10.667  21.183  0.00  0.00    +0.000 A 
ATOM     13  C   UNL     1       0.577  10.409  19.880  0.00  0.00    +0.000 A 
ATOM     14  F   UNL     1       0.402  11.329  18.923  0.00  0.00    +0.000 F 
ATOM     15  C   UNL     1       1.169   9.190  19.541  0.00  0.00    +0.000 A 
BRANCH  12  16
ATOM     16  O   UNL     1      -0.404  11.860  21.502  0.00  0.00    +0.000 OA
ATOM     17  H   UNL     1      -0.267  12.006  22.458  0.00  0.00    +0.000 HD
ENDBRANCH  12  16
ENDBRANCH   5   8
BRANCH   7  18
ATOM     18  C   UNL     1       4.701   5.514  17.794  0.00  0.00    +0.000 A 
ATOM     19  C   UNL     1       4.534   4.744  16.622  0.00  0.00    +0.000 A 
ATOM     20  C   UNL     1       5.524   4.693  15.637  0.00  0.00    +0.000 A 
ATOM     21  F   UNL     1       5.343   3.919  14.558  0.00  0.00    +0.000 F 
ATOM     22  C   UNL     1       6.693   5.427  15.757  0.00  0.00    +0.000 A 
ATOM     23  C   UNL     1       6.880   6.194  16.893  0.00  0.00    +0.000 A 
ATOM     24  F   UNL     1       7.992   6.928  17.045  0.00  0.00    +0.000 F 
ATOM     25  C   UNL     1       5.919   6.211  17.908  0.00  0.00    +0.000 A 
BRANCH  22  26
ATOM     26  O   UNL     1       7.649   5.389  14.785  0.00  0.00    +0.000 OA
ATOM     27  H   UNL     1       7.209   5.160  13.946  0.00  0.00    +0.000 HD
ENDBRANCH  22  26
ENDBRANCH   7  18
TORSDOF 4
ENDMDL
MODEL 5
REMARK VINA RESULT:      -7.6      2.731      8.440
REMARK  Name = 
REMARK  5 active torsions:
REMARK  status: ('A' for Active; 'I' for Inactive)
REMARK    1  A    between atoms: C_1  and  C_2
REMARK    2  A    between atoms: C_5  and  C_6
REMARK    3  A    between atoms: C_10  and  O_11
REMARK    4  A    between atoms: C_16  and  C_17
REMARK    5  A    between atoms: C_21  and  O_22
REMARK                            x       y       z     vdW  Elec       q    Type
REMARK                         _______ _______ _______ _____ _____    ______ ____
ROOT
ATOM      1  C   UNL     1       1.379  11.061  17.909  0.00  0.00    +0.000 C 
ATOM      2  C   UNL     1       1.766   9.664  18.303  0.00  0.00    +0.000 A 
ATOM      3  N   UNL     1       2.517   9.039  17.357  0.00  0.00    +0.000 NA
ATOM      4  C   UNL     1       2.979   7.798  17.615  0.00  0.00    +0.000 A 
ATOM      5  C   UNL     1       2.760   7.098  18.793  0.00  0.00    +0.000 A 
ATOM      6  C   UNL     1       1.949   7.760  19.733  0.00  0.00    +0.000 A 
ATOM      7  C   UNL     1       1.414   9.058  19.525  0.00  0.00    +0.000 A 
ENDROOT
BRANCH   5   8
ATOM      8  C   UNL     1       3.344   5.759  19.036  0.00  0.00    +0.000 A 
ATOM      9  C   UNL     1       2.622   4.755  19.717  0.00  0.00    +0.000 A 
ATOM     10  C   UNL     1       3.184   3.498  19.951  0.00  0.00    +0.000 A 
ATOM     11  F   UNL     1       2.474   2.572  20.614  0.00  0.00    +0.000 F 
ATOM     12  C   UNL     1       4.458   3.192  19.511  0.00  0.00    +0.000 A 
ATOM     13  C   UNL     1       5.182   4.160  18.831  0.00  0.00    +0.000 A 
ATOM     14  F   UNL     1       6.415   3.894  18.381  0.00  0.00    +0.000 F 
ATOM     15  C   UNL     1       4.641   5.427  18.600  0.00  0.00    +0.000 A 
BRANCH  12  16
ATOM     16  O   UNL     1       4.999   1.959  19.736  0.00  0.00    +0.000 OA
ATOM     17  H   UNL     1       5.220   1.906  20.685  0.00  0.00    +0.000 HD
ENDBRANCH  12  16
ENDBRANCH   5   8
BRANCH   7  18
ATOM     18  C   UNL     1       0.560   9.678  20.582  0.00  0.00    +0.000 A 
ATOM     19  C   UNL     1       0.664   9.288  21.934  0.00  0.00    +0.000 A 
ATOM     20  C   UNL     1      -0.153   9.849  22.919  0.00  0.00    +0.000 A 
ATOM     21  F   UNL     1      -0.049   9.422  24.186  0.00  0.00    +0.000 F 
ATOM     22  C   UNL     1      -1.072  10.838  22.609  0.00  0.00    +0.000 A 
ATOM     23  C   UNL     1      -1.192  11.242  21.292  0.00  0.00    +0.000 A 
ATOM     24  F   UNL     1      -2.062  12.204  20.950  0.00  0.00    +0.000 F 
ATOM     25  C   UNL     1      -0.416  10.651  20.291  0.00  0.00    +0.000 A 
BRANCH  22  26
ATOM     26  O   UNL     1      -1.856  11.397  23.577  0.00  0.00    +0.000 OA
ATOM     27  H   UNL     1      -1.694  10.909  24.405  0.00  0.00    +0.000 HD
ENDBRANCH  22  26
ENDBRANCH   7  18
TORSDOF 4
ENDMDL
MODEL 6
REMARK VINA RESULT:      -7.6      2.735      8.322
REMARK  Name = 
REMARK  5 active torsions:
REMARK  status: ('A' for Active; 'I' for Inactive)
REMARK    1  A    between atoms: C_1  and  C_2
REMARK    2  A    between atoms: C_5  and  C_6
REMARK    3  A    between atoms: C_10  and  O_11
REMARK    4  A    between atoms: C_16  and  C_17
REMARK    5  A    between atoms: C_21  and  O_22
REMARK                            x       y       z     vdW  Elec       q    Type
REMARK                         _______ _______ _______ _____ _____    ______ ____
ROOT
ATOM      1  C   UNL     1       1.362  11.061  17.923  0.00  0.00    +0.000 C 
ATOM      2  C   UNL     1       1.751   9.666  18.319  0.00  0.00    +0.000 A 
ATOM      3  N   UNL     1       2.498   9.039  17.370  0.00  0.00    +0.000 NA
ATOM      4  C   UNL     1       2.961   7.798  17.629  0.00  0.00    +0.000 A 
ATOM      5  C   UNL     1       2.747   7.101  18.810  0.00  0.00    +0.000 A 
ATOM      6  C   UNL     1       1.940   7.765  19.752  0.00  0.00    +0.000 A 
ATOM      7  C   UNL     1       1.404   9.062  19.543  0.00  0.00    +0.000 A 
ENDROOT
BRANCH   5   8
ATOM      8  C   UNL     1       3.332   5.762  19.054  0.00  0.00    +0.000 A 
ATOM      9  C   UNL     1       4.625   5.431  18.595  0.00  0.00    +0.000 A 
ATOM     10  C   UNL     1       5.167   4.163  18.821  0.00  0.00    +0.000 A 
ATOM     11  F   UNL     1       6.393   3.878  18.359  0.00  0.00    +0.000 F 
ATOM     12  C   UNL     1       4.459   3.198  19.514  0.00  0.00    +0.000 A 
ATOM     13  C   UNL     1       3.191   3.506  19.983  0.00  0.00    +0.000 A 
ATOM     14  F   UNL     1       2.482   2.598  20.667  0.00  0.00    +0.000 F 
ATOM     15  C   UNL     1       2.628   4.764  19.754  0.00  0.00    +0.000 A 
BRANCH  12  16
ATOM     16  O   UNL     1       4.996   1.963  19.739  0.00  0.00    +0.000 OA
ATOM     17  H   UNL     1       5.962   2.039  19.621  0.00  0.00    +0.000 HD
ENDBRANCH  12  16
ENDBRANCH   5   8
BRANCH   7  18
ATOM     18  C   UNL     1       0.554   9.685  20.602  0.00  0.00    +0.000 A 
ATOM     19  C   UNL     1       0.646   9.279  21.951  0.00  0.00    +0.000 A 
ATOM     20  C   UNL     1      -0.168   9.843  22.937  0.00  0.00    +0.000 A 
ATOM     21  F   UNL     1      -0.076   9.402  24.200  0.00  0.00    +0.000 F 
ATOM     22  C   UNL     1      -1.070  10.849  22.633  0.00  0.00    +0.000 A 
ATOM     23  C   UNL     1      -1.177  11.268  21.320  0.00  0.00    +0.000 A 
ATOM     24  F   UNL     1      -2.031  12.246  20.983  0.00  0.00    +0.000 F 
ATOM     25  C   UNL     1      -0.405  10.675  20.317  0.00  0.00    +0.000 A 
BRANCH  22  26
ATOM     26  O   UNL     1      -1.850  11.409  23.603  0.00  0.00    +0.000 OA
ATOM     27  H   UNL     1      -1.407  11.266  24.459  0.00  0.00    +0.000 HD
ENDBRANCH  22  26
ENDBRANCH   7  18
TORSDOF 4
ENDMDL
MODEL 7
REMARK VINA RESULT:      -7.6      2.268      8.072
REMARK  Name = 
REMARK  5 active torsions:
REMARK  status: ('A' for Active; 'I' for Inactive)
REMARK    1  A    between atoms: C_1  and  C_2
REMARK    2  A    between atoms: C_5  and  C_6
REMARK    3  A    between atoms: C_10  and  O_11
REMARK    4  A    between atoms: C_16  and  C_17
REMARK    5  A    between atoms: C_21  and  O_22
REMARK                            x       y       z     vdW  Elec       q    Type
REMARK                         _______ _______ _______ _____ _____    ______ ____
ROOT
ATOM      1  C   UNL     1      -0.105   8.995  21.900  0.00  0.00    +0.000 C 
ATOM      2  C   UNL     1       0.816   8.428  20.858  0.00  0.00    +0.000 A 
ATOM      3  N   UNL     1       1.318   7.213  21.205  0.00  0.00    +0.000 NA
ATOM      4  C   UNL     1       2.114   6.568  20.327  0.00  0.00    +0.000 A 
ATOM      5  C   UNL     1       2.459   7.045  19.070  0.00  0.00    +0.000 A 
ATOM      6  C   UNL     1       1.952   8.321  18.760  0.00  0.00    +0.000 A 
ATOM      7  C   UNL     1       1.123   9.065  19.640  0.00  0.00    +0.000 A 
ENDROOT
BRANCH   5   8
ATOM      8  C   UNL     1       3.292   6.261  18.130  0.00  0.00    +0.000 A 
ATOM      9  C   UNL     1       3.242   4.851  18.103  0.00  0.00    +0.000 A 
ATOM     10  C   UNL     1       4.038   4.118  17.220  0.00  0.00    +0.000 A 
ATOM     11  F   UNL     1       3.975   2.778  17.232  0.00  0.00    +0.000 F 
ATOM     12  C   UNL     1       4.890   4.752  16.333  0.00  0.00    +0.000 A 
ATOM     13  C   UNL     1       4.948   6.138  16.335  0.00  0.00    +0.000 A 
ATOM     14  F   UNL     1       5.754   6.784  15.483  0.00  0.00    +0.000 F 
ATOM     15  C   UNL     1       4.168   6.885  17.221  0.00  0.00    +0.000 A 
BRANCH  12  16
ATOM     16  O   UNL     1       5.660   4.032  15.466  0.00  0.00    +0.000 OA
ATOM     17  H   UNL     1       5.267   3.141  15.397  0.00  0.00    +0.000 HD
ENDBRANCH  12  16
ENDBRANCH   5   8
BRANCH   7  18
ATOM     18  C   UNL     1       0.636  10.414  19.224  0.00  0.00    +0.000 A 
ATOM     19  C   UNL     1      -0.685  10.609  18.766  0.00  0.00    +0.000 A 
ATOM     20  C   UNL     1      -1.133  11.867  18.351  0.00  0.00    +0.000 A 
ATOM     21  F   UNL     1      -2.383  12.002  17.887  0.00  0.00    +0.000 F 
ATOM     22  C   UNL     1      -0.307  12.977  18.410  0.00  0.00    +0.000 A 
ATOM     23  C   UNL     1       0.991  12.814  18.860  0.00  0.00    +0.000 A 
ATOM     24  F   UNL     1       1.821  13.864  18.942  0.00  0.00    +0.000 F 
ATOM     25  C   UNL     1       1.465  11.552  19.227  0.00  0.00    +0.000 A 
BRANCH  22  26
ATOM     26  O   UNL     1      -0.754  14.207  18.022  0.00  0.00    +0.000 OA
ATOM     27  H   UNL     1      -1.639  14.089  17.633  0.00  0.00    +0.000 HD
ENDBRANCH  22  26
ENDBRANCH   7  18
TORSDOF 4
ENDMDL
MODEL 8
REMARK VINA RESULT:      -7.6      2.282      7.939
REMARK  Name = 
REMARK  5 active torsions:
REMARK  status: ('A' for Active; 'I' for Inactive)
REMARK    1  A    between atoms: C_1  and  C_2
REMARK    2  A    between atoms: C_5  and  C_6
REMARK    3  A    between atoms: C_10  and  O_11
REMARK    4  A    between atoms: C_16  and  C_17
REMARK    5  A    between atoms: C_21  and  O_22
REMARK                            x       y       z     vdW  Elec       q    Type
REMARK                         _______ _______ _______ _____ _____    ______ ____
ROOT
ATOM      1  C   UNL     1      -0.130   9.056  21.922  0.00  0.00    +0.000 C 
ATOM      2  C   UNL     1       0.785   8.475  20.882  0.00  0.00    +0.000 A 
ATOM      3  N   UNL     1       1.293   7.267  21.244  0.00  0.00    +0.000 NA
ATOM      4  C   UNL     1       2.084   6.611  20.370  0.00  0.00    +0.000 A 
ATOM      5  C   UNL     1       2.420   7.069  19.104  0.00  0.00    +0.000 A 
ATOM      6  C   UNL     1       1.907   8.339  18.778  0.00  0.00    +0.000 A 
ATOM      7  C   UNL     1       1.082   9.094  19.652  0.00  0.00    +0.000 A 
ENDROOT
BRANCH   5   8
ATOM      8  C   UNL     1       3.249   6.273  18.170  0.00  0.00    +0.000 A 
ATOM      9  C   UNL     1       3.138   4.868  18.104  0.00  0.00    +0.000 A 
ATOM     10  C   UNL     1       3.930   4.123  17.227  0.00  0.00    +0.000 A 
ATOM     11  F   UNL     1       3.809   2.787  17.201  0.00  0.00    +0.000 F 
ATOM     12  C   UNL     1       4.838   4.740  16.385  0.00  0.00    +0.000 A 
ATOM     13  C   UNL     1       4.956   6.122  16.426  0.00  0.00    +0.000 A 
ATOM     14  F   UNL     1       5.817   6.753  15.618  0.00  0.00    +0.000 F 
ATOM     15  C   UNL     1       4.181   6.881  17.307  0.00  0.00    +0.000 A 
BRANCH  12  16
ATOM     16  O   UNL     1       5.604   4.009  15.524  0.00  0.00    +0.000 OA
ATOM     17  H   UNL     1       5.007   3.632  14.850  0.00  0.00    +0.000 HD
ENDBRANCH  12  16
ENDBRANCH   5   8
BRANCH   7  18
ATOM     18  C   UNL     1       0.589  10.435  19.218  0.00  0.00    +0.000 A 
ATOM     19  C   UNL     1       1.407  11.582  19.306  0.00  0.00    +0.000 A 
ATOM     20  C   UNL     1       0.937  12.842  18.925  0.00  0.00    +0.000 A 
ATOM     21  F   UNL     1       1.733  13.913  19.060  0.00  0.00    +0.000 F 
ATOM     22  C   UNL     1      -0.339  13.006  18.412  0.00  0.00    +0.000 A 
ATOM     23  C   UNL     1      -1.160  11.897  18.311  0.00  0.00    +0.000 A 
ATOM     24  F   UNL     1      -2.399  12.009  17.811  0.00  0.00    +0.000 F 
ATOM     25  C   UNL     1      -0.719  10.641  18.737  0.00  0.00    +0.000 A 
BRANCH  22  26
ATOM     26  O   UNL     1      -0.788  14.235  18.024  0.00  0.00    +0.000 OA
ATOM     27  H   UNL     1      -0.008  14.794  17.854  0.00  0.00    +0.000 HD
ENDBRANCH  22  26
ENDBRANCH   7  18
TORSDOF 4
ENDMDL
MODEL 9
REMARK VINA RESULT:      -7.6      2.278      7.802
REMARK  Name = 
REMARK  5 active torsions:
REMARK  status: ('A' for Active; 'I' for Inactive)
REMARK    1  A    between atoms: C_1  and  C_2
REMARK    2  A    between atoms: C_5  and  C_6
REMARK    3  A    between atoms: C_10  and  O_11
REMARK    4  A    between atoms: C_16  and  C_17
REMARK    5  A    between atoms: C_21  and  O_22
REMARK                            x       y       z     vdW  Elec       q    Type
REMARK                         _______ _______ _______ _____ _____    ______ ____
ROOT
ATOM      1  C   UNL     1      -0.099   9.041  21.899  0.00  0.00    +0.000 C 
ATOM      2  C   UNL     1       0.819   8.462  20.861  0.00  0.00    +0.000 A 
ATOM      3  N   UNL     1       1.327   7.254  21.224  0.00  0.00    +0.000 NA
ATOM      4  C   UNL     1       2.121   6.599  20.351  0.00  0.00    +0.000 A 
ATOM      5  C   UNL     1       2.458   7.058  19.086  0.00  0.00    +0.000 A 
ATOM      6  C   UNL     1       1.945   8.327  18.759  0.00  0.00    +0.000 A 
ATOM      7  C   UNL     1       1.117   9.081  19.631  0.00  0.00    +0.000 A 
ENDROOT
BRANCH   5   8
ATOM      8  C   UNL     1       3.290   6.263  18.153  0.00  0.00    +0.000 A 
ATOM      9  C   UNL     1       4.140   6.885  17.214  0.00  0.00    +0.000 A 
ATOM     10  C   UNL     1       4.914   6.129  16.331  0.00  0.00    +0.000 A 
ATOM     11  F   UNL     1       5.700   6.754  15.441  0.00  0.00    +0.000 F 
ATOM     12  C   UNL     1       4.883   4.747  16.359  0.00  0.00    +0.000 A 
ATOM     13  C   UNL     1       4.063   4.114  17.281  0.00  0.00    +0.000 A 
ATOM     14  F   UNL     1       4.016   2.777  17.342  0.00  0.00    +0.000 F 
ATOM     15  C   UNL     1       3.272   4.855  18.162  0.00  0.00    +0.000 A 
BRANCH  12  16
ATOM     16  O   UNL     1       5.648   4.012  15.499  0.00  0.00    +0.000 OA
ATOM     17  H   UNL     1       5.963   4.616  14.799  0.00  0.00    +0.000 HD
ENDBRANCH  12  16
ENDBRANCH   5   8
BRANCH   7  18
ATOM     18  C   UNL     1       0.623  10.422  19.198  0.00  0.00    +0.000 A 
ATOM     19  C   UNL     1       1.447  11.566  19.264  0.00  0.00    +0.000 A 
ATOM     20  C   UNL     1       0.976  12.825  18.883  0.00  0.00    +0.000 A 
ATOM     21  F   UNL     1       1.779  13.893  18.998  0.00  0.00    +0.000 F 
ATOM     22  C   UNL     1      -0.307  12.991  18.389  0.00  0.00    +0.000 A 
ATOM     23  C   UNL     1      -1.134  11.885  18.309  0.00  0.00    +0.000 A 
ATOM     24  F   UNL     1      -2.381  12.000  17.828  0.00  0.00    +0.000 F 
ATOM     25  C   UNL     1      -0.691  10.631  18.736  0.00  0.00    +0.000 A 
BRANCH  22  26
ATOM     26  O   UNL     1      -0.757  14.220  18.001  0.00  0.00    +0.000 OA
ATOM     27  H   UNL     1      -1.731  14.194  18.011  0.00  0.00    +0.000 HD
ENDBRANCH  22  26
ENDBRANCH   7  18
TORSDOF 4
ENDMDL
