MODEL 1
REMARK VINA RESULT:      -8.8      0.000      0.000
REMARK  Name = 
REMARK  9 active torsions:
REMARK  status: ('A' for Active; 'I' for Inactive)
REMARK    1  A    between atoms: C_1  and  C_2
REMARK    2  A    between atoms: C_2  and  N_3
REMARK    3  A    between atoms: C_4  and  C_5
REMARK    4  A    between atoms: C_5  and  O_6
REMARK    5  A    between atoms: C_5  and  C_7
REMARK    6  A    between atoms: C_5  and  C_13
REMARK    7  A    between atoms: C_23  and  C_24
REMARK    8  A    between atoms: N_26  and  C_27
REMARK    9  A    between atoms: C_31  and  O_32
REMARK                            x       y       z     vdW  Elec       q    Type
REMARK                         _______ _______ _______ _____ _____    ______ ____
ROOT
ATOM      1  N   UNL     1       2.667   6.686  19.689  0.00  0.00    +0.000 N 
ATOM      2  C   UNL     1       3.247   6.774  18.428  0.00  0.00    +0.000 A 
ATOM      3  N   UNL     1       2.871   7.911  17.852  0.00  0.00    +0.000 NA
ATOM      4  C   UNL     1       2.013   8.527  18.702  0.00  0.00    +0.000 A 
ATOM      5  C   UNL     1       1.283   9.702  18.495  0.00  0.00    +0.000 A 
ATOM      6  C   UNL     1       0.456  10.167  19.522  0.00  0.00    +0.000 A 
ATOM      7  C   UNL     1       0.395   9.495  20.750  0.00  0.00    +0.000 A 
ATOM      8  C   UNL     1       1.086   8.282  20.945  0.00  0.00    +0.000 A 
ATOM      9  C   UNL     1       1.890   7.819  19.886  0.00  0.00    +0.000 A 
ENDROOT
BRANCH   7  10
ATOM     10  C   UNL     1      -0.401  10.063  21.884  0.00  0.00    +0.000 C 
ATOM     11  O   UNL     1      -0.711   9.362  22.840  0.00  0.00    +0.000 OA
ATOM     12  N   UNL     1      -0.686  11.415  21.790  0.00  0.00    +0.000 N 
ATOM     13  H   UNL     1      -0.122  11.943  21.137  0.00  0.00    +0.000 HD
BRANCH  12  14
ATOM     14  C   UNL     1      -1.259  12.166  22.904  0.00  0.00    +0.000 C 
ATOM     15  C   UNL     1      -2.797  12.150  22.905  0.00  0.00    +0.000 C 
ATOM     16  C   UNL     1      -3.260  13.482  22.305  0.00  0.00    +0.000 C 
ATOM     17  C   UNL     1      -1.999  14.238  21.907  0.00  0.00    +0.000 C 
ATOM     18  C   UNL     1      -0.914  13.666  22.811  0.00  0.00    +0.000 C 
BRANCH  18  19
ATOM     19  O   UNL     1      -0.947  14.294  24.090  0.00  0.00    +0.000 OA
ATOM     20  H   UNL     1      -0.342  13.821  24.687  0.00  0.00    +0.000 HD
ENDBRANCH  18  19
ENDBRANCH  12  14
ENDBRANCH   7  10
BRANCH   1  22
ATOM     21  C   UNL     1       1.432   4.812  20.716  0.00  0.00    +0.000 C 
ATOM     22  C   UNL     1       2.731   5.600  20.650  0.00  0.00    +0.000 C 
ENDBRANCH   1  22
BRANCH   2  23
ATOM     23  C   UNL     1       4.091   5.715  17.667  0.00  0.00    +0.000 C 
BRANCH  23  24
ATOM     24  C   UNL     1       5.585   5.996  17.998  0.00  0.00    +0.000 A 
ATOM     25  C   UNL     1       6.150   5.385  19.143  0.00  0.00    +0.000 A 
ATOM     26  C   UNL     1       7.452   5.659  19.560  0.00  0.00    +0.000 A 
ATOM     27  C   UNL     1       8.232   6.552  18.837  0.00  0.00    +0.000 A 
ATOM     28  C   UNL     1       7.720   7.141  17.684  0.00  0.00    +0.000 A 
ATOM     29  C   UNL     1       6.418   6.854  17.255  0.00  0.00    +0.000 A 
ENDBRANCH  23  24
BRANCH  23  30
ATOM     30  C   UNL     1       3.643   4.269  18.006  0.00  0.00    +0.000 A 
ATOM     31  C   UNL     1       2.435   3.749  17.492  0.00  0.00    +0.000 A 
ATOM     32  C   UNL     1       1.989   2.466  17.823  0.00  0.00    +0.000 A 
ATOM     33  C   UNL     1       2.757   1.656  18.651  0.00  0.00    +0.000 A 
ATOM     34  C   UNL     1       3.980   2.119  19.125  0.00  0.00    +0.000 A 
ATOM     35  C   UNL     1       4.427   3.404  18.795  0.00  0.00    +0.000 A 
ENDBRANCH  23  30
BRANCH  23  36
ATOM     36  O   UNL     1       3.783   5.830  16.275  0.00  0.00    +0.000 OA
ATOM     37  H   UNL     1       4.539   6.229  15.833  0.00  0.00    +0.000 HD
ENDBRANCH  23  36
ENDBRANCH   2  23
TORSDOF 8
ENDMDL
MODEL 2
REMARK VINA RESULT:      -8.7      2.538      9.179
REMARK  Name = 
REMARK  9 active torsions:
REMARK  status: ('A' for Active; 'I' for Inactive)
REMARK    1  A    between atoms: C_1  and  C_2
REMARK    2  A    between atoms: C_2  and  N_3
REMARK    3  A    between atoms: C_4  and  C_5
REMARK    4  A    between atoms: C_5  and  O_6
REMARK    5  A    between atoms: C_5  and  C_7
REMARK    6  A    between atoms: C_5  and  C_13
REMARK    7  A    between atoms: C_23  and  C_24
REMARK    8  A    between atoms: N_26  and  C_27
REMARK    9  A    between atoms: C_31  and  O_32
REMARK                            x       y       z     vdW  Elec       q    Type
REMARK                         _______ _______ _______ _____ _____    ______ ____
ROOT
ATOM      1  N   UNL     1       0.629  10.274  21.007  0.00  0.00    +0.000 N 
ATOM      2  C   UNL     1       0.180  11.409  20.340  0.00  0.00    +0.000 A 
ATOM      3  N   UNL     1       0.462  11.298  19.047  0.00  0.00    +0.000 NA
ATOM      4  C   UNL     1       1.138  10.134  18.883  0.00  0.00    +0.000 A 
ATOM      5  C   UNL     1       1.726   9.629  17.719  0.00  0.00    +0.000 A 
ATOM      6  C   UNL     1       2.371   8.391  17.774  0.00  0.00    +0.000 A 
ATOM      7  C   UNL     1       2.389   7.648  18.962  0.00  0.00    +0.000 A 
ATOM      8  C   UNL     1       1.846   8.174  20.151  0.00  0.00    +0.000 A 
ATOM      9  C   UNL     1       1.226   9.436  20.076  0.00  0.00    +0.000 A 
ENDROOT
BRANCH   7  10
ATOM     10  C   UNL     1       2.979   6.272  18.984  0.00  0.00    +0.000 C 
ATOM     11  O   UNL     1       4.030   6.035  18.402  0.00  0.00    +0.000 OA
ATOM     12  N   UNL     1       2.291   5.344  19.750  0.00  0.00    +0.000 N 
ATOM     13  H   UNL     1       1.638   5.722  20.423  0.00  0.00    +0.000 HD
BRANCH  12  14
ATOM     14  C   UNL     1       2.844   4.027  20.053  0.00  0.00    +0.000 C 
ATOM     15  C   UNL     1       2.603   3.006  18.928  0.00  0.00    +0.000 C 
ATOM     16  C   UNL     1       1.406   2.147  19.350  0.00  0.00    +0.000 C 
ATOM     17  C   UNL     1       0.923   2.705  20.683  0.00  0.00    +0.000 C 
ATOM     18  C   UNL     1       2.149   3.389  21.273  0.00  0.00    +0.000 C 
BRANCH  18  19
ATOM     19  O   UNL     1       2.990   2.438  21.920  0.00  0.00    +0.000 OA
ATOM     20  H   UNL     1       3.449   2.874  22.658  0.00  0.00    +0.000 HD
ENDBRANCH  18  19
ENDBRANCH  12  14
ENDBRANCH   7  10
BRANCH   1  22
ATOM     21  C   UNL     1      -0.677   9.285  22.852  0.00  0.00    +0.000 C 
ATOM     22  C   UNL     1       0.606   9.980  22.428  0.00  0.00    +0.000 C 
ENDBRANCH   1  22
BRANCH   2  23
ATOM     23  C   UNL     1      -0.433  12.709  20.932  0.00  0.00    +0.000 C 
BRANCH  23  24
ATOM     24  C   UNL     1       0.159  13.902  20.128  0.00  0.00    +0.000 A 
ATOM     25  C   UNL     1       1.539  14.186  20.259  0.00  0.00    +0.000 A 
ATOM     26  C   UNL     1       2.127  15.292  19.646  0.00  0.00    +0.000 A 
ATOM     27  C   UNL     1       1.348  16.147  18.878  0.00  0.00    +0.000 A 
ATOM     28  C   UNL     1      -0.006  15.874  18.697  0.00  0.00    +0.000 A 
ATOM     29  C   UNL     1      -0.593  14.754  19.299  0.00  0.00    +0.000 A 
ENDBRANCH  23  24
BRANCH  23  30
ATOM     30  C   UNL     1      -1.983  12.669  20.929  0.00  0.00    +0.000 A 
ATOM     31  C   UNL     1      -2.694  12.332  19.757  0.00  0.00    +0.000 A 
ATOM     32  C   UNL     1      -4.091  12.336  19.719  0.00  0.00    +0.000 A 
ATOM     33  C   UNL     1      -4.816  12.646  20.863  0.00  0.00    +0.000 A 
ATOM     34  C   UNL     1      -4.145  12.924  22.050  0.00  0.00    +0.000 A 
ATOM     35  C   UNL     1      -2.744  12.921  22.087  0.00  0.00    +0.000 A 
ENDBRANCH  23  30
BRANCH  23  36
ATOM     36  O   UNL     1      -0.114  12.745  22.326  0.00  0.00    +0.000 OA
ATOM     37  H   UNL     1       0.547  12.066  22.500  0.00  0.00    +0.000 HD
ENDBRANCH  23  36
ENDBRANCH   2  23
TORSDOF 8
ENDMDL
MODEL 3
REMARK VINA RESULT:      -8.6      2.463      9.451
REMARK  Name = 
REMARK  9 active torsions:
REMARK  status: ('A' for Active; 'I' for Inactive)
REMARK    1  A    between atoms: C_1  and  C_2
REMARK    2  A    between atoms: C_2  and  N_3
REMARK    3  A    between atoms: C_4  and  C_5
REMARK    4  A    between atoms: C_5  and  O_6
REMARK    5  A    between atoms: C_5  and  C_7
REMARK    6  A    between atoms: C_5  and  C_13
REMARK    7  A    between atoms: C_23  and  C_24
REMARK    8  A    between atoms: N_26  and  C_27
REMARK    9  A    between atoms: C_31  and  O_32
REMARK                            x       y       z     vdW  Elec       q    Type
REMARK                         _______ _______ _______ _____ _____    ______ ____
ROOT
ATOM      1  N   UNL     1       0.635  10.130  21.077  0.00  0.00    +0.000 N 
ATOM      2  C   UNL     1       0.204  11.245  20.366  0.00  0.00    +0.000 A 
ATOM      3  N   UNL     1       0.473  11.074  19.077  0.00  0.00    +0.000 NA
ATOM      4  C   UNL     1       1.121   9.889  18.956  0.00  0.00    +0.000 A 
ATOM      5  C   UNL     1       1.688   9.324  17.809  0.00  0.00    +0.000 A 
ATOM      6  C   UNL     1       2.306   8.074  17.912  0.00  0.00    +0.000 A 
ATOM      7  C   UNL     1       2.318   7.381  19.129  0.00  0.00    +0.000 A 
ATOM      8  C   UNL     1       1.797   7.969  20.300  0.00  0.00    +0.000 A 
ATOM      9  C   UNL     1       1.205   9.240  20.177  0.00  0.00    +0.000 A 
ENDROOT
BRANCH   7  10
ATOM     10  C   UNL     1       2.878   5.994  19.204  0.00  0.00    +0.000 C 
ATOM     11  O   UNL     1       2.181   5.061  19.585  0.00  0.00    +0.000 OA
ATOM     12  N   UNL     1       4.182   5.856  18.757  0.00  0.00    +0.000 N 
ATOM     13  H   UNL     1       4.536   6.610  18.184  0.00  0.00    +0.000 HD
BRANCH  12  14
ATOM     14  C   UNL     1       4.799   4.547  18.560  0.00  0.00    +0.000 C 
ATOM     15  C   UNL     1       6.295   4.639  18.218  0.00  0.00    +0.000 C 
ATOM     16  C   UNL     1       6.420   4.471  16.700  0.00  0.00    +0.000 C 
ATOM     17  C   UNL     1       5.000   4.339  16.162  0.00  0.00    +0.000 C 
ATOM     18  C   UNL     1       4.195   3.815  17.345  0.00  0.00    +0.000 C 
BRANCH  18  19
ATOM     19  O   UNL     1       4.336   2.402  17.458  0.00  0.00    +0.000 OA
ATOM     20  H   UNL     1       3.545   1.976  17.085  0.00  0.00    +0.000 HD
ENDBRANCH  18  19
ENDBRANCH  12  14
ENDBRANCH   7  10
BRANCH   1  22
ATOM     21  C   UNL     1      -0.703   9.311  22.982  0.00  0.00    +0.000 C 
ATOM     22  C   UNL     1       0.619   9.896  22.509  0.00  0.00    +0.000 C 
ENDBRANCH   1  22
BRANCH   2  23
ATOM     23  C   UNL     1      -0.374  12.582  20.908  0.00  0.00    +0.000 C 
BRANCH  23  24
ATOM     24  C   UNL     1       0.261  13.729  20.070  0.00  0.00    +0.000 A 
ATOM     25  C   UNL     1       1.663  13.913  20.131  0.00  0.00    +0.000 A 
ATOM     26  C   UNL     1       2.298  14.973  19.485  0.00  0.00    +0.000 A 
ATOM     27  C   UNL     1       1.545  15.883  18.754  0.00  0.00    +0.000 A 
ATOM     28  C   UNL     1       0.168  15.708  18.642  0.00  0.00    +0.000 A 
ATOM     29  C   UNL     1      -0.468  14.634  19.277  0.00  0.00    +0.000 A 
ENDBRANCH  23  24
BRANCH  23  30
ATOM     30  C   UNL     1      -1.925  12.588  20.890  0.00  0.00    +0.000 A 
ATOM     31  C   UNL     1      -2.634  12.287  19.706  0.00  0.00    +0.000 A 
ATOM     32  C   UNL     1      -4.030  12.334  19.656  0.00  0.00    +0.000 A 
ATOM     33  C   UNL     1      -4.756  12.652  20.797  0.00  0.00    +0.000 A 
ATOM     34  C   UNL     1      -4.088  12.895  21.993  0.00  0.00    +0.000 A 
ATOM     35  C   UNL     1      -2.689  12.850  22.044  0.00  0.00    +0.000 A 
ENDBRANCH  23  30
BRANCH  23  36
ATOM     36  O   UNL     1      -0.068  12.656  22.303  0.00  0.00    +0.000 OA
ATOM     37  H   UNL     1      -0.860  12.416  22.796  0.00  0.00    +0.000 HD
ENDBRANCH  23  36
ENDBRANCH   2  23
TORSDOF 8
ENDMDL
MODEL 4
REMARK VINA RESULT:      -8.6      2.518      9.222
REMARK  Name = 
REMARK  9 active torsions:
REMARK  status: ('A' for Active; 'I' for Inactive)
REMARK    1  A    between atoms: C_1  and  C_2
REMARK    2  A    between atoms: C_2  and  N_3
REMARK    3  A    between atoms: C_4  and  C_5
REMARK    4  A    between atoms: C_5  and  O_6
REMARK    5  A    between atoms: C_5  and  C_7
REMARK    6  A    between atoms: C_5  and  C_13
REMARK    7  A    between atoms: C_23  and  C_24
REMARK    8  A    between atoms: N_26  and  C_27
REMARK    9  A    between atoms: C_31  and  O_32
REMARK                            x       y       z     vdW  Elec       q    Type
REMARK                         _______ _______ _______ _____ _____    ______ ____
ROOT
ATOM      1  N   UNL     1       0.595  10.285  21.031  0.00  0.00    +0.000 N 
ATOM      2  C   UNL     1       0.168  11.440  20.384  0.00  0.00    +0.000 A 
ATOM      3  N   UNL     1       0.465  11.353  19.092  0.00  0.00    +0.000 NA
ATOM      4  C   UNL     1       1.126  10.183  18.910  0.00  0.00    +0.000 A 
ATOM      5  C   UNL     1       1.721   9.696  17.742  0.00  0.00    +0.000 A 
ATOM      6  C   UNL     1       2.349   8.448  17.778  0.00  0.00    +0.000 A 
ATOM      7  C   UNL     1       2.342   7.679  18.949  0.00  0.00    +0.000 A 
ATOM      8  C   UNL     1       1.793   8.187  20.144  0.00  0.00    +0.000 A 
ATOM      9  C   UNL     1       1.191   9.459  20.089  0.00  0.00    +0.000 A 
ENDROOT
BRANCH   7  10
ATOM     10  C   UNL     1       2.914   6.295  18.949  0.00  0.00    +0.000 C 
ATOM     11  O   UNL     1       3.896   6.026  18.267  0.00  0.00    +0.000 OA
ATOM     12  N   UNL     1       2.298   5.399  19.807  0.00  0.00    +0.000 N 
ATOM     13  H   UNL     1       1.723   5.805  20.534  0.00  0.00    +0.000 HD
BRANCH  12  14
ATOM     14  C   UNL     1       2.862   4.082  20.088  0.00  0.00    +0.000 C 
ATOM     15  C   UNL     1       2.640   3.081  18.942  0.00  0.00    +0.000 C 
ATOM     16  C   UNL     1       1.449   2.202  19.338  0.00  0.00    +0.000 C 
ATOM     17  C   UNL     1       0.950   2.729  20.678  0.00  0.00    +0.000 C 
ATOM     18  C   UNL     1       2.166   3.413  21.291  0.00  0.00    +0.000 C 
BRANCH  18  19
ATOM     19  O   UNL     1       3.011   2.457  21.924  0.00  0.00    +0.000 OA
ATOM     20  H   UNL     1       3.004   2.618  22.883  0.00  0.00    +0.000 HD
ENDBRANCH  18  19
ENDBRANCH  12  14
ENDBRANCH   7  10
BRANCH   1  22
ATOM     21  C   UNL     1      -0.694   9.175  22.818  0.00  0.00    +0.000 C 
ATOM     22  C   UNL     1       0.552   9.961  22.445  0.00  0.00    +0.000 C 
ENDBRANCH   1  22
BRANCH   2  23
ATOM     23  C   UNL     1      -0.433  12.735  20.996  0.00  0.00    +0.000 C 
BRANCH  23  24
ATOM     24  C   UNL     1       0.219  13.938  20.256  0.00  0.00    +0.000 A 
ATOM     25  C   UNL     1      -0.614  14.800  19.503  0.00  0.00    +0.000 A 
ATOM     26  C   UNL     1      -0.097  15.843  18.736  0.00  0.00    +0.000 A 
ATOM     27  C   UNL     1       1.274  16.058  18.703  0.00  0.00    +0.000 A 
ATOM     28  C   UNL     1       2.119  15.252  19.463  0.00  0.00    +0.000 A 
ATOM     29  C   UNL     1       1.598  14.214  20.246  0.00  0.00    +0.000 A 
ENDBRANCH  23  24
BRANCH  23  30
ATOM     30  C   UNL     1      -1.983  12.736  20.934  0.00  0.00    +0.000 A 
ATOM     31  C   UNL     1      -2.750  13.146  22.048  0.00  0.00    +0.000 A 
ATOM     32  C   UNL     1      -4.146  13.110  22.030  0.00  0.00    +0.000 A 
ATOM     33  C   UNL     1      -4.816  12.693  20.886  0.00  0.00    +0.000 A 
ATOM     34  C   UNL     1      -4.090  12.340  19.753  0.00  0.00    +0.000 A 
ATOM     35  C   UNL     1      -2.690  12.374  19.771  0.00  0.00    +0.000 A 
ENDBRANCH  23  30
BRANCH  23  36
ATOM     36  O   UNL     1      -0.167  12.717  22.401  0.00  0.00    +0.000 OA
ATOM     37  H   UNL     1      -0.931  12.332  22.845  0.00  0.00    +0.000 HD
ENDBRANCH  23  36
ENDBRANCH   2  23
TORSDOF 8
ENDMDL
MODEL 5
REMARK VINA RESULT:      -8.5      2.646      9.432
REMARK  Name = 
REMARK  9 active torsions:
REMARK  status: ('A' for Active; 'I' for Inactive)
REMARK    1  A    between atoms: C_1  and  C_2
REMARK    2  A    between atoms: C_2  and  N_3
REMARK    3  A    between atoms: C_4  and  C_5
REMARK    4  A    between atoms: C_5  and  O_6
REMARK    5  A    between atoms: C_5  and  C_7
REMARK    6  A    between atoms: C_5  and  C_13
REMARK    7  A    between atoms: C_23  and  C_24
REMARK    8  A    between atoms: N_26  and  C_27
REMARK    9  A    between atoms: C_31  and  O_32
REMARK                            x       y       z     vdW  Elec       q    Type
REMARK                         _______ _______ _______ _____ _____    ______ ____
ROOT
ATOM      1  N   UNL     1      -0.021   9.712  20.706  0.00  0.00    +0.000 N 
ATOM      2  C   UNL     1      -0.341  10.855  19.981  0.00  0.00    +0.000 A 
ATOM      3  N   UNL     1       0.326  10.845  18.832  0.00  0.00    +0.000 NA
ATOM      4  C   UNL     1       1.112   9.740  18.834  0.00  0.00    +0.000 A 
ATOM      5  C   UNL     1       2.062   9.350  17.884  0.00  0.00    +0.000 A 
ATOM      6  C   UNL     1       2.759   8.155  18.083  0.00  0.00    +0.000 A 
ATOM      7  C   UNL     1       2.479   7.341  19.188  0.00  0.00    +0.000 A 
ATOM      8  C   UNL     1       1.563   7.754  20.176  0.00  0.00    +0.000 A 
ATOM      9  C   UNL     1       0.894   8.975  19.967  0.00  0.00    +0.000 A 
ENDROOT
BRANCH   7  10
ATOM     10  C   UNL     1       3.145   6.007  19.333  0.00  0.00    +0.000 C 
ATOM     11  O   UNL     1       2.646   5.134  20.033  0.00  0.00    +0.000 OA
ATOM     12  N   UNL     1       4.294   5.834  18.579  0.00  0.00    +0.000 N 
ATOM     13  H   UNL     1       4.428   6.485  17.818  0.00  0.00    +0.000 HD
BRANCH  12  14
ATOM     14  C   UNL     1       4.939   4.530  18.437  0.00  0.00    +0.000 C 
ATOM     15  C   UNL     1       6.422   4.638  18.048  0.00  0.00    +0.000 C 
ATOM     16  C   UNL     1       6.510   4.388  16.539  0.00  0.00    +0.000 C 
ATOM     17  C   UNL     1       5.080   4.193  16.050  0.00  0.00    +0.000 C 
ATOM     18  C   UNL     1       4.320   3.718  17.282  0.00  0.00    +0.000 C 
BRANCH  18  19
ATOM     19  O   UNL     1       4.500   2.317  17.469  0.00  0.00    +0.000 OA
ATOM     20  H   UNL     1       4.110   2.062  18.324  0.00  0.00    +0.000 HD
ENDBRANCH  18  19
ENDBRANCH  12  14
ENDBRANCH   7  10
BRANCH   1  22
ATOM     21  C   UNL     1       0.654   9.513  23.071  0.00  0.00    +0.000 C 
ATOM     22  C   UNL     1      -0.447   9.327  22.039  0.00  0.00    +0.000 C 
ENDBRANCH   1  22
BRANCH   2  23
ATOM     23  C   UNL     1      -1.206  12.072  20.410  0.00  0.00    +0.000 C 
BRANCH  23  24
ATOM     24  C   UNL     1      -0.369  13.352  20.127  0.00  0.00    +0.000 A 
ATOM     25  C   UNL     1       0.730  13.641  20.970  0.00  0.00    +0.000 A 
ATOM     26  C   UNL     1       1.472  14.815  20.841  0.00  0.00    +0.000 A 
ATOM     27  C   UNL     1       1.136  15.736  19.857  0.00  0.00    +0.000 A 
ATOM     28  C   UNL     1       0.084  15.464  18.986  0.00  0.00    +0.000 A 
ATOM     29  C   UNL     1      -0.651  14.278  19.105  0.00  0.00    +0.000 A 
ENDBRANCH  23  24
BRANCH  23  30
ATOM     30  C   UNL     1      -2.591  12.070  19.712  0.00  0.00    +0.000 A 
ATOM     31  C   UNL     1      -2.767  11.438  18.461  0.00  0.00    +0.000 A 
ATOM     32  C   UNL     1      -3.994  11.465  17.791  0.00  0.00    +0.000 A 
ATOM     33  C   UNL     1      -5.087  12.098  18.371  0.00  0.00    +0.000 A 
ATOM     34  C   UNL     1      -4.960  12.678  19.629  0.00  0.00    +0.000 A 
ATOM     35  C   UNL     1      -3.731  12.653  20.299  0.00  0.00    +0.000 A 
ENDBRANCH  23  30
BRANCH  23  36
ATOM     36  O   UNL     1      -1.542  11.902  21.790  0.00  0.00    +0.000 OA
ATOM     37  H   UNL     1      -0.854  11.367  22.202  0.00  0.00    +0.000 HD
ENDBRANCH  23  36
ENDBRANCH   2  23
TORSDOF 8
ENDMDL
MODEL 6
REMARK VINA RESULT:      -8.5      2.672      9.173
REMARK  Name = 
REMARK  9 active torsions:
REMARK  status: ('A' for Active; 'I' for Inactive)
REMARK    1  A    between atoms: C_1  and  C_2
REMARK    2  A    between atoms: C_2  and  N_3
REMARK    3  A    between atoms: C_4  and  C_5
REMARK    4  A    between atoms: C_5  and  O_6
REMARK    5  A    between atoms: C_5  and  C_7
REMARK    6  A    between atoms: C_5  and  C_13
REMARK    7  A    between atoms: C_23  and  C_24
REMARK    8  A    between atoms: N_26  and  C_27
REMARK    9  A    between atoms: C_31  and  O_32
REMARK                            x       y       z     vdW  Elec       q    Type
REMARK                         _______ _______ _______ _____ _____    ______ ____
ROOT
ATOM      1  N   UNL     1       0.013   9.931  20.646  0.00  0.00    +0.000 N 
ATOM      2  C   UNL     1      -0.272  11.129  19.999  0.00  0.00    +0.000 A 
ATOM      3  N   UNL     1       0.391  11.174  18.849  0.00  0.00    +0.000 NA
ATOM      4  C   UNL     1       1.141  10.048  18.774  0.00  0.00    +0.000 A 
ATOM      5  C   UNL     1       2.076   9.692  17.796  0.00  0.00    +0.000 A 
ATOM      6  C   UNL     1       2.736   8.465  17.912  0.00  0.00    +0.000 A 
ATOM      7  C   UNL     1       2.433   7.588  18.962  0.00  0.00    +0.000 A 
ATOM      8  C   UNL     1       1.533   7.963  19.980  0.00  0.00    +0.000 A 
ATOM      9  C   UNL     1       0.902   9.216  19.855  0.00  0.00    +0.000 A 
ENDROOT
BRANCH   7  10
ATOM     10  C   UNL     1       3.057   6.228  19.016  0.00  0.00    +0.000 C 
ATOM     11  O   UNL     1       4.136   6.016  18.476  0.00  0.00    +0.000 OA
ATOM     12  N   UNL     1       2.364   5.287  19.759  0.00  0.00    +0.000 N 
ATOM     13  H   UNL     1       1.675   5.651  20.404  0.00  0.00    +0.000 HD
BRANCH  12  14
ATOM     14  C   UNL     1       2.938   3.985  20.091  0.00  0.00    +0.000 C 
ATOM     15  C   UNL     1       2.796   2.963  18.952  0.00  0.00    +0.000 C 
ATOM     16  C   UNL     1       1.603   2.066  19.299  0.00  0.00    +0.000 C 
ATOM     17  C   UNL     1       1.025   2.603  20.602  0.00  0.00    +0.000 C 
ATOM     18  C   UNL     1       2.192   3.322  21.266  0.00  0.00    +0.000 C 
BRANCH  18  19
ATOM     19  O   UNL     1       3.021   2.393  21.959  0.00  0.00    +0.000 OA
ATOM     20  H   UNL     1       3.775   2.160  21.390  0.00  0.00    +0.000 HD
ENDBRANCH  18  19
ENDBRANCH  12  14
ENDBRANCH   7  10
BRANCH   1  22
ATOM     21  C   UNL     1       0.702   9.506  22.977  0.00  0.00    +0.000 C 
ATOM     22  C   UNL     1      -0.421   9.472  21.952  0.00  0.00    +0.000 C 
ENDBRANCH   1  22
BRANCH   2  23
ATOM     23  C   UNL     1      -1.098  12.341  20.512  0.00  0.00    +0.000 C 
BRANCH  23  24
ATOM     24  C   UNL     1      -0.296  13.626  20.154  0.00  0.00    +0.000 A 
ATOM     25  C   UNL     1       0.749  14.032  21.016  0.00  0.00    +0.000 A 
ATOM     26  C   UNL     1       1.452  15.220  20.817  0.00  0.00    +0.000 A 
ATOM     27  C   UNL     1       1.130  16.037  19.742  0.00  0.00    +0.000 A 
ATOM     28  C   UNL     1       0.132  15.648  18.852  0.00  0.00    +0.000 A 
ATOM     29  C   UNL     1      -0.563  14.447  19.043  0.00  0.00    +0.000 A 
ENDBRANCH  23  24
BRANCH  23  30
ATOM     30  C   UNL     1      -2.542  12.335  19.948  0.00  0.00    +0.000 A 
ATOM     31  C   UNL     1      -3.578  13.031  20.609  0.00  0.00    +0.000 A 
ATOM     32  C   UNL     1      -4.896  13.000  20.145  0.00  0.00    +0.000 A 
ATOM     33  C   UNL     1      -5.208  12.298  18.987  0.00  0.00    +0.000 A 
ATOM     34  C   UNL     1      -4.198  11.652  18.280  0.00  0.00    +0.000 A 
ATOM     35  C   UNL     1      -2.878  11.681  18.747  0.00  0.00    +0.000 A 
ENDBRANCH  23  30
BRANCH  23  36
ATOM     36  O   UNL     1      -1.300  12.167  21.917  0.00  0.00    +0.000 OA
ATOM     37  H   UNL     1      -1.541  13.020  22.293  0.00  0.00    +0.000 HD
ENDBRANCH  23  36
ENDBRANCH   2  23
TORSDOF 8
ENDMDL
MODEL 7
REMARK VINA RESULT:      -8.4      2.648      9.445
REMARK  Name = 
REMARK  9 active torsions:
REMARK  status: ('A' for Active; 'I' for Inactive)
REMARK    1  A    between atoms: C_1  and  C_2
REMARK    2  A    between atoms: C_2  and  N_3
REMARK    3  A    between atoms: C_4  and  C_5
REMARK    4  A    between atoms: C_5  and  O_6
REMARK    5  A    between atoms: C_5  and  C_7
REMARK    6  A    between atoms: C_5  and  C_13
REMARK    7  A    between atoms: C_23  and  C_24
REMARK    8  A    between atoms: N_26  and  C_27
REMARK    9  A    between atoms: C_31  and  O_32
REMARK                            x       y       z     vdW  Elec       q    Type
REMARK                         _______ _______ _______ _____ _____    ______ ____
ROOT
ATOM      1  N   UNL     1       0.028   9.705  20.753  0.00  0.00    +0.000 N 
ATOM      2  C   UNL     1      -0.298  10.851  20.035  0.00  0.00    +0.000 A 
ATOM      3  N   UNL     1       0.349  10.839  18.875  0.00  0.00    +0.000 NA
ATOM      4  C   UNL     1       1.129   9.731  18.862  0.00  0.00    +0.000 A 
ATOM      5  C   UNL     1       2.062   9.338  17.896  0.00  0.00    +0.000 A 
ATOM      6  C   UNL     1       2.757   8.139  18.081  0.00  0.00    +0.000 A 
ATOM      7  C   UNL     1       2.491   7.325  19.190  0.00  0.00    +0.000 A 
ATOM      8  C   UNL     1       1.594   7.740  20.194  0.00  0.00    +0.000 A 
ATOM      9  C   UNL     1       0.927   8.965  19.998  0.00  0.00    +0.000 A 
ENDROOT
BRANCH   7  10
ATOM     10  C   UNL     1       3.154   5.988  19.322  0.00  0.00    +0.000 C 
ATOM     11  O   UNL     1       2.651   5.108  20.011  0.00  0.00    +0.000 OA
ATOM     12  N   UNL     1       4.304   5.820  18.569  0.00  0.00    +0.000 N 
ATOM     13  H   UNL     1       4.441   6.479  17.815  0.00  0.00    +0.000 HD
BRANCH  12  14
ATOM     14  C   UNL     1       4.946   4.516  18.414  0.00  0.00    +0.000 C 
ATOM     15  C   UNL     1       6.422   4.624  17.998  0.00  0.00    +0.000 C 
ATOM     16  C   UNL     1       6.482   4.375  16.488  0.00  0.00    +0.000 C 
ATOM     17  C   UNL     1       5.044   4.181  16.024  0.00  0.00    +0.000 C 
ATOM     18  C   UNL     1       4.306   3.705  17.269  0.00  0.00    +0.000 C 
BRANCH  18  19
ATOM     19  O   UNL     1       4.489   2.303  17.453  0.00  0.00    +0.000 OA
ATOM     20  H   UNL     1       4.882   1.930  16.645  0.00  0.00    +0.000 HD
ENDBRANCH  18  19
ENDBRANCH  12  14
ENDBRANCH   7  10
BRANCH   1  22
ATOM     21  C   UNL     1       0.753   9.467  23.100  0.00  0.00    +0.000 C 
ATOM     22  C   UNL     1      -0.376   9.321  22.093  0.00  0.00    +0.000 C 
ENDBRANCH   1  22
BRANCH   2  23
ATOM     23  C   UNL     1      -1.151  12.071  20.481  0.00  0.00    +0.000 C 
BRANCH  23  24
ATOM     24  C   UNL     1      -0.298  13.346  20.219  0.00  0.00    +0.000 A 
ATOM     25  C   UNL     1      -0.675  14.206  19.161  0.00  0.00    +0.000 A 
ATOM     26  C   UNL     1       0.089  15.316  18.803  0.00  0.00    +0.000 A 
ATOM     27  C   UNL     1       1.256  15.602  19.500  0.00  0.00    +0.000 A 
ATOM     28  C   UNL     1       1.635  14.798  20.572  0.00  0.00    +0.000 A 
ATOM     29  C   UNL     1       0.859  13.692  20.942  0.00  0.00    +0.000 A 
ENDBRANCH  23  24
BRANCH  23  30
ATOM     30  C   UNL     1      -2.533  12.096  19.778  0.00  0.00    +0.000 A 
ATOM     31  C   UNL     1      -3.637  12.740  20.379  0.00  0.00    +0.000 A 
ATOM     32  C   UNL     1      -4.902  12.734  19.786  0.00  0.00    +0.000 A 
ATOM     33  C   UNL     1      -5.091  12.111  18.559  0.00  0.00    +0.000 A 
ATOM     34  C   UNL     1      -4.009  11.520  17.913  0.00  0.00    +0.000 A 
ATOM     35  C   UNL     1      -2.742  11.525  18.508  0.00  0.00    +0.000 A 
ENDBRANCH  23  30
BRANCH  23  36
ATOM     36  O   UNL     1      -1.492  11.884  21.856  0.00  0.00    +0.000 OA
ATOM     37  H   UNL     1      -1.476  12.745  22.289  0.00  0.00    +0.000 HD
ENDBRANCH  23  36
ENDBRANCH   2  23
TORSDOF 8
ENDMDL
MODEL 8
REMARK VINA RESULT:      -8.4      1.849      3.789
REMARK  Name = 
REMARK  9 active torsions:
REMARK  status: ('A' for Active; 'I' for Inactive)
REMARK    1  A    between atoms: C_1  and  C_2
REMARK    2  A    between atoms: C_2  and  N_3
REMARK    3  A    between atoms: C_4  and  C_5
REMARK    4  A    between atoms: C_5  and  O_6
REMARK    5  A    between atoms: C_5  and  C_7
REMARK    6  A    between atoms: C_5  and  C_13
REMARK    7  A    between atoms: C_23  and  C_24
REMARK    8  A    between atoms: N_26  and  C_27
REMARK    9  A    between atoms: C_31  and  O_32
REMARK                            x       y       z     vdW  Elec       q    Type
REMARK                         _______ _______ _______ _____ _____    ______ ____
ROOT
ATOM      1  N   UNL     1       3.032   6.208  19.681  0.00  0.00    +0.000 N 
ATOM      2  C   UNL     1       3.868   5.913  18.609  0.00  0.00    +0.000 A 
ATOM      3  N   UNL     1       3.813   6.904  17.725  0.00  0.00    +0.000 NA
ATOM      4  C   UNL     1       2.910   7.804  18.188  0.00  0.00    +0.000 A 
ATOM      5  C   UNL     1       2.442   8.963  17.561  0.00  0.00    +0.000 A 
ATOM      6  C   UNL     1       1.508   9.759  18.231  0.00  0.00    +0.000 A 
ATOM      7  C   UNL     1       1.084   9.426  19.524  0.00  0.00    +0.000 A 
ATOM      8  C   UNL     1       1.510   8.232  20.139  0.00  0.00    +0.000 A 
ATOM      9  C   UNL     1       2.429   7.433  19.432  0.00  0.00    +0.000 A 
ENDROOT
BRANCH   7  10
ATOM     10  C   UNL     1       0.174  10.344  20.281  0.00  0.00    +0.000 C 
ATOM     11  O   UNL     1      -0.524   9.917  21.192  0.00  0.00    +0.000 OA
ATOM     12  N   UNL     1       0.242  11.679  19.916  0.00  0.00    +0.000 N 
ATOM     13  H   UNL     1       1.061  11.954  19.391  0.00  0.00    +0.000 HD
BRANCH  12  14
ATOM     14  C   UNL     1      -0.411  12.728  20.694  0.00  0.00    +0.000 C 
ATOM     15  C   UNL     1      -1.173  13.735  19.816  0.00  0.00    +0.000 C 
ATOM     16  C   UNL     1      -0.279  14.970  19.668  0.00  0.00    +0.000 C 
ATOM     17  C   UNL     1       1.016  14.656  20.408  0.00  0.00    +0.000 C 
ATOM     18  C   UNL     1       0.618  13.605  21.437  0.00  0.00    +0.000 C 
BRANCH  18  19
ATOM     19  O   UNL     1       0.049  14.222  22.588  0.00  0.00    +0.000 OA
ATOM     20  H   UNL     1      -0.892  14.399  22.417  0.00  0.00    +0.000 HD
ENDBRANCH  18  19
ENDBRANCH  12  14
ENDBRANCH   7  10
BRANCH   1  22
ATOM     21  C   UNL     1       1.337   4.763  20.743  0.00  0.00    +0.000 C 
ATOM     22  C   UNL     1       2.715   5.397  20.842  0.00  0.00    +0.000 C 
ENDBRANCH   1  22
BRANCH   2  23
ATOM     23  C   UNL     1       4.666   4.611  18.324  0.00  0.00    +0.000 C 
BRANCH  23  24
ATOM     24  C   UNL     1       3.659   3.428  18.417  0.00  0.00    +0.000 A 
ATOM     25  C   UNL     1       2.420   3.540  17.742  0.00  0.00    +0.000 A 
ATOM     26  C   UNL     1       1.428   2.567  17.852  0.00  0.00    +0.000 A 
ATOM     27  C   UNL     1       1.649   1.446  18.641  0.00  0.00    +0.000 A 
ATOM     28  C   UNL     1       2.872   1.286  19.288  0.00  0.00    +0.000 A 
ATOM     29  C   UNL     1       3.875   2.256  19.165  0.00  0.00    +0.000 A 
ENDBRANCH  23  24
BRANCH  23  30
ATOM     30  C   UNL     1       5.416   4.679  16.968  0.00  0.00    +0.000 A 
ATOM     31  C   UNL     1       6.754   5.129  16.906  0.00  0.00    +0.000 A 
ATOM     32  C   UNL     1       7.433   5.243  15.690  0.00  0.00    +0.000 A 
ATOM     33  C   UNL     1       6.804   4.880  14.506  0.00  0.00    +0.000 A 
ATOM     34  C   UNL     1       5.508   4.376  14.541  0.00  0.00    +0.000 A 
ATOM     35  C   UNL     1       4.826   4.263  15.759  0.00  0.00    +0.000 A 
ENDBRANCH  23  30
BRANCH  23  36
ATOM     36  O   UNL     1       5.729   4.533  19.277  0.00  0.00    +0.000 OA
ATOM     37  H   UNL     1       6.417   5.150  19.008  0.00  0.00    +0.000 HD
ENDBRANCH  23  36
ENDBRANCH   2  23
TORSDOF 8
ENDMDL
MODEL 9
REMARK VINA RESULT:      -8.4      2.754      9.017
REMARK  Name = 
REMARK  9 active torsions:
REMARK  status: ('A' for Active; 'I' for Inactive)
REMARK    1  A    between atoms: C_1  and  C_2
REMARK    2  A    between atoms: C_2  and  N_3
REMARK    3  A    between atoms: C_4  and  C_5
REMARK    4  A    between atoms: C_5  and  O_6
REMARK    5  A    between atoms: C_5  and  C_7
REMARK    6  A    between atoms: C_5  and  C_13
REMARK    7  A    between atoms: C_23  and  C_24
REMARK    8  A    between atoms: N_26  and  C_27
REMARK    9  A    between atoms: C_31  and  O_32
REMARK                            x       y       z     vdW  Elec       q    Type
REMARK                         _______ _______ _______ _____ _____    ______ ____
ROOT
ATOM      1  N   UNL     1       0.483   9.243  20.314  0.00  0.00    +0.000 N 
ATOM      2  C   UNL     1       0.100  10.375  19.603  0.00  0.00    +0.000 A 
ATOM      3  N   UNL     1       0.740  10.400  18.439  0.00  0.00    +0.000 NA
ATOM      4  C   UNL     1       1.571   9.328  18.416  0.00  0.00    +0.000 A 
ATOM      5  C   UNL     1       2.515   8.983  17.443  0.00  0.00    +0.000 A 
ATOM      6  C   UNL     1       3.265   7.817  17.618  0.00  0.00    +0.000 A 
ATOM      7  C   UNL     1       3.044   6.986  18.724  0.00  0.00    +0.000 A 
ATOM      8  C   UNL     1       2.134   7.355  19.735  0.00  0.00    +0.000 A 
ATOM      9  C   UNL     1       1.411   8.548  19.550  0.00  0.00    +0.000 A 
ENDROOT
BRANCH   7  10
ATOM     10  C   UNL     1       3.768   5.680  18.846  0.00  0.00    +0.000 C 
ATOM     11  O   UNL     1       4.722   5.565  19.605  0.00  0.00    +0.000 OA
ATOM     12  N   UNL     1       3.238   4.638  18.103  0.00  0.00    +0.000 N 
ATOM     13  H   UNL     1       2.290   4.764  17.775  0.00  0.00    +0.000 HD
BRANCH  12  14
ATOM     14  C   UNL     1       3.687   3.258  18.273  0.00  0.00    +0.000 C 
ATOM     15  C   UNL     1       2.627   2.229  17.848  0.00  0.00    +0.000 C 
ATOM     16  C   UNL     1       1.944   1.733  19.126  0.00  0.00    +0.000 C 
ATOM     17  C   UNL     1       2.566   2.512  20.278  0.00  0.00    +0.000 C 
ATOM     18  C   UNL     1       3.937   2.925  19.758  0.00  0.00    +0.000 C 
BRANCH  18  19
ATOM     19  O   UNL     1       4.870   1.860  19.909  0.00  0.00    +0.000 OA
ATOM     20  H   UNL     1       5.539   2.118  20.566  0.00  0.00    +0.000 HD
ENDBRANCH  18  19
ENDBRANCH  12  14
ENDBRANCH   7  10
BRANCH   1  22
ATOM     21  C   UNL     1       1.128   9.256  22.696  0.00  0.00    +0.000 C 
ATOM     22  C   UNL     1       0.105   8.833  21.653  0.00  0.00    +0.000 C 
ENDBRANCH   1  22
BRANCH   2  23
ATOM     23  C   UNL     1      -0.805  11.553  20.060  0.00  0.00    +0.000 C 
BRANCH  23  24
ATOM     24  C   UNL     1       0.006  12.864  19.845  0.00  0.00    +0.000 A 
ATOM     25  C   UNL     1       1.062  13.159  20.740  0.00  0.00    +0.000 A 
ATOM     26  C   UNL     1       1.774  14.356  20.673  0.00  0.00    +0.000 A 
ATOM     27  C   UNL     1       1.451  15.295  19.702  0.00  0.00    +0.000 A 
ATOM     28  C   UNL     1       0.443  15.019  18.781  0.00  0.00    +0.000 A 
ATOM     29  C   UNL     1      -0.262  13.809  18.838  0.00  0.00    +0.000 A 
ENDBRANCH  23  24
BRANCH  23  30
ATOM     30  C   UNL     1      -2.173  11.545  19.330  0.00  0.00    +0.000 A 
ATOM     31  C   UNL     1      -2.369  10.762  18.171  0.00  0.00    +0.000 A 
ATOM     32  C   UNL     1      -3.578  10.777  17.471  0.00  0.00    +0.000 A 
ATOM     33  C   UNL     1      -4.637  11.551  17.930  0.00  0.00    +0.000 A 
ATOM     34  C   UNL     1      -4.495  12.287  19.102  0.00  0.00    +0.000 A 
ATOM     35  C   UNL     1      -3.282  12.273  19.803  0.00  0.00    +0.000 A 
ENDBRANCH  23  30
BRANCH  23  36
ATOM     36  O   UNL     1      -1.166  11.321  21.424  0.00  0.00    +0.000 OA
ATOM     37  H   UNL     1      -0.356  11.197  21.931  0.00  0.00    +0.000 HD
ENDBRANCH  23  36
ENDBRANCH   2  23
TORSDOF 8
ENDMDL
