MODEL 1
REMARK VINA RESULT:      -8.1      0.000      0.000
REMARK  Name = 
REMARK  12 active torsions:
REMARK  status: ('A' for Active; 'I' for Inactive)
REMARK    1  A    between atoms: C_1  and  C_2
REMARK    2  A    between atoms: C_2  and  O_3
REMARK    3  A    between atoms: O_3  and  C_4
REMARK    4  A    between atoms: N_6  and  C_7
REMARK    5  A    between atoms: C_10  and  C_11
REMARK    6  A    between atoms: C_12  and  C_13
REMARK    7  A    between atoms: C_15  and  O_16
REMARK    8  A    between atoms: C_17  and  N_18
REMARK    9  A    between atoms: N_19  and  C_20
REMARK   10  A    between atoms: C_21  and  O_22
REMARK   11  A    between atoms: C_24  and  S_25
REMARK   12  A    between atoms: S_25  and  O_28
REMARK                            x       y       z     vdW  Elec       q    Type
REMARK                         _______ _______ _______ _____ _____    ______ ____
ROOT
ATOM      1  N   UNL     1       0.706  11.028  19.481  0.00  0.00    +0.000 NA
ATOM      2  N   UNL     1       1.496  11.960  19.259  0.00  0.00    +0.000 NA
ENDROOT
BRANCH   2   3
ATOM      3  C   UNL     1       0.882  13.248  19.297  0.00  0.00    +0.000 A 
ATOM      4  C   UNL     1      -0.421  13.477  19.784  0.00  0.00    +0.000 A 
ATOM      5  C   UNL     1      -1.018  14.728  19.718  0.00  0.00    +0.000 A 
ATOM      6  C   UNL     1      -0.318  15.796  19.158  0.00  0.00    +0.000 A 
ATOM      7  C   UNL     1       1.009  15.646  18.682  0.00  0.00    +0.000 A 
ATOM      8  C   UNL     1       1.779  16.699  18.124  0.00  0.00    +0.000 A 
ATOM      9  C   UNL     1       3.094  16.512  17.702  0.00  0.00    +0.000 A 
ATOM     10  C   UNL     1       3.680  15.262  17.807  0.00  0.00    +0.000 A 
ATOM     11  C   UNL     1       2.942  14.199  18.323  0.00  0.00    +0.000 A 
ATOM     12  C   UNL     1       1.608  14.353  18.769  0.00  0.00    +0.000 A 
BRANCH   6  13
ATOM     13  S   UNL     1      -1.152  17.363  19.069  0.00  0.00    +0.000 S 
ATOM     14  O   UNL     1      -0.645  18.197  20.140  0.00  0.00    +0.000 OA
ATOM     15  O   UNL     1      -1.141  17.789  17.688  0.00  0.00    +0.000 OA
BRANCH  13  16
ATOM     16  O   UNL     1      -2.683  17.072  19.482  0.00  0.00    +0.000 OA
ATOM     17  H   UNL     1      -3.249  17.396  18.751  0.00  0.00    +0.000 HD
ENDBRANCH  13  16
ENDBRANCH   6  13
BRANCH   4  18
ATOM     18  O   UNL     1      -1.191  12.495  20.352  0.00  0.00    +0.000 OA
ATOM     19  H   UNL     1      -2.047  12.495  19.883  0.00  0.00    +0.000 HD
ENDBRANCH   4  18
ENDBRANCH   2   3
BRANCH   1  24
ATOM     20  C   UNL     1       1.373   8.855  20.677  0.00  0.00    +0.000 A 
ATOM     21  N   UNL     1       1.836   7.663  20.291  0.00  0.00    +0.000 NA
ATOM     22  N   UNL     1       2.220   7.854  19.002  0.00  0.00    +0.000 N 
ATOM     23  C   UNL     1       1.873   9.119  18.533  0.00  0.00    +0.000 A 
ATOM     24  C   UNL     1       1.286   9.760  19.604  0.00  0.00    +0.000 A 
BRANCH  22  25
ATOM     25  C   UNL     1       2.902   6.813  18.317  0.00  0.00    +0.000 A 
ATOM     26  C   UNL     1       4.059   7.120  17.597  0.00  0.00    +0.000 A 
ATOM     27  C   UNL     1       4.722   6.119  16.886  0.00  0.00    +0.000 A 
ATOM     28  C   UNL     1       4.215   4.811  16.836  0.00  0.00    +0.000 A 
ATOM     29  C   UNL     1       4.920   3.795  15.978  0.00  0.00    +0.000 C 
ATOM     30  C   UNL     1       3.039   4.500  17.551  0.00  0.00    +0.000 A 
ATOM     31  C   UNL     1       2.389   3.142  17.498  0.00  0.00    +0.000 C 
ATOM     32  C   UNL     1       2.401   5.504  18.307  0.00  0.00    +0.000 A 
ENDBRANCH  22  25
BRANCH  23  33
ATOM     33  O   UNL     1       2.023   9.547  17.274  0.00  0.00    +0.000 OA
ATOM     34  H   UNL     1       2.107  10.517  17.265  0.00  0.00    +0.000 HD
ENDBRANCH  23  33
BRANCH  20  35
ATOM     35  O   UNL     1       0.984   9.026  21.965  0.00  0.00    +0.000 OA
BRANCH  35  37
ATOM     36  C   UNL     1      -0.859  10.160  23.038  0.00  0.00    +0.000 C 
ATOM     37  C   UNL     1      -0.443   9.020  22.124  0.00  0.00    +0.000 C 
ENDBRANCH  35  37
ENDBRANCH  20  35
ENDBRANCH   1  24
TORSDOF 9
ENDMDL
MODEL 2
REMARK VINA RESULT:      -8.0      3.780      9.513
REMARK  Name = 
REMARK  12 active torsions:
REMARK  status: ('A' for Active; 'I' for Inactive)
REMARK    1  A    between atoms: C_1  and  C_2
REMARK    2  A    between atoms: C_2  and  O_3
REMARK    3  A    between atoms: O_3  and  C_4
REMARK    4  A    between atoms: N_6  and  C_7
REMARK    5  A    between atoms: C_10  and  C_11
REMARK    6  A    between atoms: C_12  and  C_13
REMARK    7  A    between atoms: C_15  and  O_16
REMARK    8  A    between atoms: C_17  and  N_18
REMARK    9  A    between atoms: N_19  and  C_20
REMARK   10  A    between atoms: C_21  and  O_22
REMARK   11  A    between atoms: C_24  and  S_25
REMARK   12  A    between atoms: S_25  and  O_28
REMARK                            x       y       z     vdW  Elec       q    Type
REMARK                         _______ _______ _______ _____ _____    ______ ____
ROOT
ATOM      1  N   UNL     1       1.276   8.423  19.837  0.00  0.00    +0.000 NA
ATOM      2  N   UNL     1       2.419   7.947  19.744  0.00  0.00    +0.000 NA
ENDROOT
BRANCH   2   3
ATOM      3  C   UNL     1       2.436   6.579  19.337  0.00  0.00    +0.000 A 
ATOM      4  C   UNL     1       1.693   5.566  19.977  0.00  0.00    +0.000 A 
ATOM      5  C   UNL     1       1.808   4.232  19.612  0.00  0.00    +0.000 A 
ATOM      6  C   UNL     1       2.679   3.872  18.583  0.00  0.00    +0.000 A 
ATOM      7  C   UNL     1       3.429   4.843  17.872  0.00  0.00    +0.000 A 
ATOM      8  C   UNL     1       4.312   4.541  16.803  0.00  0.00    +0.000 A 
ATOM      9  C   UNL     1       5.002   5.535  16.110  0.00  0.00    +0.000 A 
ATOM     10  C   UNL     1       4.847   6.862  16.472  0.00  0.00    +0.000 A 
ATOM     11  C   UNL     1       4.011   7.190  17.537  0.00  0.00    +0.000 A 
ATOM     12  C   UNL     1       3.288   6.211  18.257  0.00  0.00    +0.000 A 
BRANCH   6  13
ATOM     13  S   UNL     1       2.808   2.145  18.188  0.00  0.00    +0.000 S 
ATOM     14  O   UNL     1       2.461   1.982  16.790  0.00  0.00    +0.000 OA
ATOM     15  O   UNL     1       4.055   1.661  18.734  0.00  0.00    +0.000 OA
BRANCH  13  16
ATOM     16  O   UNL     1       1.608   1.420  18.983  0.00  0.00    +0.000 OA
ATOM     17  H   UNL     1       1.742   1.596  19.937  0.00  0.00    +0.000 HD
ENDBRANCH  13  16
ENDBRANCH   6  13
BRANCH   4  18
ATOM     18  O   UNL     1       0.812   5.815  20.997  0.00  0.00    +0.000 OA
ATOM     19  H   UNL     1       0.833   5.039  21.590  0.00  0.00    +0.000 HD
ENDBRANCH   4  18
ENDBRANCH   2   3
BRANCH   1  24
ATOM     20  C   UNL     1       1.001  10.543  21.260  0.00  0.00    +0.000 A 
ATOM     21  N   UNL     1       1.229  11.846  21.075  0.00  0.00    +0.000 NA
ATOM     22  N   UNL     1       1.410  11.967  19.733  0.00  0.00    +0.000 N 
ATOM     23  C   UNL     1       1.435  10.730  19.094  0.00  0.00    +0.000 A 
ATOM     24  C   UNL     1       1.212   9.799  20.085  0.00  0.00    +0.000 A 
BRANCH  22  25
ATOM     25  C   UNL     1       1.533  13.262  19.162  0.00  0.00    +0.000 A 
ATOM     26  C   UNL     1       2.760  13.650  18.620  0.00  0.00    +0.000 A 
ATOM     27  C   UNL     1       2.913  14.931  18.089  0.00  0.00    +0.000 A 
ATOM     28  C   UNL     1       1.864  15.864  18.139  0.00  0.00    +0.000 A 
ATOM     29  C   UNL     1       2.115  17.260  17.636  0.00  0.00    +0.000 C 
ATOM     30  C   UNL     1       0.627  15.480  18.698  0.00  0.00    +0.000 A 
ATOM     31  C   UNL     1      -0.527  16.436  18.853  0.00  0.00    +0.000 C 
ATOM     32  C   UNL     1       0.465  14.169  19.188  0.00  0.00    +0.000 A 
ENDBRANCH  22  25
BRANCH  23  33
ATOM     33  O   UNL     1       1.709  10.534  17.799  0.00  0.00    +0.000 OA
ATOM     34  H   UNL     1       2.283  11.250  17.473  0.00  0.00    +0.000 HD
ENDBRANCH  23  33
BRANCH  20  35
ATOM     35  O   UNL     1       0.694  10.098  22.504  0.00  0.00    +0.000 OA
BRANCH  35  37
ATOM     36  C   UNL     1      -1.388  11.153  23.127  0.00  0.00    +0.000 C 
ATOM     37  C   UNL     1      -0.711   9.867  22.684  0.00  0.00    +0.000 C 
ENDBRANCH  35  37
ENDBRANCH  20  35
ENDBRANCH   1  24
TORSDOF 9
ENDMDL
MODEL 3
REMARK VINA RESULT:      -7.9      3.488      4.590
REMARK  Name = 
REMARK  12 active torsions:
REMARK  status: ('A' for Active; 'I' for Inactive)
REMARK    1  A    between atoms: C_1  and  C_2
REMARK    2  A    between atoms: C_2  and  O_3
REMARK    3  A    between atoms: O_3  and  C_4
REMARK    4  A    between atoms: N_6  and  C_7
REMARK    5  A    between atoms: C_10  and  C_11
REMARK    6  A    between atoms: C_12  and  C_13
REMARK    7  A    between atoms: C_15  and  O_16
REMARK    8  A    between atoms: C_17  and  N_18
REMARK    9  A    between atoms: N_19  and  C_20
REMARK   10  A    between atoms: C_21  and  O_22
REMARK   11  A    between atoms: C_24  and  S_25
REMARK   12  A    between atoms: S_25  and  O_28
REMARK                            x       y       z     vdW  Elec       q    Type
REMARK                         _______ _______ _______ _____ _____    ______ ____
ROOT
ATOM      1  N   UNL     1       1.404   7.910  20.251  0.00  0.00    +0.000 NA
ATOM      2  N   UNL     1       1.224   8.890  19.510  0.00  0.00    +0.000 NA
ENDROOT
BRANCH   2   3
ATOM      3  C   UNL     1       0.407   9.904  20.093  0.00  0.00    +0.000 A 
ATOM      4  C   UNL     1       0.564  10.367  21.416  0.00  0.00    +0.000 A 
ATOM      5  C   UNL     1      -0.309  11.287  21.978  0.00  0.00    +0.000 A 
ATOM      6  C   UNL     1      -1.375  11.776  21.222  0.00  0.00    +0.000 A 
ATOM      7  C   UNL     1      -1.572  11.381  19.875  0.00  0.00    +0.000 A 
ATOM      8  C   UNL     1      -2.623  11.859  19.050  0.00  0.00    +0.000 A 
ATOM      9  C   UNL     1      -2.756  11.469  17.719  0.00  0.00    +0.000 A 
ATOM     10  C   UNL     1      -1.853  10.575  17.169  0.00  0.00    +0.000 A 
ATOM     11  C   UNL     1      -0.827  10.062  17.961  0.00  0.00    +0.000 A 
ATOM     12  C   UNL     1      -0.656  10.441  19.312  0.00  0.00    +0.000 A 
BRANCH   6  13
ATOM     13  S   UNL     1      -2.479  12.922  22.012  0.00  0.00    +0.000 S 
ATOM     14  O   UNL     1      -2.375  14.189  21.316  0.00  0.00    +0.000 OA
ATOM     15  O   UNL     1      -3.744  12.251  22.208  0.00  0.00    +0.000 OA
BRANCH  13  16
ATOM     16  O   UNL     1      -1.846  13.215  23.465  0.00  0.00    +0.000 OA
ATOM     17  H   UNL     1      -2.509  13.726  23.974  0.00  0.00    +0.000 HD
ENDBRANCH  13  16
ENDBRANCH   6  13
BRANCH   4  18
ATOM     18  O   UNL     1       1.578   9.950  22.239  0.00  0.00    +0.000 OA
ATOM     19  H   UNL     1       2.371   9.835  21.681  0.00  0.00    +0.000 HD
ENDBRANCH   4  18
ENDBRANCH   2   3
BRANCH   1  24
ATOM     20  C   UNL     1       2.616   5.646  20.196  0.00  0.00    +0.000 A 
ATOM     21  N   UNL     1       3.420   5.022  19.331  0.00  0.00    +0.000 NA
ATOM     22  N   UNL     1       3.788   5.993  18.454  0.00  0.00    +0.000 N 
ATOM     23  C   UNL     1       3.113   7.189  18.682  0.00  0.00    +0.000 A 
ATOM     24  C   UNL     1       2.319   6.959  19.786  0.00  0.00    +0.000 A 
BRANCH  22  25
ATOM     25  C   UNL     1       4.772   5.705  17.470  0.00  0.00    +0.000 A 
ATOM     26  C   UNL     1       6.042   6.273  17.595  0.00  0.00    +0.000 A 
ATOM     27  C   UNL     1       7.010   6.034  16.619  0.00  0.00    +0.000 A 
ATOM     28  C   UNL     1       6.713   5.272  15.478  0.00  0.00    +0.000 A 
ATOM     29  C   UNL     1       7.768   5.126  14.414  0.00  0.00    +0.000 C 
ATOM     30  C   UNL     1       5.428   4.708  15.341  0.00  0.00    +0.000 A 
ATOM     31  C   UNL     1       5.003   3.935  14.120  0.00  0.00    +0.000 C 
ATOM     32  C   UNL     1       4.470   4.912  16.355  0.00  0.00    +0.000 A 
ENDBRANCH  22  25
BRANCH  23  33
ATOM     33  O   UNL     1       3.188   8.280  17.911  0.00  0.00    +0.000 OA
ATOM     34  H   UNL     1       2.593   8.180  17.145  0.00  0.00    +0.000 HD
ENDBRANCH  23  33
BRANCH  20  35
ATOM     35  O   UNL     1       2.137   4.962  21.264  0.00  0.00    +0.000 OA
BRANCH  35  37
ATOM     36  C   UNL     1       1.049   2.912  20.592  0.00  0.00    +0.000 C 
ATOM     37  C   UNL     1       2.316   3.543  21.146  0.00  0.00    +0.000 C 
ENDBRANCH  35  37
ENDBRANCH  20  35
ENDBRANCH   1  24
TORSDOF 9
ENDMDL
MODEL 4
REMARK VINA RESULT:      -7.9      0.612      1.261
REMARK  Name = 
REMARK  12 active torsions:
REMARK  status: ('A' for Active; 'I' for Inactive)
REMARK    1  A    between atoms: C_1  and  C_2
REMARK    2  A    between atoms: C_2  and  O_3
REMARK    3  A    between atoms: O_3  and  C_4
REMARK    4  A    between atoms: N_6  and  C_7
REMARK    5  A    between atoms: C_10  and  C_11
REMARK    6  A    between atoms: C_12  and  C_13
REMARK    7  A    between atoms: C_15  and  O_16
REMARK    8  A    between atoms: C_17  and  N_18
REMARK    9  A    between atoms: N_19  and  C_20
REMARK   10  A    between atoms: C_21  and  O_22
REMARK   11  A    between atoms: C_24  and  S_25
REMARK   12  A    between atoms: S_25  and  O_28
REMARK                            x       y       z     vdW  Elec       q    Type
REMARK                         _______ _______ _______ _____ _____    ______ ____
ROOT
ATOM      1  N   UNL     1       0.577  11.375  19.791  0.00  0.00    +0.000 NA
ATOM      2  N   UNL     1       1.183  12.139  19.023  0.00  0.00    +0.000 NA
ENDROOT
BRANCH   2   3
ATOM      3  C   UNL     1       0.684  13.477  19.038  0.00  0.00    +0.000 A 
ATOM      4  C   UNL     1      -0.631  13.813  19.417  0.00  0.00    +0.000 A 
ATOM      5  C   UNL     1      -1.109  15.113  19.329  0.00  0.00    +0.000 A 
ATOM      6  C   UNL     1      -0.273  16.123  18.853  0.00  0.00    +0.000 A 
ATOM      7  C   UNL     1       1.073  15.862  18.488  0.00  0.00    +0.000 A 
ATOM      8  C   UNL     1       1.977  16.851  18.021  0.00  0.00    +0.000 A 
ATOM      9  C   UNL     1       3.302  16.553  17.708  0.00  0.00    +0.000 A 
ATOM     10  C   UNL     1       3.766  15.254  17.835  0.00  0.00    +0.000 A 
ATOM     11  C   UNL     1       2.895  14.254  18.262  0.00  0.00    +0.000 A 
ATOM     12  C   UNL     1       1.547  14.520  18.597  0.00  0.00    +0.000 A 
BRANCH   6  13
ATOM     13  S   UNL     1      -0.955  17.759  18.729  0.00  0.00    +0.000 S 
ATOM     14  O   UNL     1      -0.441  18.540  19.836  0.00  0.00    +0.000 OA
ATOM     15  O   UNL     1      -0.822  18.187  17.355  0.00  0.00    +0.000 OA
BRANCH  13  16
ATOM     16  O   UNL     1      -2.528  17.606  19.047  0.00  0.00    +0.000 OA
ATOM     17  H   UNL     1      -2.713  18.122  19.859  0.00  0.00    +0.000 HD
ENDBRANCH  13  16
ENDBRANCH   6  13
BRANCH   4  18
ATOM     18  O   UNL     1      -1.530  12.896  19.896  0.00  0.00    +0.000 OA
ATOM     19  H   UNL     1      -1.287  12.713  20.824  0.00  0.00    +0.000 HD
ENDBRANCH   4  18
ENDBRANCH   2   3
BRANCH   1  24
ATOM     20  C   UNL     1       1.274   9.236  21.030  0.00  0.00    +0.000 A 
ATOM     21  N   UNL     1       1.663   8.011  20.664  0.00  0.00    +0.000 NA
ATOM     22  N   UNL     1       1.939   8.129  19.339  0.00  0.00    +0.000 N 
ATOM     23  C   UNL     1       1.595   9.384  18.841  0.00  0.00    +0.000 A 
ATOM     24  C   UNL     1       1.124  10.093  19.925  0.00  0.00    +0.000 A 
BRANCH  22  25
ATOM     25  C   UNL     1       2.525   7.034  18.650  0.00  0.00    +0.000 A 
ATOM     26  C   UNL     1       2.071   5.741  18.922  0.00  0.00    +0.000 A 
ATOM     27  C   UNL     1       2.660   4.649  18.285  0.00  0.00    +0.000 A 
ATOM     28  C   UNL     1       3.745   4.820  17.411  0.00  0.00    +0.000 A 
ATOM     29  C   UNL     1       4.401   3.598  16.825  0.00  0.00    +0.000 C 
ATOM     30  C   UNL     1       4.216   6.123  17.145  0.00  0.00    +0.000 A 
ATOM     31  C   UNL     1       5.416   6.393  16.274  0.00  0.00    +0.000 C 
ATOM     32  C   UNL     1       3.584   7.227  17.753  0.00  0.00    +0.000 A 
ENDBRANCH  22  25
BRANCH  23  33
ATOM     33  O   UNL     1       1.649   9.748  17.554  0.00  0.00    +0.000 OA
ATOM     34  H   UNL     1       1.032  10.486  17.397  0.00  0.00    +0.000 HD
ENDBRANCH  23  33
BRANCH  20  35
ATOM     35  O   UNL     1       1.003   9.479  22.336  0.00  0.00    +0.000 OA
BRANCH  35  37
ATOM     36  C   UNL     1      -0.989  10.644  23.050  0.00  0.00    +0.000 C 
ATOM     37  C   UNL     1      -0.384   9.305  22.662  0.00  0.00    +0.000 C 
ENDBRANCH  35  37
ENDBRANCH  20  35
ENDBRANCH   1  24
TORSDOF 9
ENDMDL
MODEL 5
REMARK VINA RESULT:      -7.9      1.044      1.307
REMARK  Name = 
REMARK  12 active torsions:
REMARK  status: ('A' for Active; 'I' for Inactive)
REMARK    1  A    between atoms: C_1  and  C_2
REMARK    2  A    between atoms: C_2  and  O_3
REMARK    3  A    between atoms: O_3  and  C_4
REMARK    4  A    between atoms: N_6  and  C_7
REMARK    5  A    between atoms: C_10  and  C_11
REMARK    6  A    between atoms: C_12  and  C_13
REMARK    7  A    between atoms: C_15  and  O_16
REMARK    8  A    between atoms: C_17  and  N_18
REMARK    9  A    between atoms: N_19  and  C_20
REMARK   10  A    between atoms: C_21  and  O_22
REMARK   11  A    between atoms: C_24  and  S_25
REMARK   12  A    between atoms: S_25  and  O_28
REMARK                            x       y       z     vdW  Elec       q    Type
REMARK                         _______ _______ _______ _____ _____    ______ ____
ROOT
ATOM      1  N   UNL     1       0.785  11.320  19.726  0.00  0.00    +0.000 NA
ATOM      2  N   UNL     1       1.495  12.245  20.152  0.00  0.00    +0.000 NA
ENDROOT
BRANCH   2   3
ATOM      3  C   UNL     1       0.985  13.543  19.849  0.00  0.00    +0.000 A 
ATOM      4  C   UNL     1      -0.323  13.960  20.167  0.00  0.00    +0.000 A 
ATOM      5  C   UNL     1      -0.814  15.197  19.772  0.00  0.00    +0.000 A 
ATOM      6  C   UNL     1       0.003  16.060  19.040  0.00  0.00    +0.000 A 
ATOM      7  C   UNL     1       1.341  15.719  18.716  0.00  0.00    +0.000 A 
ATOM      8  C   UNL     1       2.225  16.563  17.995  0.00  0.00    +0.000 A 
ATOM      9  C   UNL     1       3.544  16.199  17.731  0.00  0.00    +0.000 A 
ATOM     10  C   UNL     1       4.021  14.974  18.164  0.00  0.00    +0.000 A 
ATOM     11  C   UNL     1       3.170  14.109  18.848  0.00  0.00    +0.000 A 
ATOM     12  C   UNL     1       1.829  14.446  19.142  0.00  0.00    +0.000 A 
BRANCH   6  13
ATOM     13  S   UNL     1      -0.696  17.612  18.533  0.00  0.00    +0.000 S 
ATOM     14  O   UNL     1      -0.235  18.630  19.455  0.00  0.00    +0.000 OA
ATOM     15  O   UNL     1      -0.518  17.728  17.103  0.00  0.00    +0.000 OA
BRANCH  13  16
ATOM     16  O   UNL     1      -2.278  17.500  18.824  0.00  0.00    +0.000 OA
ATOM     17  H   UNL     1      -2.485  16.550  18.945  0.00  0.00    +0.000 HD
ENDBRANCH  13  16
ENDBRANCH   6  13
BRANCH   4  18
ATOM     18  O   UNL     1      -1.202  13.188  20.881  0.00  0.00    +0.000 OA
ATOM     19  H   UNL     1      -0.767  12.328  21.037  0.00  0.00    +0.000 HD
ENDBRANCH   4  18
ENDBRANCH   2   3
BRANCH   1  24
ATOM     20  C   UNL     1       1.244   9.418  21.390  0.00  0.00    +0.000 A 
ATOM     21  N   UNL     1       1.449   8.101  21.292  0.00  0.00    +0.000 NA
ATOM     22  N   UNL     1       1.679   7.895  19.969  0.00  0.00    +0.000 N 
ATOM     23  C   UNL     1       1.484   9.050  19.216  0.00  0.00    +0.000 A 
ATOM     24  C   UNL     1       1.161  10.033  20.127  0.00  0.00    +0.000 A 
BRANCH  22  25
ATOM     25  C   UNL     1       2.083   6.607  19.526  0.00  0.00    +0.000 A 
ATOM     26  C   UNL     1       2.802   6.495  18.333  0.00  0.00    +0.000 A 
ATOM     27  C   UNL     1       3.173   5.236  17.861  0.00  0.00    +0.000 A 
ATOM     28  C   UNL     1       2.790   4.068  18.538  0.00  0.00    +0.000 A 
ATOM     29  C   UNL     1       3.139   2.735  17.932  0.00  0.00    +0.000 C 
ATOM     30  C   UNL     1       2.052   4.176  19.735  0.00  0.00    +0.000 A 
ATOM     31  C   UNL     1       1.542   2.975  20.489  0.00  0.00    +0.000 C 
ATOM     32  C   UNL     1       1.722   5.453  20.234  0.00  0.00    +0.000 A 
ENDBRANCH  22  25
BRANCH  23  33
ATOM     33  O   UNL     1       1.529   9.121  17.880  0.00  0.00    +0.000 OA
ATOM     34  H   UNL     1       1.292   8.256  17.499  0.00  0.00    +0.000 HD
ENDBRANCH  23  33
BRANCH  20  35
ATOM     35  O   UNL     1       1.066   9.969  22.616  0.00  0.00    +0.000 OA
BRANCH  35  37
ATOM     36  C   UNL     1      -1.178  10.691  23.144  0.00  0.00    +0.000 C 
ATOM     37  C   UNL     1      -0.162   9.564  23.238  0.00  0.00    +0.000 C 
ENDBRANCH  35  37
ENDBRANCH  20  35
ENDBRANCH   1  24
TORSDOF 9
ENDMDL
MODEL 6
REMARK VINA RESULT:      -7.9      4.366      9.937
REMARK  Name = 
REMARK  12 active torsions:
REMARK  status: ('A' for Active; 'I' for Inactive)
REMARK    1  A    between atoms: C_1  and  C_2
REMARK    2  A    between atoms: C_2  and  O_3
REMARK    3  A    between atoms: O_3  and  C_4
REMARK    4  A    between atoms: N_6  and  C_7
REMARK    5  A    between atoms: C_10  and  C_11
REMARK    6  A    between atoms: C_12  and  C_13
REMARK    7  A    between atoms: C_15  and  O_16
REMARK    8  A    between atoms: C_17  and  N_18
REMARK    9  A    between atoms: N_19  and  C_20
REMARK   10  A    between atoms: C_21  and  O_22
REMARK   11  A    between atoms: C_24  and  S_25
REMARK   12  A    between atoms: S_25  and  O_28
REMARK                            x       y       z     vdW  Elec       q    Type
REMARK                         _______ _______ _______ _____ _____    ______ ____
ROOT
ATOM      1  N   UNL     1       1.046   9.079  18.532  0.00  0.00    +0.000 NA
ATOM      2  N   UNL     1       1.422   8.252  19.379  0.00  0.00    +0.000 NA
ENDROOT
BRANCH   2   3
ATOM      3  C   UNL     1       2.466   7.395  18.916  0.00  0.00    +0.000 A 
ATOM      4  C   UNL     1       3.354   7.740  17.876  0.00  0.00    +0.000 A 
ATOM      5  C   UNL     1       4.296   6.844  17.390  0.00  0.00    +0.000 A 
ATOM      6  C   UNL     1       4.375   5.564  17.939  0.00  0.00    +0.000 A 
ATOM      7  C   UNL     1       3.538   5.162  19.011  0.00  0.00    +0.000 A 
ATOM      8  C   UNL     1       3.588   3.884  19.624  0.00  0.00    +0.000 A 
ATOM      9  C   UNL     1       2.768   3.547  20.700  0.00  0.00    +0.000 A 
ATOM     10  C   UNL     1       1.858   4.468  21.189  0.00  0.00    +0.000 A 
ATOM     11  C   UNL     1       1.763   5.723  20.589  0.00  0.00    +0.000 A 
ATOM     12  C   UNL     1       2.584   6.103  19.503  0.00  0.00    +0.000 A 
BRANCH   6  13
ATOM     13  S   UNL     1       5.576   4.452  17.248  0.00  0.00    +0.000 S 
ATOM     14  O   UNL     1       5.853   4.883  15.892  0.00  0.00    +0.000 OA
ATOM     15  O   UNL     1       6.622   4.269  18.228  0.00  0.00    +0.000 OA
BRANCH  13  16
ATOM     16  O   UNL     1       4.818   3.041  17.068  0.00  0.00    +0.000 OA
ATOM     17  H   UNL     1       4.120   3.169  16.392  0.00  0.00    +0.000 HD
ENDBRANCH  13  16
ENDBRANCH   6  13
BRANCH   4  18
ATOM     18  O   UNL     1       3.357   8.970  17.272  0.00  0.00    +0.000 OA
ATOM     19  H   UNL     1       4.225   9.378  17.455  0.00  0.00    +0.000 HD
ENDBRANCH   4  18
ENDBRANCH   2   3
BRANCH   1  24
ATOM     20  C   UNL     1      -1.054  10.554  18.435  0.00  0.00    +0.000 A 
ATOM     21  N   UNL     1      -1.725  11.307  19.311  0.00  0.00    +0.000 NA
ATOM     22  N   UNL     1      -0.879  11.426  20.369  0.00  0.00    +0.000 N 
ATOM     23  C   UNL     1       0.260  10.638  20.220  0.00  0.00    +0.000 A 
ATOM     24  C   UNL     1       0.133  10.037  18.986  0.00  0.00    +0.000 A 
BRANCH  22  25
ATOM     25  C   UNL     1      -1.221  12.296  21.438  0.00  0.00    +0.000 A 
ATOM     26  C   UNL     1      -0.369  13.360  21.744  0.00  0.00    +0.000 A 
ATOM     27  C   UNL     1      -0.666  14.203  22.815  0.00  0.00    +0.000 A 
ATOM     28  C   UNL     1      -1.785  13.969  23.631  0.00  0.00    +0.000 A 
ATOM     29  C   UNL     1      -2.004  14.855  24.828  0.00  0.00    +0.000 C 
ATOM     30  C   UNL     1      -2.640  12.887  23.334  0.00  0.00    +0.000 A 
ATOM     31  C   UNL     1      -3.822  12.523  24.194  0.00  0.00    +0.000 C 
ATOM     32  C   UNL     1      -2.361  12.069  22.220  0.00  0.00    +0.000 A 
ENDBRANCH  22  25
BRANCH  23  33
ATOM     33  O   UNL     1       1.209  10.467  21.148  0.00  0.00    +0.000 OA
ATOM     34  H   UNL     1       0.798  10.210  21.992  0.00  0.00    +0.000 HD
ENDBRANCH  23  33
BRANCH  20  35
ATOM     35  O   UNL     1      -1.598  10.316  17.217  0.00  0.00    +0.000 OA
BRANCH  35  37
ATOM     36  C   UNL     1      -3.309  10.818  15.586  0.00  0.00    +0.000 C 
ATOM     37  C   UNL     1      -2.614  11.265  16.862  0.00  0.00    +0.000 C 
ENDBRANCH  35  37
ENDBRANCH  20  35
ENDBRANCH   1  24
TORSDOF 9
ENDMDL
MODEL 7
REMARK VINA RESULT:      -7.8      3.762      9.463
REMARK  Name = 
REMARK  12 active torsions:
REMARK  status: ('A' for Active; 'I' for Inactive)
REMARK    1  A    between atoms: C_1  and  C_2
REMARK    2  A    between atoms: C_2  and  O_3
REMARK    3  A    between atoms: O_3  and  C_4
REMARK    4  A    between atoms: N_6  and  C_7
REMARK    5  A    between atoms: C_10  and  C_11
REMARK    6  A    between atoms: C_12  and  C_13
REMARK    7  A    between atoms: C_15  and  O_16
REMARK    8  A    between atoms: C_17  and  N_18
REMARK    9  A    between atoms: N_19  and  C_20
REMARK   10  A    between atoms: C_21  and  O_22
REMARK   11  A    between atoms: C_24  and  S_25
REMARK   12  A    between atoms: S_25  and  O_28
REMARK                            x       y       z     vdW  Elec       q    Type
REMARK                         _______ _______ _______ _____ _____    ______ ____
ROOT
ATOM      1  N   UNL     1       1.242   8.450  19.892  0.00  0.00    +0.000 NA
ATOM      2  N   UNL     1       2.373   7.938  19.893  0.00  0.00    +0.000 NA
ENDROOT
BRANCH   2   3
ATOM      3  C   UNL     1       2.390   6.589  19.428  0.00  0.00    +0.000 A 
ATOM      4  C   UNL     1       1.635   5.553  20.014  0.00  0.00    +0.000 A 
ATOM      5  C   UNL     1       1.749   4.235  19.594  0.00  0.00    +0.000 A 
ATOM      6  C   UNL     1       2.631   3.916  18.561  0.00  0.00    +0.000 A 
ATOM      7  C   UNL     1       3.394   4.913  17.902  0.00  0.00    +0.000 A 
ATOM      8  C   UNL     1       4.290   4.653  16.833  0.00  0.00    +0.000 A 
ATOM      9  C   UNL     1       4.992   5.672  16.191  0.00  0.00    +0.000 A 
ATOM     10  C   UNL     1       4.838   6.984  16.607  0.00  0.00    +0.000 A 
ATOM     11  C   UNL     1       3.990   7.269  17.675  0.00  0.00    +0.000 A 
ATOM     12  C   UNL     1       3.254   6.264  18.344  0.00  0.00    +0.000 A 
BRANCH   6  13
ATOM     13  S   UNL     1       2.759   2.207  18.094  0.00  0.00    +0.000 S 
ATOM     14  O   UNL     1       2.389   2.099  16.697  0.00  0.00    +0.000 OA
ATOM     15  O   UNL     1       4.016   1.705  18.600  0.00  0.00    +0.000 OA
BRANCH  13  16
ATOM     16  O   UNL     1       1.573   1.446  18.878  0.00  0.00    +0.000 OA
ATOM     17  H   UNL     1       1.489   0.553  18.483  0.00  0.00    +0.000 HD
ENDBRANCH  13  16
ENDBRANCH   6  13
BRANCH   4  18
ATOM     18  O   UNL     1       0.742   5.762  21.033  0.00  0.00    +0.000 OA
ATOM     19  H   UNL     1       0.188   4.961  21.098  0.00  0.00    +0.000 HD
ENDBRANCH   4  18
ENDBRANCH   2   3
BRANCH   1  24
ATOM     20  C   UNL     1       1.016  10.515  21.403  0.00  0.00    +0.000 A 
ATOM     21  N   UNL     1       1.251  11.823  21.263  0.00  0.00    +0.000 NA
ATOM     22  N   UNL     1       1.405  11.994  19.924  0.00  0.00    +0.000 N 
ATOM     23  C   UNL     1       1.405  10.783  19.236  0.00  0.00    +0.000 A 
ATOM     24  C   UNL     1       1.195   9.815  20.196  0.00  0.00    +0.000 A 
BRANCH  22  25
ATOM     25  C   UNL     1       1.526  13.310  19.401  0.00  0.00    +0.000 A 
ATOM     26  C   UNL     1       0.406  14.143  19.396  0.00  0.00    +0.000 A 
ATOM     27  C   UNL     1       0.494  15.425  18.851  0.00  0.00    +0.000 A 
ATOM     28  C   UNL     1       1.682  15.876  18.254  0.00  0.00    +0.000 A 
ATOM     29  C   UNL     1       1.692  17.232  17.600  0.00  0.00    +0.000 C 
ATOM     30  C   UNL     1       2.812  15.032  18.245  0.00  0.00    +0.000 A 
ATOM     31  C   UNL     1       4.104  15.409  17.568  0.00  0.00    +0.000 C 
ATOM     32  C   UNL     1       2.730  13.757  18.841  0.00  0.00    +0.000 A 
ENDBRANCH  22  25
BRANCH  23  33
ATOM     33  O   UNL     1       1.650  10.635  17.929  0.00  0.00    +0.000 OA
ATOM     34  H   UNL     1       1.504  11.482  17.471  0.00  0.00    +0.000 HD
ENDBRANCH  23  33
BRANCH  20  35
ATOM     35  O   UNL     1       0.730  10.024  22.634  0.00  0.00    +0.000 OA
BRANCH  35  37
ATOM     36  C   UNL     1      -1.408  11.033  23.126  0.00  0.00    +0.000 C 
ATOM     37  C   UNL     1      -0.665   9.744  22.816  0.00  0.00    +0.000 C 
ENDBRANCH  35  37
ENDBRANCH  20  35
ENDBRANCH   1  24
TORSDOF 9
ENDMDL
MODEL 8
REMARK VINA RESULT:      -7.7      4.370      9.998
REMARK  Name = 
REMARK  12 active torsions:
REMARK  status: ('A' for Active; 'I' for Inactive)
REMARK    1  A    between atoms: C_1  and  C_2
REMARK    2  A    between atoms: C_2  and  O_3
REMARK    3  A    between atoms: O_3  and  C_4
REMARK    4  A    between atoms: N_6  and  C_7
REMARK    5  A    between atoms: C_10  and  C_11
REMARK    6  A    between atoms: C_12  and  C_13
REMARK    7  A    between atoms: C_15  and  O_16
REMARK    8  A    between atoms: C_17  and  N_18
REMARK    9  A    between atoms: N_19  and  C_20
REMARK   10  A    between atoms: C_21  and  O_22
REMARK   11  A    between atoms: C_24  and  S_25
REMARK   12  A    between atoms: S_25  and  O_28
REMARK                            x       y       z     vdW  Elec       q    Type
REMARK                         _______ _______ _______ _____ _____    ______ ____
ROOT
ATOM      1  N   UNL     1       1.114   9.182  18.717  0.00  0.00    +0.000 NA
ATOM      2  N   UNL     1       1.358   8.205  19.443  0.00  0.00    +0.000 NA
ENDROOT
BRANCH   2   3
ATOM      3  C   UNL     1       2.426   7.389  18.963  0.00  0.00    +0.000 A 
ATOM      4  C   UNL     1       3.306   7.784  17.934  0.00  0.00    +0.000 A 
ATOM      5  C   UNL     1       4.274   6.927  17.430  0.00  0.00    +0.000 A 
ATOM      6  C   UNL     1       4.390   5.637  17.949  0.00  0.00    +0.000 A 
ATOM      7  C   UNL     1       3.562   5.186  19.009  0.00  0.00    +0.000 A 
ATOM      8  C   UNL     1       3.647   3.896  19.592  0.00  0.00    +0.000 A 
ATOM      9  C   UNL     1       2.835   3.510  20.658  0.00  0.00    +0.000 A 
ATOM     10  C   UNL     1       1.898   4.394  21.166  0.00  0.00    +0.000 A 
ATOM     11  C   UNL     1       1.768   5.658  20.595  0.00  0.00    +0.000 A 
ATOM     12  C   UNL     1       2.580   6.088  19.520  0.00  0.00    +0.000 A 
BRANCH   6  13
ATOM     13  S   UNL     1       5.623   4.576  17.236  0.00  0.00    +0.000 S 
ATOM     14  O   UNL     1       6.623   4.312  18.250  0.00  0.00    +0.000 OA
ATOM     15  O   UNL     1       4.938   3.515  16.533  0.00  0.00    +0.000 OA
BRANCH  13  16
ATOM     16  O   UNL     1       6.396   5.472  16.141  0.00  0.00    +0.000 OA
ATOM     17  H   UNL     1       6.033   6.381  16.199  0.00  0.00    +0.000 HD
ENDBRANCH  13  16
ENDBRANCH   6  13
BRANCH   4  18
ATOM     18  O   UNL     1       3.275   9.027  17.359  0.00  0.00    +0.000 OA
ATOM     19  H   UNL     1       2.798   9.616  17.974  0.00  0.00    +0.000 HD
ENDBRANCH   4  18
ENDBRANCH   2   3
BRANCH   1  24
ATOM     20  C   UNL     1      -1.078  10.521  18.754  0.00  0.00    +0.000 A 
ATOM     21  N   UNL     1      -1.727  11.252  19.665  0.00  0.00    +0.000 NA
ATOM     22  N   UNL     1      -0.813  11.449  20.651  0.00  0.00    +0.000 N 
ATOM     23  C   UNL     1       0.360  10.730  20.430  0.00  0.00    +0.000 A 
ATOM     24  C   UNL     1       0.179  10.093  19.221  0.00  0.00    +0.000 A 
BRANCH  22  25
ATOM     25  C   UNL     1      -1.126  12.322  21.726  0.00  0.00    +0.000 A 
ATOM     26  C   UNL     1      -2.197  12.006  22.566  0.00  0.00    +0.000 A 
ATOM     27  C   UNL     1      -2.546  12.870  23.604  0.00  0.00    +0.000 A 
ATOM     28  C   UNL     1      -1.871  14.087  23.789  0.00  0.00    +0.000 A 
ATOM     29  C   UNL     1      -2.351  15.022  24.867  0.00  0.00    +0.000 C 
ATOM     30  C   UNL     1      -0.798  14.416  22.935  0.00  0.00    +0.000 A 
ATOM     31  C   UNL     1      -0.064  15.729  23.020  0.00  0.00    +0.000 C 
ATOM     32  C   UNL     1      -0.419  13.516  21.919  0.00  0.00    +0.000 A 
ENDBRANCH  22  25
BRANCH  23  33
ATOM     33  O   UNL     1       1.386  10.641  21.284  0.00  0.00    +0.000 OA
ATOM     34  H   UNL     1       1.803  11.515  21.387  0.00  0.00    +0.000 HD
ENDBRANCH  23  33
BRANCH  20  35
ATOM     35  O   UNL     1      -1.697  10.220  17.586  0.00  0.00    +0.000 OA
BRANCH  35  37
ATOM     36  C   UNL     1      -2.939  10.972  15.656  0.00  0.00    +0.000 C 
ATOM     37  C   UNL     1      -2.453  11.317  17.054  0.00  0.00    +0.000 C 
ENDBRANCH  35  37
ENDBRANCH  20  35
ENDBRANCH   1  24
TORSDOF 9
ENDMDL
MODEL 9
REMARK VINA RESULT:      -7.7      1.329      1.850
REMARK  Name = 
REMARK  12 active torsions:
REMARK  status: ('A' for Active; 'I' for Inactive)
REMARK    1  A    between atoms: C_1  and  C_2
REMARK    2  A    between atoms: C_2  and  O_3
REMARK    3  A    between atoms: O_3  and  C_4
REMARK    4  A    between atoms: N_6  and  C_7
REMARK    5  A    between atoms: C_10  and  C_11
REMARK    6  A    between atoms: C_12  and  C_13
REMARK    7  A    between atoms: C_15  and  O_16
REMARK    8  A    between atoms: C_17  and  N_18
REMARK    9  A    between atoms: N_19  and  C_20
REMARK   10  A    between atoms: C_21  and  O_22
REMARK   11  A    between atoms: C_24  and  S_25
REMARK   12  A    between atoms: S_25  and  O_28
REMARK                            x       y       z     vdW  Elec       q    Type
REMARK                         _______ _______ _______ _____ _____    ______ ____
ROOT
ATOM      1  N   UNL     1       0.723  11.062  19.716  0.00  0.00    +0.000 NA
ATOM      2  N   UNL     1       1.425  11.908  19.140  0.00  0.00    +0.000 NA
ENDROOT
BRANCH   2   3
ATOM      3  C   UNL     1       0.913  13.237  19.235  0.00  0.00    +0.000 A 
ATOM      4  C   UNL     1      -0.210  13.693  18.513  0.00  0.00    +0.000 A 
ATOM      5  C   UNL     1      -0.622  15.017  18.560  0.00  0.00    +0.000 A 
ATOM      6  C   UNL     1       0.086  15.931  19.341  0.00  0.00    +0.000 A 
ATOM      7  C   UNL     1       1.202  15.534  20.120  0.00  0.00    +0.000 A 
ATOM      8  C   UNL     1       1.947  16.412  20.950  0.00  0.00    +0.000 A 
ATOM      9  C   UNL     1       3.016  15.967  21.726  0.00  0.00    +0.000 A 
ATOM     10  C   UNL     1       3.389  14.634  21.688  0.00  0.00    +0.000 A 
ATOM     11  C   UNL     1       2.697  13.752  20.861  0.00  0.00    +0.000 A 
ATOM     12  C   UNL     1       1.603  14.164  20.066  0.00  0.00    +0.000 A 
BRANCH   6  13
ATOM     13  S   UNL     1      -0.469  17.618  19.329  0.00  0.00    +0.000 S 
ATOM     14  O   UNL     1      -0.874  17.962  20.677  0.00  0.00    +0.000 OA
ATOM     15  O   UNL     1       0.502  18.396  18.593  0.00  0.00    +0.000 OA
BRANCH  13  16
ATOM     16  O   UNL     1      -1.845  17.624  18.488  0.00  0.00    +0.000 OA
ATOM     17  H   UNL     1      -2.338  16.813  18.731  0.00  0.00    +0.000 HD
ENDBRANCH  13  16
ENDBRANCH   6  13
BRANCH   4  18
ATOM     18  O   UNL     1      -0.971  12.875  17.719  0.00  0.00    +0.000 OA
ATOM     19  H   UNL     1      -1.832  13.318  17.594  0.00  0.00    +0.000 HD
ENDBRANCH   4  18
ENDBRANCH   2   3
BRANCH   1  24
ATOM     20  C   UNL     1       1.331   8.823  20.817  0.00  0.00    +0.000 A 
ATOM     21  N   UNL     1       1.746   7.632  20.378  0.00  0.00    +0.000 NA
ATOM     22  N   UNL     1       2.118   7.860  19.091  0.00  0.00    +0.000 N 
ATOM     23  C   UNL     1       1.809   9.154  18.677  0.00  0.00    +0.000 A 
ATOM     24  C   UNL     1       1.260   9.771  19.781  0.00  0.00    +0.000 A 
BRANCH  22  25
ATOM     25  C   UNL     1       2.753   6.824  18.356  0.00  0.00    +0.000 A 
ATOM     26  C   UNL     1       2.217   5.535  18.400  0.00  0.00    +0.000 A 
ATOM     27  C   UNL     1       2.849   4.495  17.717  0.00  0.00    +0.000 A 
ATOM     28  C   UNL     1       4.052   4.710  17.025  0.00  0.00    +0.000 A 
ATOM     29  C   UNL     1       4.737   3.532  16.385  0.00  0.00    +0.000 C 
ATOM     30  C   UNL     1       4.604   6.007  16.990  0.00  0.00    +0.000 A 
ATOM     31  C   UNL     1       5.923   6.313  16.329  0.00  0.00    +0.000 C 
ATOM     32  C   UNL     1       3.934   7.064  17.641  0.00  0.00    +0.000 A 
ENDBRANCH  22  25
BRANCH  23  33
ATOM     33  O   UNL     1       1.955   9.625  17.433  0.00  0.00    +0.000 OA
ATOM     34  H   UNL     1       1.165  10.138  17.183  0.00  0.00    +0.000 HD
ENDBRANCH  23  33
BRANCH  20  35
ATOM     35  O   UNL     1       0.966   8.956  22.116  0.00  0.00    +0.000 OA
BRANCH  35  37
ATOM     36  C   UNL     1      -0.835  10.230  23.100  0.00  0.00    +0.000 C 
ATOM     37  C   UNL     1      -0.457   8.997  22.297  0.00  0.00    +0.000 C 
ENDBRANCH  35  37
ENDBRANCH  20  35
ENDBRANCH   1  24
TORSDOF 9
ENDMDL
