MODEL 1
REMARK VINA RESULT:      -8.6      0.000      0.000
REMARK  Name = 
REMARK  4 active torsions:
REMARK  status: ('A' for Active; 'I' for Inactive)
REMARK    1  A    between atoms: C_1  and  C_2
REMARK    2  A    between atoms: C_6  and  C_7
REMARK    3  A    between atoms: N_14  and  C_15
REMARK    4  A    between atoms: C_19  and  C_20
REMARK                            x       y       z     vdW  Elec       q    Type
REMARK                         _______ _______ _______ _____ _____    ______ ____
ROOT
ATOM      1  C   UNL     1       0.545  10.565  20.665  0.00  0.00    +0.000 A 
ATOM      2  N   UNL     1       0.526  10.714  21.998  0.00  0.00    +0.000 NA
ATOM      3  S   UNL     1       1.018   9.253  22.651  0.00  0.00    +0.000 S 
ATOM      4  C   UNL     1       1.286   8.547  21.122  0.00  0.00    +0.000 A 
ATOM      5  N   UNL     1       1.786   7.274  21.087  0.00  0.00    +0.000 N 
ATOM      6  C   UNL     1       2.315   6.758  19.929  0.00  0.00    +0.000 C 
ATOM      7  O   UNL     1       2.415   7.337  18.853  0.00  0.00    +0.000 OA
ATOM      8  N   UNL     1       2.793   5.477  20.116  0.00  0.00    +0.000 N 
ATOM      9  N   UNL     1       0.968   9.345  20.143  0.00  0.00    +0.000 NA
ATOM     10  H   UNL     1       1.949   6.812  21.965  0.00  0.00    +0.000 HD
ATOM     11  H   UNL     1       2.442   4.959  20.908  0.00  0.00    +0.000 HD
ENDROOT
BRANCH   1  17
ATOM     12  C   UNL     1      -1.673  10.325  18.465  0.00  0.00    +0.000 C 
ATOM     13  C   UNL     1      -0.840  11.541  18.730  0.00  0.00    +0.000 A 
ATOM     14  C   UNL     1      -0.970  12.756  17.978  0.00  0.00    +0.000 A 
ATOM     15  C   UNL     1      -0.130  13.751  18.422  0.00  0.00    +0.000 A 
ATOM     16  S   UNL     1       0.811  13.241  19.751  0.00  0.00    +0.000 S 
ATOM     17  C   UNL     1       0.132  11.669  19.720  0.00  0.00    +0.000 A 
ENDBRANCH   1  17
BRANCH   8  18
ATOM     18  C   UNL     1       3.441   4.696  19.060  0.00  0.00    +0.000 C 
ATOM     19  C   UNL     1       2.526   3.732  18.326  0.00  0.00    +0.000 C 
ATOM     20  C   UNL     1       3.325   3.423  17.082  0.00  0.00    +0.000 C 
ATOM     21  O   UNL     1       4.055   4.606  16.745  0.00  0.00    +0.000 OA
ATOM     22  C   UNL     1       4.079   5.484  17.895  0.00  0.00    +0.000 C 
BRANCH  22  23
ATOM     23  C   UNL     1       5.500   5.933  18.163  0.00  0.00    +0.000 A 
ATOM     24  C   UNL     1       6.093   6.912  17.358  0.00  0.00    +0.000 A 
ATOM     25  C   UNL     1       7.416   7.260  17.593  0.00  0.00    +0.000 A 
ATOM     26  N   UNL     1       8.175   6.722  18.571  0.00  0.00    +0.000 NA
ATOM     27  C   UNL     1       7.587   5.785  19.342  0.00  0.00    +0.000 A 
ATOM     28  C   UNL     1       6.272   5.371  19.186  0.00  0.00    +0.000 A 
ENDBRANCH  22  23
ENDBRANCH   8  18
TORSDOF 3
ENDMDL
MODEL 2
REMARK VINA RESULT:      -8.4      0.815      1.585
REMARK  Name = 
REMARK  4 active torsions:
REMARK  status: ('A' for Active; 'I' for Inactive)
REMARK    1  A    between atoms: C_1  and  C_2
REMARK    2  A    between atoms: C_6  and  C_7
REMARK    3  A    between atoms: N_14  and  C_15
REMARK    4  A    between atoms: C_19  and  C_20
REMARK                            x       y       z     vdW  Elec       q    Type
REMARK                         _______ _______ _______ _____ _____    ______ ____
ROOT
ATOM      1  C   UNL     1       0.632  10.516  20.621  0.00  0.00    +0.000 A 
ATOM      2  N   UNL     1       0.631  10.680  21.952  0.00  0.00    +0.000 NA
ATOM      3  S   UNL     1       1.119   9.223  22.617  0.00  0.00    +0.000 S 
ATOM      4  C   UNL     1       1.362   8.497  21.093  0.00  0.00    +0.000 A 
ATOM      5  N   UNL     1       1.851   7.220  21.067  0.00  0.00    +0.000 N 
ATOM      6  C   UNL     1       2.361   6.685  19.908  0.00  0.00    +0.000 C 
ATOM      7  O   UNL     1       2.452   7.251  18.825  0.00  0.00    +0.000 OA
ATOM      8  N   UNL     1       2.831   5.403  20.105  0.00  0.00    +0.000 N 
ATOM      9  N   UNL     1       1.039   9.286  20.108  0.00  0.00    +0.000 NA
ATOM     10  H   UNL     1       2.021   6.767  21.948  0.00  0.00    +0.000 HD
ATOM     11  H   UNL     1       2.485   4.898  20.908  0.00  0.00    +0.000 HD
ENDROOT
BRANCH   1  17
ATOM     12  C   UNL     1       2.200  13.186  20.146  0.00  0.00    +0.000 C 
ATOM     13  C   UNL     1       0.911  12.805  19.484  0.00  0.00    +0.000 A 
ATOM     14  C   UNL     1       0.238  13.652  18.541  0.00  0.00    +0.000 A 
ATOM     15  C   UNL     1      -0.906  13.081  18.034  0.00  0.00    +0.000 A 
ATOM     16  S   UNL     1      -1.176  11.522  18.675  0.00  0.00    +0.000 S 
ATOM     17  C   UNL     1       0.216  11.613  19.668  0.00  0.00    +0.000 A 
ENDBRANCH   1  17
BRANCH   8  18
ATOM     18  C   UNL     1       3.459   4.604  19.050  0.00  0.00    +0.000 C 
ATOM     19  C   UNL     1       2.530   3.627  18.351  0.00  0.00    +0.000 C 
ATOM     20  C   UNL     1       3.306   3.297  17.097  0.00  0.00    +0.000 C 
ATOM     21  O   UNL     1       4.027   4.475  16.726  0.00  0.00    +0.000 OA
ATOM     22  C   UNL     1       4.073   5.372  17.860  0.00  0.00    +0.000 C 
BRANCH  22  23
ATOM     23  C   UNL     1       5.499   5.827  18.092  0.00  0.00    +0.000 A 
ATOM     24  C   UNL     1       6.247   5.291  19.145  0.00  0.00    +0.000 A 
ATOM     25  C   UNL     1       7.530   5.772  19.367  0.00  0.00    +0.000 A 
ATOM     26  N   UNL     1       8.120   6.722  18.612  0.00  0.00    +0.000 NA
ATOM     27  C   UNL     1       7.389   7.224  17.596  0.00  0.00    +0.000 A 
ATOM     28  C   UNL     1       6.100   6.809  17.295  0.00  0.00    +0.000 A 
ENDBRANCH  22  23
ENDBRANCH   8  18
TORSDOF 3
ENDMDL
MODEL 3
REMARK VINA RESULT:      -8.2      3.354      8.044
REMARK  Name = 
REMARK  4 active torsions:
REMARK  status: ('A' for Active; 'I' for Inactive)
REMARK    1  A    between atoms: C_1  and  C_2
REMARK    2  A    between atoms: C_6  and  C_7
REMARK    3  A    between atoms: N_14  and  C_15
REMARK    4  A    between atoms: C_19  and  C_20
REMARK                            x       y       z     vdW  Elec       q    Type
REMARK                         _______ _______ _______ _____ _____    ______ ____
ROOT
ATOM      1  C   UNL     1       4.523   5.357  17.911  0.00  0.00    +0.000 A 
ATOM      2  N   UNL     1       4.253   4.433  18.843  0.00  0.00    +0.000 NA
ATOM      3  S   UNL     1       3.150   5.121  19.898  0.00  0.00    +0.000 S 
ATOM      4  C   UNL     1       3.056   6.572  19.006  0.00  0.00    +0.000 A 
ATOM      5  N   UNL     1       2.182   7.531  19.442  0.00  0.00    +0.000 N 
ATOM      6  C   UNL     1       1.822   8.576  18.626  0.00  0.00    +0.000 C 
ATOM      7  O   UNL     1       2.198   8.764  17.475  0.00  0.00    +0.000 OA
ATOM      8  N   UNL     1       0.910   9.409  19.242  0.00  0.00    +0.000 N 
ATOM      9  N   UNL     1       3.860   6.581  17.982  0.00  0.00    +0.000 NA
ATOM     10  H   UNL     1       1.658   7.340  20.278  0.00  0.00    +0.000 HD
ATOM     11  H   UNL     1       0.854   9.376  20.249  0.00  0.00    +0.000 HD
ENDROOT
BRANCH   1  17
ATOM     12  C   UNL     1       7.397   6.592  17.734  0.00  0.00    +0.000 C 
ATOM     13  C   UNL     1       6.774   5.691  16.713  0.00  0.00    +0.000 A 
ATOM     14  C   UNL     1       7.447   5.293  15.509  0.00  0.00    +0.000 A 
ATOM     15  C   UNL     1       6.697   4.432  14.740  0.00  0.00    +0.000 A 
ATOM     16  S   UNL     1       5.190   4.086  15.460  0.00  0.00    +0.000 S 
ATOM     17  C   UNL     1       5.508   5.116  16.790  0.00  0.00    +0.000 A 
ENDBRANCH   1  17
BRANCH   8  18
ATOM     18  C   UNL     1       0.326  10.585  18.593  0.00  0.00    +0.000 C 
ATOM     19  C   UNL     1      -1.089  10.393  18.078  0.00  0.00    +0.000 C 
ATOM     20  C   UNL     1      -1.549  11.819  17.881  0.00  0.00    +0.000 C 
ATOM     21  O   UNL     1      -0.923  12.608  18.896  0.00  0.00    +0.000 OA
ATOM     22  C   UNL     1       0.186  11.862  19.450  0.00  0.00    +0.000 C 
BRANCH  22  23
ATOM     23  C   UNL     1       1.426  12.731  19.467  0.00  0.00    +0.000 A 
ATOM     24  C   UNL     1       1.822  13.372  20.645  0.00  0.00    +0.000 A 
ATOM     25  C   UNL     1       2.930  14.208  20.612  0.00  0.00    +0.000 A 
ATOM     26  N   UNL     1       3.673  14.432  19.509  0.00  0.00    +0.000 NA
ATOM     27  C   UNL     1       3.283  13.801  18.383  0.00  0.00    +0.000 A 
ATOM     28  C   UNL     1       2.191  12.947  18.314  0.00  0.00    +0.000 A 
ENDBRANCH  22  23
ENDBRANCH   8  18
TORSDOF 3
ENDMDL
MODEL 4
REMARK VINA RESULT:      -8.2      3.257      8.724
REMARK  Name = 
REMARK  4 active torsions:
REMARK  status: ('A' for Active; 'I' for Inactive)
REMARK    1  A    between atoms: C_1  and  C_2
REMARK    2  A    between atoms: C_6  and  C_7
REMARK    3  A    between atoms: N_14  and  C_15
REMARK    4  A    between atoms: C_19  and  C_20
REMARK                            x       y       z     vdW  Elec       q    Type
REMARK                         _______ _______ _______ _____ _____    ______ ____
ROOT
ATOM      1  C   UNL     1       2.960   5.512  18.686  0.00  0.00    +0.000 A 
ATOM      2  N   UNL     1       4.078   5.474  17.946  0.00  0.00    +0.000 NA
ATOM      3  S   UNL     1       4.238   6.983  17.238  0.00  0.00    +0.000 S 
ATOM      4  C   UNL     1       2.852   7.603  18.016  0.00  0.00    +0.000 A 
ATOM      5  N   UNL     1       2.541   8.918  17.807  0.00  0.00    +0.000 N 
ATOM      6  C   UNL     1       1.644   9.566  18.622  0.00  0.00    +0.000 C 
ATOM      7  O   UNL     1       1.060   9.086  19.587  0.00  0.00    +0.000 OA
ATOM      8  N   UNL     1       1.497  10.890  18.263  0.00  0.00    +0.000 N 
ATOM      9  N   UNL     1       2.245   6.707  18.740  0.00  0.00    +0.000 NA
ATOM     10  H   UNL     1       3.132   9.446  17.188  0.00  0.00    +0.000 HD
ATOM     11  H   UNL     1       1.767  11.152  17.326  0.00  0.00    +0.000 HD
ENDROOT
BRANCH   1  17
ATOM     12  C   UNL     1       2.418   2.672  17.479  0.00  0.00    +0.000 C 
ATOM     13  C   UNL     1       2.200   3.065  18.908  0.00  0.00    +0.000 A 
ATOM     14  C   UNL     1       1.700   2.157  19.900  0.00  0.00    +0.000 A 
ATOM     15  C   UNL     1       1.618   2.726  21.150  0.00  0.00    +0.000 A 
ATOM     16  S   UNL     1       2.152   4.347  21.147  0.00  0.00    +0.000 S 
ATOM     17  C   UNL     1       2.460   4.316  19.463  0.00  0.00    +0.000 A 
ENDBRANCH   1  17
BRANCH   8  18
ATOM     18  C   UNL     1       0.631  11.828  18.980  0.00  0.00    +0.000 C 
ATOM     19  C   UNL     1       1.347  13.017  19.596  0.00  0.00    +0.000 C 
ATOM     20  C   UNL     1       0.207  13.972  19.858  0.00  0.00    +0.000 C 
ATOM     21  O   UNL     1      -0.754  13.778  18.816  0.00  0.00    +0.000 OA
ATOM     22  C   UNL     1      -0.487  12.515  18.164  0.00  0.00    +0.000 C 
BRANCH  22  23
ATOM     23  C   UNL     1      -1.766  11.708  18.073  0.00  0.00    +0.000 A 
ATOM     24  C   UNL     1      -1.804  10.529  17.322  0.00  0.00    +0.000 A 
ATOM     25  C   UNL     1      -3.006   9.845  17.211  0.00  0.00    +0.000 A 
ATOM     26  N   UNL     1      -4.154  10.236  17.803  0.00  0.00    +0.000 NA
ATOM     27  C   UNL     1      -4.099  11.371  18.530  0.00  0.00    +0.000 A 
ATOM     28  C   UNL     1      -2.946  12.124  18.700  0.00  0.00    +0.000 A 
ENDBRANCH  22  23
ENDBRANCH   8  18
TORSDOF 3
ENDMDL
MODEL 5
REMARK VINA RESULT:      -8.0      2.451      4.221
REMARK  Name = 
REMARK  4 active torsions:
REMARK  status: ('A' for Active; 'I' for Inactive)
REMARK    1  A    between atoms: C_1  and  C_2
REMARK    2  A    between atoms: C_6  and  C_7
REMARK    3  A    between atoms: N_14  and  C_15
REMARK    4  A    between atoms: C_19  and  C_20
REMARK                            x       y       z     vdW  Elec       q    Type
REMARK                         _______ _______ _______ _____ _____    ______ ____
ROOT
ATOM      1  C   UNL     1      -1.008  11.398  18.288  0.00  0.00    +0.000 A 
ATOM      2  N   UNL     1      -0.442  12.496  18.810  0.00  0.00    +0.000 NA
ATOM      3  S   UNL     1       1.105  12.063  19.279  0.00  0.00    +0.000 S 
ATOM      4  C   UNL     1       0.941  10.469  18.696  0.00  0.00    +0.000 A 
ATOM      5  N   UNL     1       2.028   9.642  18.791  0.00  0.00    +0.000 N 
ATOM      6  C   UNL     1       2.082   8.468  18.078  0.00  0.00    +0.000 C 
ATOM      7  O   UNL     1       1.229   8.047  17.305  0.00  0.00    +0.000 OA
ATOM      8  N   UNL     1       3.272   7.802  18.287  0.00  0.00    +0.000 N 
ATOM      9  N   UNL     1      -0.246  10.234  18.215  0.00  0.00    +0.000 NA
ATOM     10  H   UNL     1       2.859  10.010  19.219  0.00  0.00    +0.000 HD
ATOM     11  H   UNL     1       3.796   8.034  19.118  0.00  0.00    +0.000 HD
ENDROOT
BRANCH   1  17
ATOM     12  C   UNL     1      -3.516  12.395  19.879  0.00  0.00    +0.000 C 
ATOM     13  C   UNL     1      -3.538  11.808  18.501  0.00  0.00    +0.000 A 
ATOM     14  C   UNL     1      -4.746  11.630  17.747  0.00  0.00    +0.000 A 
ATOM     15  C   UNL     1      -4.520  11.109  16.494  0.00  0.00    +0.000 A 
ATOM     16  S   UNL     1      -2.860  10.842  16.207  0.00  0.00    +0.000 S 
ATOM     17  C   UNL     1      -2.429  11.383  17.773  0.00  0.00    +0.000 A 
ENDBRANCH   1  17
BRANCH   8  18
ATOM     18  C   UNL     1       3.616   6.540  17.629  0.00  0.00    +0.000 C 
ATOM     19  C   UNL     1       4.795   6.618  16.676  0.00  0.00    +0.000 C 
ATOM     20  C   UNL     1       5.165   5.163  16.511  0.00  0.00    +0.000 C 
ATOM     21  O   UNL     1       4.891   4.515  17.756  0.00  0.00    +0.000 OA
ATOM     22  C   UNL     1       4.017   5.360  18.540  0.00  0.00    +0.000 C 
BRANCH  22  23
ATOM     23  C   UNL     1       2.843   4.548  19.047  0.00  0.00    +0.000 A 
ATOM     24  C   UNL     1       2.484   4.595  20.398  0.00  0.00    +0.000 A 
ATOM     25  C   UNL     1       1.441   3.794  20.841  0.00  0.00    +0.000 A 
ATOM     26  N   UNL     1       0.727   2.975  20.042  0.00  0.00    +0.000 NA
ATOM     27  C   UNL     1       1.080   2.946  18.740  0.00  0.00    +0.000 A 
ATOM     28  C   UNL     1       2.107   3.708  18.202  0.00  0.00    +0.000 A 
ENDBRANCH  22  23
ENDBRANCH   8  18
TORSDOF 3
ENDMDL
MODEL 6
REMARK VINA RESULT:      -7.9      3.377      8.688
REMARK  Name = 
REMARK  4 active torsions:
REMARK  status: ('A' for Active; 'I' for Inactive)
REMARK    1  A    between atoms: C_1  and  C_2
REMARK    2  A    between atoms: C_6  and  C_7
REMARK    3  A    between atoms: N_14  and  C_15
REMARK    4  A    between atoms: C_19  and  C_20
REMARK                            x       y       z     vdW  Elec       q    Type
REMARK                         _______ _______ _______ _____ _____    ______ ____
ROOT
ATOM      1  C   UNL     1       2.996   5.457  18.098  0.00  0.00    +0.000 A 
ATOM      2  N   UNL     1       4.153   5.513  17.424  0.00  0.00    +0.000 NA
ATOM      3  S   UNL     1       4.358   7.107  16.954  0.00  0.00    +0.000 S 
ATOM      4  C   UNL     1       2.933   7.624  17.735  0.00  0.00    +0.000 A 
ATOM      5  N   UNL     1       2.638   8.959  17.702  0.00  0.00    +0.000 N 
ATOM      6  C   UNL     1       1.699   9.492  18.552  0.00  0.00    +0.000 C 
ATOM      7  O   UNL     1       1.059   8.885  19.403  0.00  0.00    +0.000 OA
ATOM      8  N   UNL     1       1.578  10.856  18.382  0.00  0.00    +0.000 N 
ATOM      9  N   UNL     1       2.283   6.639  18.286  0.00  0.00    +0.000 NA
ATOM     10  H   UNL     1       3.265   9.564  17.201  0.00  0.00    +0.000 HD
ATOM     11  H   UNL     1       1.901  11.248  17.510  0.00  0.00    +0.000 HD
ENDROOT
BRANCH   1  17
ATOM     12  C   UNL     1       1.716   5.129  20.939  0.00  0.00    +0.000 C 
ATOM     13  C   UNL     1       1.903   4.031  19.938  0.00  0.00    +0.000 A 
ATOM     14  C   UNL     1       1.509   2.673  20.186  0.00  0.00    +0.000 A 
ATOM     15  C   UNL     1       1.742   1.846  19.111  0.00  0.00    +0.000 A 
ATOM     16  S   UNL     1       2.421   2.692  17.794  0.00  0.00    +0.000 S 
ATOM     17  C   UNL     1       2.448   4.167  18.664  0.00  0.00    +0.000 A 
ENDBRANCH   1  17
BRANCH   8  18
ATOM     18  C   UNL     1       0.675  11.690  19.178  0.00  0.00    +0.000 C 
ATOM     19  C   UNL     1       1.353  12.806  19.952  0.00  0.00    +0.000 C 
ATOM     20  C   UNL     1       0.190  13.708  20.291  0.00  0.00    +0.000 C 
ATOM     21  O   UNL     1      -0.737  13.627  19.205  0.00  0.00    +0.000 OA
ATOM     22  C   UNL     1      -0.430  12.454  18.416  0.00  0.00    +0.000 C 
BRANCH  22  23
ATOM     23  C   UNL     1      -1.692  11.647  18.192  0.00  0.00    +0.000 A 
ATOM     24  C   UNL     1      -1.656  10.483  17.416  0.00  0.00    +0.000 A 
ATOM     25  C   UNL     1      -2.840   9.798  17.182  0.00  0.00    +0.000 A 
ATOM     26  N   UNL     1      -4.039  10.175  17.673  0.00  0.00    +0.000 NA
ATOM     27  C   UNL     1      -4.056  11.295  18.425  0.00  0.00    +0.000 A 
ATOM     28  C   UNL     1      -2.927  12.047  18.715  0.00  0.00    +0.000 A 
ENDBRANCH  22  23
ENDBRANCH   8  18
TORSDOF 3
ENDMDL
MODEL 7
REMARK VINA RESULT:      -7.9      2.507      4.132
REMARK  Name = 
REMARK  4 active torsions:
REMARK  status: ('A' for Active; 'I' for Inactive)
REMARK    1  A    between atoms: C_1  and  C_2
REMARK    2  A    between atoms: C_6  and  C_7
REMARK    3  A    between atoms: N_14  and  C_15
REMARK    4  A    between atoms: C_19  and  C_20
REMARK                            x       y       z     vdW  Elec       q    Type
REMARK                         _______ _______ _______ _____ _____    ______ ____
ROOT
ATOM      1  C   UNL     1      -0.894  11.538  18.491  0.00  0.00    +0.000 A 
ATOM      2  N   UNL     1      -0.284  12.708  18.733  0.00  0.00    +0.000 NA
ATOM      3  S   UNL     1       1.351  12.378  18.869  0.00  0.00    +0.000 S 
ATOM      4  C   UNL     1       1.145  10.719  18.531  0.00  0.00    +0.000 A 
ATOM      5  N   UNL     1       2.268   9.940  18.460  0.00  0.00    +0.000 N 
ATOM      6  C   UNL     1       2.219   8.687  17.896  0.00  0.00    +0.000 C 
ATOM      7  O   UNL     1       1.235   8.150  17.403  0.00  0.00    +0.000 OA
ATOM      8  N   UNL     1       3.460   8.084  17.894  0.00  0.00    +0.000 N 
ATOM      9  N   UNL     1      -0.107  10.395  18.375  0.00  0.00    +0.000 NA
ATOM     10  H   UNL     1       3.154  10.381  18.634  0.00  0.00    +0.000 HD
ATOM     11  H   UNL     1       4.149   8.433  18.544  0.00  0.00    +0.000 HD
ENDROOT
BRANCH   1  17
ATOM     12  C   UNL     1      -2.354   9.952  16.217  0.00  0.00    +0.000 C 
ATOM     13  C   UNL     1      -3.028  10.733  17.304  0.00  0.00    +0.000 A 
ATOM     14  C   UNL     1      -4.455  10.843  17.415  0.00  0.00    +0.000 A 
ATOM     15  C   UNL     1      -4.848  11.576  18.512  0.00  0.00    +0.000 A 
ATOM     16  S   UNL     1      -3.513  12.125  19.421  0.00  0.00    +0.000 S 
ATOM     17  C   UNL     1      -2.393  11.422  18.334  0.00  0.00    +0.000 A 
ENDBRANCH   1  17
BRANCH   8  18
ATOM     18  C   UNL     1       3.711   6.759  17.324  0.00  0.00    +0.000 C 
ATOM     19  C   UNL     1       4.850   6.700  16.322  0.00  0.00    +0.000 C 
ATOM     20  C   UNL     1       5.138   5.218  16.258  0.00  0.00    +0.000 C 
ATOM     21  O   UNL     1       4.886   4.683  17.559  0.00  0.00    +0.000 OA
ATOM     22  C   UNL     1       4.091   5.632  18.309  0.00  0.00    +0.000 C 
BRANCH  22  23
ATOM     23  C   UNL     1       2.901   4.925  18.924  0.00  0.00    +0.000 A 
ATOM     24  C   UNL     1       2.632   5.058  20.290  0.00  0.00    +0.000 A 
ATOM     25  C   UNL     1       1.568   4.350  20.834  0.00  0.00    +0.000 A 
ATOM     26  N   UNL     1       0.753   3.547  20.120  0.00  0.00    +0.000 NA
ATOM     27  C   UNL     1       1.021   3.436  18.802  0.00  0.00    +0.000 A 
ATOM     28  C   UNL     1       2.060   4.101  18.167  0.00  0.00    +0.000 A 
ENDBRANCH  22  23
ENDBRANCH   8  18
TORSDOF 3
ENDMDL
MODEL 8
REMARK VINA RESULT:      -7.8      2.783      8.325
REMARK  Name = 
REMARK  4 active torsions:
REMARK  status: ('A' for Active; 'I' for Inactive)
REMARK    1  A    between atoms: C_1  and  C_2
REMARK    2  A    between atoms: C_6  and  C_7
REMARK    3  A    between atoms: N_14  and  C_15
REMARK    4  A    between atoms: C_19  and  C_20
REMARK                            x       y       z     vdW  Elec       q    Type
REMARK                         _______ _______ _______ _____ _____    ______ ____
ROOT
ATOM      1  C   UNL     1       3.791   5.108  19.383  0.00  0.00    +0.000 A 
ATOM      2  N   UNL     1       3.137   4.055  19.895  0.00  0.00    +0.000 NA
ATOM      3  S   UNL     1       1.832   4.667  20.747  0.00  0.00    +0.000 S 
ATOM      4  C   UNL     1       2.185   6.281  20.320  0.00  0.00    +0.000 A 
ATOM      5  N   UNL     1       1.324   7.255  20.747  0.00  0.00    +0.000 N 
ATOM      6  C   UNL     1       1.359   8.514  20.197  0.00  0.00    +0.000 C 
ATOM      7  O   UNL     1       2.105   8.896  19.303  0.00  0.00    +0.000 OA
ATOM      8  N   UNL     1       0.391   9.331  20.741  0.00  0.00    +0.000 N 
ATOM      9  N   UNL     1       3.273   6.382  19.611  0.00  0.00    +0.000 NA
ATOM     10  H   UNL     1       0.540   6.971  21.309  0.00  0.00    +0.000 HD
ATOM     11  H   UNL     1       0.009   9.069  21.639  0.00  0.00    +0.000 HD
ENDROOT
BRANCH   1  17
ATOM     12  C   UNL     1       3.943   3.909  16.492  0.00  0.00    +0.000 C 
ATOM     13  C   UNL     1       5.110   4.403  17.291  0.00  0.00    +0.000 A 
ATOM     14  C   UNL     1       6.459   4.372  16.802  0.00  0.00    +0.000 A 
ATOM     15  C   UNL     1       7.360   4.914  17.691  0.00  0.00    +0.000 A 
ATOM     16  S   UNL     1       6.594   5.473  19.109  0.00  0.00    +0.000 S 
ATOM     17  C   UNL     1       5.054   4.961  18.566  0.00  0.00    +0.000 A 
ENDBRANCH   1  17
BRANCH   8  18
ATOM     18  C   UNL     1       0.175  10.717  20.320  0.00  0.00    +0.000 C 
ATOM     19  C   UNL     1       1.290  11.679  20.693  0.00  0.00    +0.000 C 
ATOM     20  C   UNL     1       1.008  12.855  19.788  0.00  0.00    +0.000 C 
ATOM     21  O   UNL     1       0.466  12.332  18.572  0.00  0.00    +0.000 OA
ATOM     22  C   UNL     1       0.024  10.974  18.804  0.00  0.00    +0.000 C 
BRANCH  22  23
ATOM     23  C   UNL     1      -1.392  10.806  18.291  0.00  0.00    +0.000 A 
ATOM     24  C   UNL     1      -1.670   9.872  17.287  0.00  0.00    +0.000 A 
ATOM     25  C   UNL     1      -2.967   9.783  16.798  0.00  0.00    +0.000 A 
ATOM     26  N   UNL     1      -3.994  10.535  17.244  0.00  0.00    +0.000 NA
ATOM     27  C   UNL     1      -3.711  11.425  18.217  0.00  0.00    +0.000 A 
ATOM     28  C   UNL     1      -2.449  11.588  18.770  0.00  0.00    +0.000 A 
ENDBRANCH  22  23
ENDBRANCH   8  18
TORSDOF 3
ENDMDL
MODEL 9
REMARK VINA RESULT:      -7.8      2.803      8.355
REMARK  Name = 
REMARK  4 active torsions:
REMARK  status: ('A' for Active; 'I' for Inactive)
REMARK    1  A    between atoms: C_1  and  C_2
REMARK    2  A    between atoms: C_6  and  C_7
REMARK    3  A    between atoms: N_14  and  C_15
REMARK    4  A    between atoms: C_19  and  C_20
REMARK                            x       y       z     vdW  Elec       q    Type
REMARK                         _______ _______ _______ _____ _____    ______ ____
ROOT
ATOM      1  C   UNL     1       3.532   4.977  19.051  0.00  0.00    +0.000 A 
ATOM      2  N   UNL     1       2.949   3.990  19.748  0.00  0.00    +0.000 NA
ATOM      3  S   UNL     1       1.862   4.717  20.793  0.00  0.00    +0.000 S 
ATOM      4  C   UNL     1       2.190   6.283  20.202  0.00  0.00    +0.000 A 
ATOM      5  N   UNL     1       1.470   7.324  20.722  0.00  0.00    +0.000 N 
ATOM      6  C   UNL     1       1.449   8.546  20.095  0.00  0.00    +0.000 C 
ATOM      7  O   UNL     1       2.020   8.839  19.051  0.00  0.00    +0.000 OA
ATOM      8  N   UNL     1       0.640   9.443  20.761  0.00  0.00    +0.000 N 
ATOM      9  N   UNL     1       3.122   6.287  19.292  0.00  0.00    +0.000 NA
ATOM     10  H   UNL     1       0.801   7.114  21.442  0.00  0.00    +0.000 HD
ATOM     11  H   UNL     1       0.431   9.253  21.731  0.00  0.00    +0.000 HD
ENDROOT
BRANCH   1  17
ATOM     12  C   UNL     1       6.598   5.477  19.462  0.00  0.00    +0.000 C 
ATOM     13  C   UNL     1       5.961   4.967  18.206  0.00  0.00    +0.000 A 
ATOM     14  C   UNL     1       6.710   4.650  17.023  0.00  0.00    +0.000 A 
ATOM     15  C   UNL     1       5.921   4.162  16.007  0.00  0.00    +0.000 A 
ATOM     16  S   UNL     1       4.281   4.067  16.467  0.00  0.00    +0.000 S 
ATOM     17  C   UNL     1       4.604   4.717  18.018  0.00  0.00    +0.000 A 
ENDBRANCH   1  17
BRANCH   8  18
ATOM     18  C   UNL     1       0.403  10.813  20.300  0.00  0.00    +0.000 C 
ATOM     19  C   UNL     1       1.526  11.790  20.598  0.00  0.00    +0.000 C 
ATOM     20  C   UNL     1       1.206  12.933  19.664  0.00  0.00    +0.000 C 
ATOM     21  O   UNL     1       0.623  12.366  18.488  0.00  0.00    +0.000 OA
ATOM     22  C   UNL     1       0.195  11.016  18.783  0.00  0.00    +0.000 C 
BRANCH  22  23
ATOM     23  C   UNL     1      -1.237  10.825  18.328  0.00  0.00    +0.000 A 
ATOM     24  C   UNL     1      -1.550   9.846  17.379  0.00  0.00    +0.000 A 
ATOM     25  C   UNL     1      -2.862   9.736  16.940  0.00  0.00    +0.000 A 
ATOM     26  N   UNL     1      -3.874  10.508  17.386  0.00  0.00    +0.000 NA
ATOM     27  C   UNL     1      -3.557  11.443  18.306  0.00  0.00    +0.000 A 
ATOM     28  C   UNL     1      -2.277  11.630  18.806  0.00  0.00    +0.000 A 
ENDBRANCH  22  23
ENDBRANCH   8  18
TORSDOF 3
ENDMDL
