MODEL 1
REMARK VINA RESULT:      -7.4      0.000      0.000
REMARK  Name = 
REMARK  12 active torsions:
REMARK  status: ('A' for Active; 'I' for Inactive)
REMARK    1  A    between atoms: C_1  and  O_2
REMARK    2  A    between atoms: O_2  and  C_3
REMARK    3  A    between atoms: C_5  and  C_6
REMARK    4  A    between atoms: C_7  and  C_8
REMARK    5  A    between atoms: C_8  and  C_10
REMARK    6  A    between atoms: C_19  and  O_20
REMARK    7  A    between atoms: N_23  and  C_24
REMARK    8  A    between atoms: C_24  and  C_25
REMARK    9  A    between atoms: C_25  and  N_26
REMARK   10  A    between atoms: N_26  and  C_27
REMARK   11  A    between atoms: N_26  and  C_28
REMARK   12  A    between atoms: C_31  and  O_32
REMARK                            x       y       z     vdW  Elec       q    Type
REMARK                         _______ _______ _______ _____ _____    ______ ____
ROOT
ATOM      1  C   UNL     1       3.243   6.337  19.069  0.00  0.00    +0.000 C 
ATOM      2  C   UNL     1       4.271   6.454  17.990  0.00  0.00    +0.000 C 
ATOM      3  C   UNL     1       4.058   7.506  17.186  0.00  0.00    +0.000 C 
ATOM      4  C   UNL     1       2.879   8.233  17.716  0.00  0.00    +0.000 C 
ATOM      5  O   UNL     1       2.397   9.246  17.245  0.00  0.00    +0.000 OA
ATOM      6  N   UNL     1       2.453   7.532  18.828  0.00  0.00    +0.000 N 
ENDROOT
BRANCH   1   9
ATOM      7  C   UNL     1       1.275   3.169  20.079  0.00  0.00    +0.000 A 
ATOM      8  C   UNL     1       1.996   4.371  20.155  0.00  0.00    +0.000 A 
ATOM      9  C   UNL     1       2.369   5.091  19.005  0.00  0.00    +0.000 A 
ATOM     10  C   UNL     1       1.993   4.574  17.758  0.00  0.00    +0.000 A 
ATOM     11  C   UNL     1       1.298   3.367  17.664  0.00  0.00    +0.000 A 
ATOM     12  C   UNL     1       0.944   2.664  18.819  0.00  0.00    +0.000 A 
BRANCH   7  14
ATOM     13  C   UNL     1       2.073   2.511  22.236  0.00  0.00    +0.000 C 
ATOM     14  O   UNL     1       1.005   2.637  21.309  0.00  0.00    +0.000 OA
ENDBRANCH   7  14
BRANCH  12  15
ATOM     15  O   UNL     1       0.280   1.478  18.674  0.00  0.00    +0.000 OA
ATOM     16  H   UNL     1       0.924   0.758  18.584  0.00  0.00    +0.000 HD
ENDBRANCH  12  15
ENDBRANCH   1   9
BRANCH   2  17
ATOM     17  C   UNL     1       5.401   5.533  17.755  0.00  0.00    +0.000 C 
ATOM     18  O   UNL     1       6.020   5.130  18.747  0.00  0.00    +0.000 OA
BRANCH  17  19
ATOM     19  C   UNL     1       5.735   5.077  16.421  0.00  0.00    +0.000 A 
ATOM     20  C   UNL     1       5.102   4.139  15.624  0.00  0.00    +0.000 A 
ATOM     21  C   UNL     1       5.784   4.120  14.381  0.00  0.00    +0.000 A 
ATOM     22  C   UNL     1       5.639   3.434  13.164  0.00  0.00    +0.000 A 
ATOM     23  C   UNL     1       6.540   3.710  12.126  0.00  0.00    +0.000 A 
ATOM     24  C   UNL     1       7.574   4.636  12.295  0.00  0.00    +0.000 A 
ATOM     25  C   UNL     1       7.737   5.326  13.503  0.00  0.00    +0.000 A 
ATOM     26  C   UNL     1       6.818   5.042  14.506  0.00  0.00    +0.000 A 
ATOM     27  O   UNL     1       6.785   5.620  15.737  0.00  0.00    +0.000 OA
ENDBRANCH  17  19
ENDBRANCH   2  17
BRANCH   3  28
ATOM     28  O   UNL     1       4.760   7.892  16.076  0.00  0.00    +0.000 OA
ATOM     29  H   UNL     1       5.179   7.091  15.698  0.00  0.00    +0.000 HD
ENDBRANCH   3  28
BRANCH   6  30
ATOM     30  C   UNL     1       1.335   7.950  19.665  0.00  0.00    +0.000 C 
BRANCH  30  31
ATOM     31  C   UNL     1       1.708   8.285  21.127  0.00  0.00    +0.000 C 
BRANCH  31  32
ATOM     32  N   UNL     1       1.012   9.442  21.731  0.00  0.00    +0.000 NA
ATOM     33  C   UNL     1       0.832  10.526  20.762  0.00  0.00    +0.000 C 
ATOM     34  C   UNL     1      -0.298   9.025  22.243  0.00  0.00    +0.000 C 
ENDBRANCH  31  32
ENDBRANCH  30  31
ENDBRANCH   6  30
TORSDOF 9
ENDMDL
MODEL 2
REMARK VINA RESULT:      -7.2      4.259      8.106
REMARK  Name = 
REMARK  12 active torsions:
REMARK  status: ('A' for Active; 'I' for Inactive)
REMARK    1  A    between atoms: C_1  and  O_2
REMARK    2  A    between atoms: O_2  and  C_3
REMARK    3  A    between atoms: C_5  and  C_6
REMARK    4  A    between atoms: C_7  and  C_8
REMARK    5  A    between atoms: C_8  and  C_10
REMARK    6  A    between atoms: C_19  and  O_20
REMARK    7  A    between atoms: N_23  and  C_24
REMARK    8  A    between atoms: C_24  and  C_25
REMARK    9  A    between atoms: C_25  and  N_26
REMARK   10  A    between atoms: N_26  and  C_27
REMARK   11  A    between atoms: N_26  and  C_28
REMARK   12  A    between atoms: C_31  and  O_32
REMARK                            x       y       z     vdW  Elec       q    Type
REMARK                         _______ _______ _______ _____ _____    ______ ____
ROOT
ATOM      1  C   UNL     1      -0.026  10.802  20.146  0.00  0.00    +0.000 C 
ATOM      2  C   UNL     1       0.219  10.129  21.458  0.00  0.00    +0.000 C 
ATOM      3  C   UNL     1      -0.625  10.540  22.416  0.00  0.00    +0.000 C 
ATOM      4  C   UNL     1      -1.570  11.495  21.788  0.00  0.00    +0.000 C 
ATOM      5  O   UNL     1      -2.483  12.068  22.353  0.00  0.00    +0.000 OA
ATOM      6  N   UNL     1      -1.200  11.598  20.461  0.00  0.00    +0.000 N 
ENDROOT
BRANCH   1   9
ATOM      7  C   UNL     1       2.543  13.671  19.851  0.00  0.00    +0.000 A 
ATOM      8  C   UNL     1       1.569  12.803  20.367  0.00  0.00    +0.000 A 
ATOM      9  C   UNL     1       1.107  11.688  19.645  0.00  0.00    +0.000 A 
ATOM     10  C   UNL     1       1.656  11.456  18.376  0.00  0.00    +0.000 A 
ATOM     11  C   UNL     1       2.607  12.324  17.838  0.00  0.00    +0.000 A 
ATOM     12  C   UNL     1       3.047  13.430  18.570  0.00  0.00    +0.000 A 
BRANCH   7  14
ATOM     13  C   UNL     1       3.965  14.502  21.587  0.00  0.00    +0.000 C 
ATOM     14  O   UNL     1       2.859  14.684  20.716  0.00  0.00    +0.000 OA
ENDBRANCH   7  14
BRANCH  12  15
ATOM     15  O   UNL     1       3.967  14.261  17.993  0.00  0.00    +0.000 OA
ATOM     16  H   UNL     1       3.685  15.182  18.109  0.00  0.00    +0.000 HD
ENDBRANCH  12  15
ENDBRANCH   1   9
BRANCH   2  17
ATOM     17  C   UNL     1       1.276   9.139  21.750  0.00  0.00    +0.000 C 
ATOM     18  O   UNL     1       1.927   9.294  22.789  0.00  0.00    +0.000 OA
BRANCH  17  19
ATOM     19  C   UNL     1       1.502   8.002  20.881  0.00  0.00    +0.000 A 
ATOM     20  C   UNL     1       2.049   7.955  19.610  0.00  0.00    +0.000 A 
ATOM     21  C   UNL     1       2.116   6.589  19.235  0.00  0.00    +0.000 A 
ATOM     22  C   UNL     1       2.576   5.875  18.117  0.00  0.00    +0.000 A 
ATOM     23  C   UNL     1       2.478   4.476  18.127  0.00  0.00    +0.000 A 
ATOM     24  C   UNL     1       1.920   3.800  19.215  0.00  0.00    +0.000 A 
ATOM     25  C   UNL     1       1.451   4.496  20.336  0.00  0.00    +0.000 A 
ATOM     26  C   UNL     1       1.577   5.879  20.302  0.00  0.00    +0.000 A 
ATOM     27  O   UNL     1       1.211   6.734  21.296  0.00  0.00    +0.000 OA
ENDBRANCH  17  19
ENDBRANCH   2  17
BRANCH   3  28
ATOM     28  O   UNL     1      -0.663  10.181  23.736  0.00  0.00    +0.000 OA
ATOM     29  H   UNL     1      -1.473   9.647  23.874  0.00  0.00    +0.000 HD
ENDBRANCH   3  28
BRANCH   6  30
ATOM     30  C   UNL     1      -1.914  12.413  19.486  0.00  0.00    +0.000 C 
BRANCH  30  31
ATOM     31  C   UNL     1      -2.193  11.716  18.135  0.00  0.00    +0.000 C 
BRANCH  31  32
ATOM     32  N   UNL     1      -3.437  10.921  18.054  0.00  0.00    +0.000 NA
ATOM     33  C   UNL     1      -4.480  11.631  17.308  0.00  0.00    +0.000 C 
ATOM     34  C   UNL     1      -3.167   9.634  17.404  0.00  0.00    +0.000 C 
ENDBRANCH  31  32
ENDBRANCH  30  31
ENDBRANCH   6  30
TORSDOF 9
ENDMDL
MODEL 3
REMARK VINA RESULT:      -7.0      6.316     10.730
REMARK  Name = 
REMARK  12 active torsions:
REMARK  status: ('A' for Active; 'I' for Inactive)
REMARK    1  A    between atoms: C_1  and  O_2
REMARK    2  A    between atoms: O_2  and  C_3
REMARK    3  A    between atoms: C_5  and  C_6
REMARK    4  A    between atoms: C_7  and  C_8
REMARK    5  A    between atoms: C_8  and  C_10
REMARK    6  A    between atoms: C_19  and  O_20
REMARK    7  A    between atoms: N_23  and  C_24
REMARK    8  A    between atoms: C_24  and  C_25
REMARK    9  A    between atoms: C_25  and  N_26
REMARK   10  A    between atoms: N_26  and  C_27
REMARK   11  A    between atoms: N_26  and  C_28
REMARK   12  A    between atoms: C_31  and  O_32
REMARK                            x       y       z     vdW  Elec       q    Type
REMARK                         _______ _______ _______ _____ _____    ______ ____
ROOT
ATOM      1  C   UNL     1      -1.048  12.353  20.039  0.00  0.00    +0.000 C 
ATOM      2  C   UNL     1      -1.171  13.452  21.045  0.00  0.00    +0.000 C 
ATOM      3  C   UNL     1      -1.006  13.021  22.304  0.00  0.00    +0.000 C 
ATOM      4  C   UNL     1      -0.685  11.575  22.235  0.00  0.00    +0.000 C 
ATOM      5  O   UNL     1      -0.464  10.849  23.186  0.00  0.00    +0.000 OA
ATOM      6  N   UNL     1      -0.695  11.234  20.896  0.00  0.00    +0.000 N 
ENDROOT
BRANCH   1   9
ATOM      7  C   UNL     1      -3.458  11.483  17.148  0.00  0.00    +0.000 A 
ATOM      8  C   UNL     1      -2.284  11.664  17.895  0.00  0.00    +0.000 A 
ATOM      9  C   UNL     1      -2.314  12.047  19.248  0.00  0.00    +0.000 A 
ATOM     10  C   UNL     1      -3.566  12.243  19.846  0.00  0.00    +0.000 A 
ATOM     11  C   UNL     1      -4.742  12.092  19.110  0.00  0.00    +0.000 A 
ATOM     12  C   UNL     1      -4.689  11.717  17.765  0.00  0.00    +0.000 A 
BRANCH   7  14
ATOM     13  C   UNL     1      -2.835   9.752  15.618  0.00  0.00    +0.000 C 
ATOM     14  O   UNL     1      -3.209  11.100  15.858  0.00  0.00    +0.000 OA
ENDBRANCH   7  14
BRANCH  12  15
ATOM     15  O   UNL     1      -5.868  11.599  17.081  0.00  0.00    +0.000 OA
ATOM     16  H   UNL     1      -6.527  12.194  17.472  0.00  0.00    +0.000 HD
ENDBRANCH  12  15
ENDBRANCH   1   9
BRANCH   2  17
ATOM     17  C   UNL     1      -1.472  14.870  20.759  0.00  0.00    +0.000 C 
ATOM     18  O   UNL     1      -2.419  15.381  21.368  0.00  0.00    +0.000 OA
BRANCH  17  19
ATOM     19  C   UNL     1      -0.656  15.643  19.845  0.00  0.00    +0.000 A 
ATOM     20  C   UNL     1       0.707  15.587  19.614  0.00  0.00    +0.000 A 
ATOM     21  C   UNL     1       0.990  16.501  18.567  0.00  0.00    +0.000 A 
ATOM     22  C   UNL     1       2.137  16.895  17.859  0.00  0.00    +0.000 A 
ATOM     23  C   UNL     1       2.005  17.854  16.845  0.00  0.00    +0.000 A 
ATOM     24  C   UNL     1       0.763  18.423  16.549  0.00  0.00    +0.000 A 
ATOM     25  C   UNL     1      -0.391  18.045  17.248  0.00  0.00    +0.000 A 
ATOM     26  C   UNL     1      -0.228  17.081  18.235  0.00  0.00    +0.000 A 
ATOM     27  O   UNL     1      -1.221  16.560  19.006  0.00  0.00    +0.000 OA
ENDBRANCH  17  19
ENDBRANCH   2  17
BRANCH   3  28
ATOM     28  O   UNL     1      -1.097  13.730  23.471  0.00  0.00    +0.000 OA
ATOM     29  H   UNL     1      -1.656  13.214  24.088  0.00  0.00    +0.000 HD
ENDBRANCH   3  28
BRANCH   6  30
ATOM     30  C   UNL     1      -0.382   9.899  20.401  0.00  0.00    +0.000 C 
BRANCH  30  31
ATOM     31  C   UNL     1       1.061   9.723  19.875  0.00  0.00    +0.000 C 
BRANCH  31  32
ATOM     32  N   UNL     1       1.269   9.985  18.435  0.00  0.00    +0.000 NA
ATOM     33  C   UNL     1       1.967  11.255  18.216  0.00  0.00    +0.000 C 
ATOM     34  C   UNL     1       2.045   8.894  17.836  0.00  0.00    +0.000 C 
ENDBRANCH  31  32
ENDBRANCH  30  31
ENDBRANCH   6  30
TORSDOF 9
ENDMDL
MODEL 4
REMARK VINA RESULT:      -7.0      1.916      4.626
REMARK  Name = 
REMARK  12 active torsions:
REMARK  status: ('A' for Active; 'I' for Inactive)
REMARK    1  A    between atoms: C_1  and  O_2
REMARK    2  A    between atoms: O_2  and  C_3
REMARK    3  A    between atoms: C_5  and  C_6
REMARK    4  A    between atoms: C_7  and  C_8
REMARK    5  A    between atoms: C_8  and  C_10
REMARK    6  A    between atoms: C_19  and  O_20
REMARK    7  A    between atoms: N_23  and  C_24
REMARK    8  A    between atoms: C_24  and  C_25
REMARK    9  A    between atoms: C_25  and  N_26
REMARK   10  A    between atoms: N_26  and  C_27
REMARK   11  A    between atoms: N_26  and  C_28
REMARK   12  A    between atoms: C_31  and  O_32
REMARK                            x       y       z     vdW  Elec       q    Type
REMARK                         _______ _______ _______ _____ _____    ______ ____
ROOT
ATOM      1  C   UNL     1       3.114   5.616  18.250  0.00  0.00    +0.000 C 
ATOM      2  C   UNL     1       4.599   5.506  18.125  0.00  0.00    +0.000 C 
ATOM      3  C   UNL     1       5.144   4.744  19.086  0.00  0.00    +0.000 C 
ATOM      4  C   UNL     1       4.031   4.215  19.910  0.00  0.00    +0.000 C 
ATOM      5  O   UNL     1       4.146   3.477  20.872  0.00  0.00    +0.000 OA
ATOM      6  N   UNL     1       2.866   4.727  19.372  0.00  0.00    +0.000 N 
ENDROOT
BRANCH   1   9
ATOM      7  C   UNL     1       1.547   8.652  20.054  0.00  0.00    +0.000 A 
ATOM      8  C   UNL     1       2.127   7.396  19.817  0.00  0.00    +0.000 A 
ATOM      9  C   UNL     1       2.584   7.014  18.543  0.00  0.00    +0.000 A 
ATOM     10  C   UNL     1       2.451   7.936  17.496  0.00  0.00    +0.000 A 
ATOM     11  C   UNL     1       1.854   9.179  17.709  0.00  0.00    +0.000 A 
ATOM     12  C   UNL     1       1.400   9.536  18.981  0.00  0.00    +0.000 A 
BRANCH   7  14
ATOM     13  C   UNL     1      -0.196   8.722  21.691  0.00  0.00    +0.000 C 
ATOM     14  O   UNL     1       1.181   8.827  21.360  0.00  0.00    +0.000 OA
ENDBRANCH   7  14
BRANCH  12  15
ATOM     15  O   UNL     1       0.807  10.758  19.135  0.00  0.00    +0.000 OA
ATOM     16  H   UNL     1       0.683  10.938  20.081  0.00  0.00    +0.000 HD
ENDBRANCH  12  15
ENDBRANCH   1   9
BRANCH   2  17
ATOM     17  C   UNL     1       5.443   6.164  17.106  0.00  0.00    +0.000 C 
ATOM     18  O   UNL     1       5.891   7.283  17.378  0.00  0.00    +0.000 OA
BRANCH  17  19
ATOM     19  C   UNL     1       5.776   5.499  15.863  0.00  0.00    +0.000 A 
ATOM     20  C   UNL     1       5.126   4.465  15.211  0.00  0.00    +0.000 A 
ATOM     21  C   UNL     1       5.819   4.238  13.995  0.00  0.00    +0.000 A 
ATOM     22  C   UNL     1       5.667   3.375  12.897  0.00  0.00    +0.000 A 
ATOM     23  C   UNL     1       6.584   3.465  11.841  0.00  0.00    +0.000 A 
ATOM     24  C   UNL     1       7.640   4.380  11.878  0.00  0.00    +0.000 A 
ATOM     25  C   UNL     1       7.810   5.245  12.967  0.00  0.00    +0.000 A 
ATOM     26  C   UNL     1       6.875   5.142  13.990  0.00  0.00    +0.000 A 
ATOM     27  O   UNL     1       6.846   5.904  15.117  0.00  0.00    +0.000 OA
ENDBRANCH  17  19
ENDBRANCH   2  17
BRANCH   3  28
ATOM     28  O   UNL     1       6.464   4.465  19.312  0.00  0.00    +0.000 OA
ATOM     29  H   UNL     1       6.943   4.594  18.467  0.00  0.00    +0.000 HD
ENDBRANCH   3  28
BRANCH   6  30
ATOM     30  C   UNL     1       1.536   4.406  19.876  0.00  0.00    +0.000 C 
BRANCH  30  31
ATOM     31  C   UNL     1       0.672   3.546  18.927  0.00  0.00    +0.000 C 
BRANCH  31  32
ATOM     32  N   UNL     1       1.143   2.165  18.683  0.00  0.00    +0.000 NA
ATOM     33  C   UNL     1       2.236   2.136  17.706  0.00  0.00    +0.000 C 
ATOM     34  C   UNL     1       1.599   1.564  19.940  0.00  0.00    +0.000 C 
ENDBRANCH  31  32
ENDBRANCH  30  31
ENDBRANCH   6  30
TORSDOF 9
ENDMDL
MODEL 5
REMARK VINA RESULT:      -7.0      4.032      8.146
REMARK  Name = 
REMARK  12 active torsions:
REMARK  status: ('A' for Active; 'I' for Inactive)
REMARK    1  A    between atoms: C_1  and  O_2
REMARK    2  A    between atoms: O_2  and  C_3
REMARK    3  A    between atoms: C_5  and  C_6
REMARK    4  A    between atoms: C_7  and  C_8
REMARK    5  A    between atoms: C_8  and  C_10
REMARK    6  A    between atoms: C_19  and  O_20
REMARK    7  A    between atoms: N_23  and  C_24
REMARK    8  A    between atoms: C_24  and  C_25
REMARK    9  A    between atoms: C_25  and  N_26
REMARK   10  A    between atoms: N_26  and  C_27
REMARK   11  A    between atoms: N_26  and  C_28
REMARK   12  A    between atoms: C_31  and  O_32
REMARK                            x       y       z     vdW  Elec       q    Type
REMARK                         _______ _______ _______ _____ _____    ______ ____
ROOT
ATOM      1  C   UNL     1       0.004  10.834  20.058  0.00  0.00    +0.000 C 
ATOM      2  C   UNL     1       0.210  10.250  21.419  0.00  0.00    +0.000 C 
ATOM      3  C   UNL     1      -0.684  10.697  22.313  0.00  0.00    +0.000 C 
ATOM      4  C   UNL     1      -1.624  11.586  21.588  0.00  0.00    +0.000 C 
ATOM      5  O   UNL     1      -2.574  12.169  22.078  0.00  0.00    +0.000 OA
ATOM      6  N   UNL     1      -1.201  11.616  20.273  0.00  0.00    +0.000 N 
ENDROOT
BRANCH   1   9
ATOM      7  C   UNL     1       2.486  13.767  19.660  0.00  0.00    +0.000 A 
ATOM      8  C   UNL     1       1.511  12.910  20.192  0.00  0.00    +0.000 A 
ATOM      9  C   UNL     1       1.136  11.717  19.548  0.00  0.00    +0.000 A 
ATOM     10  C   UNL     1       1.774  11.396  18.342  0.00  0.00    +0.000 A 
ATOM     11  C   UNL     1       2.727  12.250  17.787  0.00  0.00    +0.000 A 
ATOM     12  C   UNL     1       3.080  13.434  18.440  0.00  0.00    +0.000 A 
BRANCH   7  14
ATOM     13  C   UNL     1       1.940  16.033  20.203  0.00  0.00    +0.000 C 
ATOM     14  O   UNL     1       2.709  14.865  20.446  0.00  0.00    +0.000 OA
ENDBRANCH   7  14
BRANCH  12  15
ATOM     15  O   UNL     1       4.005  14.247  17.847  0.00  0.00    +0.000 OA
ATOM     16  H   UNL     1       4.808  13.735  17.657  0.00  0.00    +0.000 HD
ENDBRANCH  12  15
ENDBRANCH   1   9
BRANCH   2  17
ATOM     17  C   UNL     1       1.277   9.308  21.815  0.00  0.00    +0.000 C 
ATOM     18  O   UNL     1       1.900   9.562  22.852  0.00  0.00    +0.000 OA
BRANCH  17  19
ATOM     19  C   UNL     1       1.543   8.108  21.049  0.00  0.00    +0.000 A 
ATOM     20  C   UNL     1       1.194   6.795  21.314  0.00  0.00    +0.000 A 
ATOM     21  C   UNL     1       1.628   6.017  20.210  0.00  0.00    +0.000 A 
ATOM     22  C   UNL     1       1.563   4.662  19.847  0.00  0.00    +0.000 A 
ATOM     23  C   UNL     1       2.117   4.268  18.621  0.00  0.00    +0.000 A 
ATOM     24  C   UNL     1       2.737   5.195  17.778  0.00  0.00    +0.000 A 
ATOM     25  C   UNL     1       2.815   6.550  18.126  0.00  0.00    +0.000 A 
ATOM     26  C   UNL     1       2.243   6.911  19.339  0.00  0.00    +0.000 A 
ATOM     27  O   UNL     1       2.188   8.172  19.846  0.00  0.00    +0.000 OA
ENDBRANCH  17  19
ENDBRANCH   2  17
BRANCH   3  28
ATOM     28  O   UNL     1      -0.770  10.420  23.651  0.00  0.00    +0.000 OA
ATOM     29  H   UNL     1      -0.131  11.000  24.115  0.00  0.00    +0.000 HD
ENDBRANCH   3  28
BRANCH   6  30
ATOM     30  C   UNL     1      -1.892  12.350  19.221  0.00  0.00    +0.000 C 
BRANCH  30  31
ATOM     31  C   UNL     1      -2.977  11.544  18.471  0.00  0.00    +0.000 C 
BRANCH  31  32
ATOM     32  N   UNL     1      -2.686  11.209  17.061  0.00  0.00    +0.000 NA
ATOM     33  C   UNL     1      -1.995   9.921  16.947  0.00  0.00    +0.000 C 
ATOM     34  C   UNL     1      -3.934  11.160  16.291  0.00  0.00    +0.000 C 
ENDBRANCH  31  32
ENDBRANCH  30  31
ENDBRANCH   6  30
TORSDOF 9
ENDMDL
MODEL 6
REMARK VINA RESULT:      -6.8      0.537      1.054
REMARK  Name = 
REMARK  12 active torsions:
REMARK  status: ('A' for Active; 'I' for Inactive)
REMARK    1  A    between atoms: C_1  and  O_2
REMARK    2  A    between atoms: O_2  and  C_3
REMARK    3  A    between atoms: C_5  and  C_6
REMARK    4  A    between atoms: C_7  and  C_8
REMARK    5  A    between atoms: C_8  and  C_10
REMARK    6  A    between atoms: C_19  and  O_20
REMARK    7  A    between atoms: N_23  and  C_24
REMARK    8  A    between atoms: C_24  and  C_25
REMARK    9  A    between atoms: C_25  and  N_26
REMARK   10  A    between atoms: N_26  and  C_27
REMARK   11  A    between atoms: N_26  and  C_28
REMARK   12  A    between atoms: C_31  and  O_32
REMARK                            x       y       z     vdW  Elec       q    Type
REMARK                         _______ _______ _______ _____ _____    ______ ____
ROOT
ATOM      1  C   UNL     1       3.171   6.329  19.124  0.00  0.00    +0.000 C 
ATOM      2  C   UNL     1       4.178   6.457  18.026  0.00  0.00    +0.000 C 
ATOM      3  C   UNL     1       3.949   7.517  17.237  0.00  0.00    +0.000 C 
ATOM      4  C   UNL     1       2.781   8.239  17.798  0.00  0.00    +0.000 C 
ATOM      5  O   UNL     1       2.289   9.257  17.346  0.00  0.00    +0.000 OA
ATOM      6  N   UNL     1       2.376   7.526  18.910  0.00  0.00    +0.000 N 
ENDROOT
BRANCH   1   9
ATOM      7  C   UNL     1       1.217   3.155  20.141  0.00  0.00    +0.000 A 
ATOM      8  C   UNL     1       1.939   4.357  20.214  0.00  0.00    +0.000 A 
ATOM      9  C   UNL     1       2.295   5.084  19.064  0.00  0.00    +0.000 A 
ATOM     10  C   UNL     1       1.902   4.574  17.819  0.00  0.00    +0.000 A 
ATOM     11  C   UNL     1       1.206   3.368  17.727  0.00  0.00    +0.000 A 
ATOM     12  C   UNL     1       0.867   2.658  18.882  0.00  0.00    +0.000 A 
BRANCH   7  14
ATOM     13  C   UNL     1       2.060   2.398  22.248  0.00  0.00    +0.000 C 
ATOM     14  O   UNL     1       0.964   2.614  21.372  0.00  0.00    +0.000 OA
ENDBRANCH   7  14
BRANCH  12  15
ATOM     15  O   UNL     1       0.201   1.473  18.739  0.00  0.00    +0.000 OA
ATOM     16  H   UNL     1       0.400   1.096  17.867  0.00  0.00    +0.000 HD
ENDBRANCH  12  15
ENDBRANCH   1   9
BRANCH   2  17
ATOM     17  C   UNL     1       5.303   5.539  17.760  0.00  0.00    +0.000 C 
ATOM     18  O   UNL     1       5.853   5.017  18.737  0.00  0.00    +0.000 OA
BRANCH  17  19
ATOM     19  C   UNL     1       5.709   5.219  16.407  0.00  0.00    +0.000 A 
ATOM     20  C   UNL     1       6.878   5.535  15.736  0.00  0.00    +0.000 A 
ATOM     21  C   UNL     1       6.807   4.919  14.461  0.00  0.00    +0.000 A 
ATOM     22  C   UNL     1       7.648   4.828  13.340  0.00  0.00    +0.000 A 
ATOM     23  C   UNL     1       7.212   4.089  12.232  0.00  0.00    +0.000 A 
ATOM     24  C   UNL     1       5.961   3.466  12.227  0.00  0.00    +0.000 A 
ATOM     25  C   UNL     1       5.106   3.551  13.334  0.00  0.00    +0.000 A 
ATOM     26  C   UNL     1       5.575   4.277  14.422  0.00  0.00    +0.000 A 
ATOM     27  O   UNL     1       4.915   4.457  15.598  0.00  0.00    +0.000 OA
ENDBRANCH  17  19
ENDBRANCH   2  17
BRANCH   3  28
ATOM     28  O   UNL     1       4.629   7.914  16.118  0.00  0.00    +0.000 OA
ATOM     29  H   UNL     1       3.983   7.975  15.384  0.00  0.00    +0.000 HD
ENDBRANCH   3  28
BRANCH   6  30
ATOM     30  C   UNL     1       1.275   7.936  19.773  0.00  0.00    +0.000 C 
BRANCH  30  31
ATOM     31  C   UNL     1       1.679   8.275  21.225  0.00  0.00    +0.000 C 
BRANCH  31  32
ATOM     32  N   UNL     1       1.190   9.566  21.756  0.00  0.00    +0.000 NA
ATOM     33  C   UNL     1       0.589  10.387  20.701  0.00  0.00    +0.000 C 
ATOM     34  C   UNL     1       0.199   9.329  22.811  0.00  0.00    +0.000 C 
ENDBRANCH  31  32
ENDBRANCH  30  31
ENDBRANCH   6  30
TORSDOF 9
ENDMDL
MODEL 7
REMARK VINA RESULT:      -6.8      1.123      1.245
REMARK  Name = 
REMARK  12 active torsions:
REMARK  status: ('A' for Active; 'I' for Inactive)
REMARK    1  A    between atoms: C_1  and  O_2
REMARK    2  A    between atoms: O_2  and  C_3
REMARK    3  A    between atoms: C_5  and  C_6
REMARK    4  A    between atoms: C_7  and  C_8
REMARK    5  A    between atoms: C_8  and  C_10
REMARK    6  A    between atoms: C_19  and  O_20
REMARK    7  A    between atoms: N_23  and  C_24
REMARK    8  A    between atoms: C_24  and  C_25
REMARK    9  A    between atoms: C_25  and  N_26
REMARK   10  A    between atoms: N_26  and  C_27
REMARK   11  A    between atoms: N_26  and  C_28
REMARK   12  A    between atoms: C_31  and  O_32
REMARK                            x       y       z     vdW  Elec       q    Type
REMARK                         _______ _______ _______ _____ _____    ______ ____
ROOT
ATOM      1  C   UNL     1       3.749   6.255  19.053  0.00  0.00    +0.000 C 
ATOM      2  C   UNL     1       4.617   6.415  17.846  0.00  0.00    +0.000 C 
ATOM      3  C   UNL     1       4.172   7.366  17.012  0.00  0.00    +0.000 C 
ATOM      4  C   UNL     1       2.978   7.979  17.642  0.00  0.00    +0.000 C 
ATOM      5  O   UNL     1       2.312   8.884  17.174  0.00  0.00    +0.000 OA
ATOM      6  N   UNL     1       2.783   7.319  18.840  0.00  0.00    +0.000 N 
ENDROOT
BRANCH   1   9
ATOM      7  C   UNL     1       2.910   2.627  20.082  0.00  0.00    +0.000 A 
ATOM      8  C   UNL     1       3.501   3.899  20.047  0.00  0.00    +0.000 A 
ATOM      9  C   UNL     1       3.048   4.908  19.178  0.00  0.00    +0.000 A 
ATOM     10  C   UNL     1       1.968   4.610  18.334  0.00  0.00    +0.000 A 
ATOM     11  C   UNL     1       1.386   3.341  18.339  0.00  0.00    +0.000 A 
ATOM     12  C   UNL     1       1.856   2.352  19.206  0.00  0.00    +0.000 A 
BRANCH   7  14
ATOM     13  C   UNL     1       4.877   1.521  20.875  0.00  0.00    +0.000 C 
ATOM     14  O   UNL     1       3.491   1.799  21.003  0.00  0.00    +0.000 OA
ENDBRANCH   7  14
BRANCH  12  15
ATOM     15  O   UNL     1       1.264   1.120  19.160  0.00  0.00    +0.000 OA
ATOM     16  H   UNL     1       0.537   1.089  19.803  0.00  0.00    +0.000 HD
ENDBRANCH  12  15
ENDBRANCH   1   9
BRANCH   2  17
ATOM     17  C   UNL     1       5.825   5.627  17.527  0.00  0.00    +0.000 C 
ATOM     18  O   UNL     1       6.603   5.381  18.455  0.00  0.00    +0.000 OA
BRANCH  17  19
ATOM     19  C   UNL     1       6.058   5.116  16.191  0.00  0.00    +0.000 A 
ATOM     20  C   UNL     1       5.369   4.146  15.483  0.00  0.00    +0.000 A 
ATOM     21  C   UNL     1       5.956   4.075  14.194  0.00  0.00    +0.000 A 
ATOM     22  C   UNL     1       5.721   3.339  13.022  0.00  0.00    +0.000 A 
ATOM     23  C   UNL     1       6.539   3.572  11.907  0.00  0.00    +0.000 A 
ATOM     24  C   UNL     1       7.580   4.504  11.959  0.00  0.00    +0.000 A 
ATOM     25  C   UNL     1       7.832   5.243  13.121  0.00  0.00    +0.000 A 
ATOM     26  C   UNL     1       6.993   5.001  14.202  0.00  0.00    +0.000 A 
ATOM     27  O   UNL     1       7.051   5.630  15.407  0.00  0.00    +0.000 OA
ENDBRANCH  17  19
ENDBRANCH   2  17
BRANCH   3  28
ATOM     28  O   UNL     1       4.680   7.749  15.800  0.00  0.00    +0.000 OA
ATOM     29  H   UNL     1       5.637   7.538  15.801  0.00  0.00    +0.000 HD
ENDBRANCH   3  28
BRANCH   6  30
ATOM     30  C   UNL     1       1.726   7.658  19.785  0.00  0.00    +0.000 C 
BRANCH  30  31
ATOM     31  C   UNL     1       1.526   9.173  20.020  0.00  0.00    +0.000 C 
BRANCH  31  32
ATOM     32  N   UNL     1       0.127   9.642  20.106  0.00  0.00    +0.000 NA
ATOM     33  C   UNL     1      -0.145  10.283  21.396  0.00  0.00    +0.000 C 
ATOM     34  C   UNL     1      -0.149  10.593  19.024  0.00  0.00    +0.000 C 
ENDBRANCH  31  32
ENDBRANCH  30  31
ENDBRANCH   6  30
TORSDOF 9
ENDMDL
MODEL 8
REMARK VINA RESULT:      -6.8      6.186     10.532
REMARK  Name = 
REMARK  12 active torsions:
REMARK  status: ('A' for Active; 'I' for Inactive)
REMARK    1  A    between atoms: C_1  and  O_2
REMARK    2  A    between atoms: O_2  and  C_3
REMARK    3  A    between atoms: C_5  and  C_6
REMARK    4  A    between atoms: C_7  and  C_8
REMARK    5  A    between atoms: C_8  and  C_10
REMARK    6  A    between atoms: C_19  and  O_20
REMARK    7  A    between atoms: N_23  and  C_24
REMARK    8  A    between atoms: C_24  and  C_25
REMARK    9  A    between atoms: C_25  and  N_26
REMARK   10  A    between atoms: N_26  and  C_27
REMARK   11  A    between atoms: N_26  and  C_28
REMARK   12  A    between atoms: C_31  and  O_32
REMARK                            x       y       z     vdW  Elec       q    Type
REMARK                         _______ _______ _______ _____ _____    ______ ____
ROOT
ATOM      1  C   UNL     1      -1.021  12.169  20.199  0.00  0.00    +0.000 C 
ATOM      2  C   UNL     1      -1.095  13.261  21.217  0.00  0.00    +0.000 C 
ATOM      3  C   UNL     1      -0.868  12.821  22.464  0.00  0.00    +0.000 C 
ATOM      4  C   UNL     1      -0.551  11.375  22.368  0.00  0.00    +0.000 C 
ATOM      5  O   UNL     1      -0.284  10.642  23.303  0.00  0.00    +0.000 OA
ATOM      6  N   UNL     1      -0.627  11.044  21.029  0.00  0.00    +0.000 N 
ENDROOT
BRANCH   1   9
ATOM      7  C   UNL     1      -3.558  10.930  17.561  0.00  0.00    +0.000 A 
ATOM      8  C   UNL     1      -2.368  11.116  18.281  0.00  0.00    +0.000 A 
ATOM      9  C   UNL     1      -2.324  11.868  19.469  0.00  0.00    +0.000 A 
ATOM     10  C   UNL     1      -3.521  12.434  19.930  0.00  0.00    +0.000 A 
ATOM     11  C   UNL     1      -4.709  12.279  19.213  0.00  0.00    +0.000 A 
ATOM     12  C   UNL     1      -4.728  11.533  18.031  0.00  0.00    +0.000 A 
BRANCH   7  14
ATOM     13  C   UNL     1      -3.073  10.811  15.222  0.00  0.00    +0.000 C 
ATOM     14  O   UNL     1      -3.385  10.159  16.444  0.00  0.00    +0.000 OA
ENDBRANCH   7  14
BRANCH  12  15
ATOM     15  O   UNL     1      -5.911  11.425  17.355  0.00  0.00    +0.000 OA
ATOM     16  H   UNL     1      -6.460  10.745  17.776  0.00  0.00    +0.000 HD
ENDBRANCH  12  15
ENDBRANCH   1   9
BRANCH   2  17
ATOM     17  C   UNL     1      -1.410  14.680  20.957  0.00  0.00    +0.000 C 
ATOM     18  O   UNL     1      -2.269  15.210  21.670  0.00  0.00    +0.000 OA
BRANCH  17  19
ATOM     19  C   UNL     1      -0.701  15.435  19.944  0.00  0.00    +0.000 A 
ATOM     20  C   UNL     1      -1.141  16.480  19.150  0.00  0.00    +0.000 A 
ATOM     21  C   UNL     1      -0.032  16.914  18.380  0.00  0.00    +0.000 A 
ATOM     22  C   UNL     1       0.199  17.920  17.428  0.00  0.00    +0.000 A 
ATOM     23  C   UNL     1       1.484  18.046  16.881  0.00  0.00    +0.000 A 
ATOM     24  C   UNL     1       2.516  17.182  17.259  0.00  0.00    +0.000 A 
ATOM     25  C   UNL     1       2.302  16.170  18.204  0.00  0.00    +0.000 A 
ATOM     26  C   UNL     1       1.023  16.082  18.738  0.00  0.00    +0.000 A 
ATOM     27  O   UNL     1       0.618  15.192  19.684  0.00  0.00    +0.000 OA
ENDBRANCH  17  19
ENDBRANCH   2  17
BRANCH   3  28
ATOM     28  O   UNL     1      -0.903  13.521  23.639  0.00  0.00    +0.000 OA
ATOM     29  H   UNL     1      -1.305  14.395  23.451  0.00  0.00    +0.000 HD
ENDBRANCH   3  28
BRANCH   6  30
ATOM     30  C   UNL     1      -0.338   9.712  20.511  0.00  0.00    +0.000 C 
BRANCH  30  31
ATOM     31  C   UNL     1       1.076   9.541  19.912  0.00  0.00    +0.000 C 
BRANCH  31  32
ATOM     32  N   UNL     1       1.218   9.837  18.471  0.00  0.00    +0.000 NA
ATOM     33  C   UNL     1       1.890  11.121  18.249  0.00  0.00    +0.000 C 
ATOM     34  C   UNL     1       1.981   8.770  17.814  0.00  0.00    +0.000 C 
ENDBRANCH  31  32
ENDBRANCH  30  31
ENDBRANCH   6  30
TORSDOF 9
ENDMDL
MODEL 9
REMARK VINA RESULT:      -6.6      1.986      4.758
REMARK  Name = 
REMARK  12 active torsions:
REMARK  status: ('A' for Active; 'I' for Inactive)
REMARK    1  A    between atoms: C_1  and  O_2
REMARK    2  A    between atoms: O_2  and  C_3
REMARK    3  A    between atoms: C_5  and  C_6
REMARK    4  A    between atoms: C_7  and  C_8
REMARK    5  A    between atoms: C_8  and  C_10
REMARK    6  A    between atoms: C_19  and  O_20
REMARK    7  A    between atoms: N_23  and  C_24
REMARK    8  A    between atoms: C_24  and  C_25
REMARK    9  A    between atoms: C_25  and  N_26
REMARK   10  A    between atoms: N_26  and  C_27
REMARK   11  A    between atoms: N_26  and  C_28
REMARK   12  A    between atoms: C_31  and  O_32
REMARK                            x       y       z     vdW  Elec       q    Type
REMARK                         _______ _______ _______ _____ _____    ______ ____
ROOT
ATOM      1  C   UNL     1       3.188   5.674  18.153  0.00  0.00    +0.000 C 
ATOM      2  C   UNL     1       4.677   5.568  18.078  0.00  0.00    +0.000 C 
ATOM      3  C   UNL     1       5.185   4.758  19.019  0.00  0.00    +0.000 C 
ATOM      4  C   UNL     1       4.041   4.192  19.775  0.00  0.00    +0.000 C 
ATOM      5  O   UNL     1       4.120   3.407  20.702  0.00  0.00    +0.000 OA
ATOM      6  N   UNL     1       2.898   4.732  19.220  0.00  0.00    +0.000 N 
ENDROOT
BRANCH   1   9
ATOM      7  C   UNL     1       1.579   8.628  20.053  0.00  0.00    +0.000 A 
ATOM      8  C   UNL     1       2.166   7.385  19.774  0.00  0.00    +0.000 A 
ATOM      9  C   UNL     1       2.649   7.058  18.494  0.00  0.00    +0.000 A 
ATOM     10  C   UNL     1       2.532   8.023  17.484  0.00  0.00    +0.000 A 
ATOM     11  C   UNL     1       1.928   9.255  17.738  0.00  0.00    +0.000 A 
ATOM     12  C   UNL     1       1.449   9.556  19.016  0.00  0.00    +0.000 A 
BRANCH   7  14
ATOM     13  C   UNL     1      -0.197   8.647  21.656  0.00  0.00    +0.000 C 
ATOM     14  O   UNL     1       1.188   8.748  21.358  0.00  0.00    +0.000 OA
ENDBRANCH   7  14
BRANCH  12  15
ATOM     15  O   UNL     1       0.849  10.770  19.210  0.00  0.00    +0.000 OA
ATOM     16  H   UNL     1       1.531  11.457  19.283  0.00  0.00    +0.000 HD
ENDBRANCH  12  15
ENDBRANCH   1   9
BRANCH   2  17
ATOM     17  C   UNL     1       5.558   6.272  17.124  0.00  0.00    +0.000 C 
ATOM     18  O   UNL     1       6.041   7.350  17.489  0.00  0.00    +0.000 OA
BRANCH  17  19
ATOM     19  C   UNL     1       5.885   5.696  15.836  0.00  0.00    +0.000 A 
ATOM     20  C   UNL     1       7.030   5.837  15.070  0.00  0.00    +0.000 A 
ATOM     21  C   UNL     1       6.876   5.003  13.933  0.00  0.00    +0.000 A 
ATOM     22  C   UNL     1       7.657   4.675  12.814  0.00  0.00    +0.000 A 
ATOM     23  C   UNL     1       7.143   3.766  11.878  0.00  0.00    +0.000 A 
ATOM     24  C   UNL     1       5.873   3.205  12.041  0.00  0.00    +0.000 A 
ATOM     25  C   UNL     1       5.077   3.525  13.149  0.00  0.00    +0.000 A 
ATOM     26  C   UNL     1       5.622   4.416  14.065  0.00  0.00    +0.000 A 
ATOM     27  O   UNL     1       5.028   4.833  15.215  0.00  0.00    +0.000 OA
ENDBRANCH  17  19
ENDBRANCH   2  17
BRANCH   3  28
ATOM     28  O   UNL     1       6.496   4.464  19.279  0.00  0.00    +0.000 OA
ATOM     29  H   UNL     1       6.960   4.393  18.420  0.00  0.00    +0.000 HD
ENDBRANCH   3  28
BRANCH   6  30
ATOM     30  C   UNL     1       1.550   4.390  19.658  0.00  0.00    +0.000 C 
BRANCH  30  31
ATOM     31  C   UNL     1       0.723   3.574  18.639  0.00  0.00    +0.000 C 
BRANCH  31  32
ATOM     32  N   UNL     1       1.173   2.187  18.392  0.00  0.00    +0.000 NA
ATOM     33  C   UNL     1       2.347   2.153  17.513  0.00  0.00    +0.000 C 
ATOM     34  C   UNL     1       1.500   1.534  19.663  0.00  0.00    +0.000 C 
ENDBRANCH  31  32
ENDBRANCH  30  31
ENDBRANCH   6  30
TORSDOF 9
ENDMDL
