MODEL 1
REMARK VINA RESULT:      -7.4      0.000      0.000
REMARK  Name = 
REMARK  8 active torsions:
REMARK  status: ('A' for Active; 'I' for Inactive)
REMARK    1  A    between atoms: C_1  and  C_2
REMARK    2  A    between atoms: C_8  and  N_9
REMARK    3  A    between atoms: C_10  and  C_12
REMARK    4  A    between atoms: C_12  and  S_13
REMARK    5  A    between atoms: S_13  and  C_14
REMARK    6  A    between atoms: C_14  and  C_15
REMARK    7  A    between atoms: C_14  and  C_16
REMARK    8  A    between atoms: C_18  and  O_19
REMARK                            x       y       z     vdW  Elec       q    Type
REMARK                         _______ _______ _______ _____ _____    ______ ____
ROOT
ATOM      1  S   UNL     1       2.525   2.514  20.567  0.00  0.00    +0.000 S 
ENDROOT
BRANCH   1   2
ATOM      2  C   UNL     1       4.322   2.373  20.179  0.00  0.00    +0.000 C 
ATOM      3  C   UNL     1       4.764   0.993  19.696  0.00  0.00    +0.000 C 
BRANCH   2   4
ATOM      4  C   UNL     1       4.866   3.464  19.271  0.00  0.00    +0.000 A 
ATOM      5  N   UNL     1       4.124   3.794  18.199  0.00  0.00    +0.000 NA
ATOM      6  C   UNL     1       4.572   4.839  17.496  0.00  0.00    +0.000 A 
ATOM      7  C   UNL     1       5.704   5.583  17.782  0.00  0.00    +0.000 A 
ATOM      8  C   UNL     1       6.145   6.705  17.044  0.00  0.00    +0.000 A 
ATOM      9  C   UNL     1       7.300   7.381  17.427  0.00  0.00    +0.000 A 
ATOM     10  C   UNL     1       8.017   6.934  18.532  0.00  0.00    +0.000 A 
ATOM     11  C   UNL     1       7.568   5.822  19.253  0.00  0.00    +0.000 A 
ATOM     12  C   UNL     1       6.409   5.140  18.901  0.00  0.00    +0.000 A 
ATOM     13  N   UNL     1       5.998   4.099  19.642  0.00  0.00    +0.000 NA
BRANCH   6  14
ATOM     14  O   UNL     1       3.780   5.138  16.431  0.00  0.00    +0.000 OA
ATOM     15  H   UNL     1       4.430   5.093  15.707  0.00  0.00    +0.000 HD
ENDBRANCH   6  14
ENDBRANCH   2   4
ENDBRANCH   1   2
BRANCH   1  16
ATOM     16  C   UNL     1       2.442   4.103  21.467  0.00  0.00    +0.000 C 
BRANCH  16  18
ATOM     17  N   UNL     1       2.506   6.362  20.462  0.00  0.00    +0.000 N 
ATOM     18  C   UNL     1       1.757   5.201  20.640  0.00  0.00    +0.000 C 
ATOM     19  O   UNL     1       0.650   4.979  20.167  0.00  0.00    +0.000 OA
ATOM     20  H   UNL     1       3.335   6.426  21.047  0.00  0.00    +0.000 HD
BRANCH  17  28
ATOM     21  C   UNL     1       0.978   8.461  21.830  0.00  0.00    +0.000 C 
ATOM     22  C   UNL     1       1.351   8.546  20.370  0.00  0.00    +0.000 A 
ATOM     23  C   UNL     1       0.951   9.660  19.592  0.00  0.00    +0.000 A 
ATOM     24 CL   UNL     1      -0.002  10.960  20.230  0.00  0.00    +0.000 Cl
ATOM     25  C   UNL     1       1.300   9.768  18.244  0.00  0.00    +0.000 A 
ATOM     26  C   UNL     1       2.076   8.784  17.649  0.00  0.00    +0.000 A 
ATOM     27  C   UNL     1       2.484   7.682  18.399  0.00  0.00    +0.000 A 
ATOM     28  C   UNL     1       2.116   7.524  19.742  0.00  0.00    +0.000 A 
ENDBRANCH  17  28
ENDBRANCH  16  18
ENDBRANCH   1  16
TORSDOF 6
ENDMDL
MODEL 2
REMARK VINA RESULT:      -7.3      2.436      5.537
REMARK  Name = 
REMARK  8 active torsions:
REMARK  status: ('A' for Active; 'I' for Inactive)
REMARK    1  A    between atoms: C_1  and  C_2
REMARK    2  A    between atoms: C_8  and  N_9
REMARK    3  A    between atoms: C_10  and  C_12
REMARK    4  A    between atoms: C_12  and  S_13
REMARK    5  A    between atoms: S_13  and  C_14
REMARK    6  A    between atoms: C_14  and  C_15
REMARK    7  A    between atoms: C_14  and  C_16
REMARK    8  A    between atoms: C_18  and  O_19
REMARK                            x       y       z     vdW  Elec       q    Type
REMARK                         _______ _______ _______ _____ _____    ______ ____
ROOT
ATOM      1  S   UNL     1       0.866   2.682  19.471  0.00  0.00    +0.000 S 
ENDROOT
BRANCH   1   2
ATOM      2  C   UNL     1       1.589   3.781  20.762  0.00  0.00    +0.000 C 
ATOM      3  C   UNL     1       2.861   3.244  21.416  0.00  0.00    +0.000 C 
BRANCH   2   4
ATOM      4  C   UNL     1       1.769   5.230  20.338  0.00  0.00    +0.000 A 
ATOM      5  N   UNL     1       2.437   5.454  19.193  0.00  0.00    +0.000 NA
ATOM      6  C   UNL     1       2.467   6.729  18.790  0.00  0.00    +0.000 A 
ATOM      7  C   UNL     1       1.878   7.799  19.444  0.00  0.00    +0.000 A 
ATOM      8  C   UNL     1       1.894   9.136  18.986  0.00  0.00    +0.000 A 
ATOM      9  C   UNL     1       1.264  10.133  19.725  0.00  0.00    +0.000 A 
ATOM     10  C   UNL     1       0.633   9.800  20.919  0.00  0.00    +0.000 A 
ATOM     11  C   UNL     1       0.625   8.472  21.359  0.00  0.00    +0.000 A 
ATOM     12  C   UNL     1       1.232   7.456  20.631  0.00  0.00    +0.000 A 
ATOM     13  N   UNL     1       1.171   6.190  21.075  0.00  0.00    +0.000 NA
BRANCH   6  14
ATOM     14  O   UNL     1       3.142   6.899  17.622  0.00  0.00    +0.000 OA
ATOM     15  H   UNL     1       2.907   6.076  17.159  0.00  0.00    +0.000 HD
ENDBRANCH   6  14
ENDBRANCH   2   4
ENDBRANCH   1   2
BRANCH   1  16
ATOM     16  C   UNL     1       2.352   1.916  18.732  0.00  0.00    +0.000 C 
BRANCH  16  18
ATOM     17  N   UNL     1       4.387   3.097  17.968  0.00  0.00    +0.000 N 
ATOM     18  C   UNL     1       3.039   2.844  17.720  0.00  0.00    +0.000 C 
ATOM     19  O   UNL     1       2.393   3.257  16.765  0.00  0.00    +0.000 OA
ATOM     20  H   UNL     1       4.714   2.793  18.880  0.00  0.00    +0.000 HD
BRANCH  17  28
ATOM     21  C   UNL     1       5.890   5.250  19.277  0.00  0.00    +0.000 C 
ATOM     22  C   UNL     1       5.977   4.981  17.794  0.00  0.00    +0.000 A 
ATOM     23  C   UNL     1       6.793   5.790  16.965  0.00  0.00    +0.000 A 
ATOM     24 CL   UNL     1       7.704   7.137  17.568  0.00  0.00    +0.000 Cl
ATOM     25  C   UNL     1       6.901   5.550  15.594  0.00  0.00    +0.000 A 
ATOM     26  C   UNL     1       6.222   4.483  15.023  0.00  0.00    +0.000 A 
ATOM     27  C   UNL     1       5.418   3.673  15.822  0.00  0.00    +0.000 A 
ATOM     28  C   UNL     1       5.256   3.913  17.193  0.00  0.00    +0.000 A 
ENDBRANCH  17  28
ENDBRANCH  16  18
ENDBRANCH   1  16
TORSDOF 6
ENDMDL
MODEL 3
REMARK VINA RESULT:      -7.3      1.378      1.972
REMARK  Name = 
REMARK  8 active torsions:
REMARK  status: ('A' for Active; 'I' for Inactive)
REMARK    1  A    between atoms: C_1  and  C_2
REMARK    2  A    between atoms: C_8  and  N_9
REMARK    3  A    between atoms: C_10  and  C_12
REMARK    4  A    between atoms: C_12  and  S_13
REMARK    5  A    between atoms: S_13  and  C_14
REMARK    6  A    between atoms: C_14  and  C_15
REMARK    7  A    between atoms: C_14  and  C_16
REMARK    8  A    between atoms: C_18  and  O_19
REMARK                            x       y       z     vdW  Elec       q    Type
REMARK                         _______ _______ _______ _____ _____    ______ ____
ROOT
ATOM      1  S   UNL     1       3.598   2.653  20.970  0.00  0.00    +0.000 S 
ENDROOT
BRANCH   1   2
ATOM      2  C   UNL     1       3.878   2.250  19.193  0.00  0.00    +0.000 C 
ATOM      3  C   UNL     1       2.607   1.947  18.400  0.00  0.00    +0.000 C 
BRANCH   2   4
ATOM      4  C   UNL     1       4.759   3.238  18.446  0.00  0.00    +0.000 A 
ATOM      5  N   UNL     1       4.560   3.354  17.121  0.00  0.00    +0.000 NA
ATOM      6  C   UNL     1       5.265   4.319  16.521  0.00  0.00    +0.000 A 
ATOM      7  C   UNL     1       6.153   5.180  17.144  0.00  0.00    +0.000 A 
ATOM      8  C   UNL     1       6.867   6.215  16.498  0.00  0.00    +0.000 A 
ATOM      9  C   UNL     1       7.734   7.024  17.226  0.00  0.00    +0.000 A 
ATOM     10  C   UNL     1       7.897   6.794  18.588  0.00  0.00    +0.000 A 
ATOM     11  C   UNL     1       7.184   5.766  19.214  0.00  0.00    +0.000 A 
ATOM     12  C   UNL     1       6.300   4.955  18.512  0.00  0.00    +0.000 A 
ATOM     13  N   UNL     1       5.611   4.003  19.160  0.00  0.00    +0.000 NA
BRANCH   6  14
ATOM     14  O   UNL     1       5.017   4.404  15.186  0.00  0.00    +0.000 OA
ATOM     15  H   UNL     1       5.643   3.740  14.846  0.00  0.00    +0.000 HD
ENDBRANCH   6  14
ENDBRANCH   2   4
ENDBRANCH   1   2
BRANCH   1  16
ATOM     16  C   UNL     1       1.774   2.726  21.072  0.00  0.00    +0.000 C 
BRANCH  16  18
ATOM     17  N   UNL     1       1.976   5.187  20.928  0.00  0.00    +0.000 N 
ATOM     18  C   UNL     1       1.220   4.070  20.578  0.00  0.00    +0.000 C 
ATOM     19  O   UNL     1       0.205   4.074  19.894  0.00  0.00    +0.000 OA
ATOM     20  H   UNL     1       2.700   5.008  21.619  0.00  0.00    +0.000 HD
BRANCH  17  28
ATOM     21  C   UNL     1       2.791   6.236  18.312  0.00  0.00    +0.000 C 
ATOM     22  C   UNL     1       2.102   7.086  19.351  0.00  0.00    +0.000 A 
ATOM     23  C   UNL     1       1.837   8.454  19.096  0.00  0.00    +0.000 A 
ATOM     24 CL   UNL     1       2.301   9.245  17.625  0.00  0.00    +0.000 Cl
ATOM     25  C   UNL     1       1.185   9.255  20.037  0.00  0.00    +0.000 A 
ATOM     26  C   UNL     1       0.760   8.706  21.238  0.00  0.00    +0.000 A 
ATOM     27  C   UNL     1       1.008   7.361  21.505  0.00  0.00    +0.000 A 
ATOM     28  C   UNL     1       1.696   6.541  20.601  0.00  0.00    +0.000 A 
ENDBRANCH  17  28
ENDBRANCH  16  18
ENDBRANCH   1  16
TORSDOF 6
ENDMDL
MODEL 4
REMARK VINA RESULT:      -7.2      4.473      7.137
REMARK  Name = 
REMARK  8 active torsions:
REMARK  status: ('A' for Active; 'I' for Inactive)
REMARK    1  A    between atoms: C_1  and  C_2
REMARK    2  A    between atoms: C_8  and  N_9
REMARK    3  A    between atoms: C_10  and  C_12
REMARK    4  A    between atoms: C_12  and  S_13
REMARK    5  A    between atoms: S_13  and  C_14
REMARK    6  A    between atoms: C_14  and  C_15
REMARK    7  A    between atoms: C_14  and  C_16
REMARK    8  A    between atoms: C_18  and  O_19
REMARK                            x       y       z     vdW  Elec       q    Type
REMARK                         _______ _______ _______ _____ _____    ______ ____
ROOT
ATOM      1  S   UNL     1       7.235   6.111  17.450  0.00  0.00    +0.000 S 
ENDROOT
BRANCH   1   2
ATOM      2  C   UNL     1       5.709   5.453  16.652  0.00  0.00    +0.000 C 
ATOM      3  C   UNL     1       5.952   4.339  15.635  0.00  0.00    +0.000 C 
BRANCH   2   4
ATOM      4  C   UNL     1       4.598   5.072  17.616  0.00  0.00    +0.000 A 
ATOM      5  N   UNL     1       4.252   5.985  18.541  0.00  0.00    +0.000 NA
ATOM      6  C   UNL     1       3.191   5.664  19.289  0.00  0.00    +0.000 A 
ATOM      7  C   UNL     1       2.445   4.501  19.182  0.00  0.00    +0.000 A 
ATOM      8  C   UNL     1       1.307   4.194  19.961  0.00  0.00    +0.000 A 
ATOM      9  C   UNL     1       0.631   2.993  19.765  0.00  0.00    +0.000 A 
ATOM     10  C   UNL     1       1.096   2.099  18.805  0.00  0.00    +0.000 A 
ATOM     11  C   UNL     1       2.224   2.417  18.042  0.00  0.00    +0.000 A 
ATOM     12  C   UNL     1       2.906   3.617  18.207  0.00  0.00    +0.000 A 
ATOM     13  N   UNL     1       3.964   3.895  17.429  0.00  0.00    +0.000 NA
BRANCH   6  14
ATOM     14  O   UNL     1       2.875   6.625  20.199  0.00  0.00    +0.000 OA
ATOM     15  H   UNL     1       2.926   7.421  19.642  0.00  0.00    +0.000 HD
ENDBRANCH   6  14
ENDBRANCH   2   4
ENDBRANCH   1   2
BRANCH   1  16
ATOM     16  C   UNL     1       7.060   7.914  17.202  0.00  0.00    +0.000 C 
BRANCH  16  18
ATOM     17  N   UNL     1       8.172  10.066  17.701  0.00  0.00    +0.000 N 
ATOM     18  C   UNL     1       8.084   8.713  18.020  0.00  0.00    +0.000 C 
ATOM     19  O   UNL     1       8.710   8.140  18.903  0.00  0.00    +0.000 OA
ATOM     20  H   UNL     1       7.687  10.333  16.848  0.00  0.00    +0.000 HD
BRANCH  17  28
ATOM     21  C   UNL     1       7.744  12.918  17.154  0.00  0.00    +0.000 C 
ATOM     22  C   UNL     1       8.864  12.416  18.034  0.00  0.00    +0.000 A 
ATOM     23  C   UNL     1       9.775  13.327  18.623  0.00  0.00    +0.000 A 
ATOM     24 CL   UNL     1       9.699  15.039  18.358  0.00  0.00    +0.000 Cl
ATOM     25  C   UNL     1      10.808  12.886  19.453  0.00  0.00    +0.000 A 
ATOM     26  C   UNL     1      10.939  11.535  19.737  0.00  0.00    +0.000 A 
ATOM     27  C   UNL     1      10.050  10.624  19.171  0.00  0.00    +0.000 A 
ATOM     28  C   UNL     1       9.029  11.029  18.301  0.00  0.00    +0.000 A 
ENDBRANCH  17  28
ENDBRANCH  16  18
ENDBRANCH   1  16
TORSDOF 6
ENDMDL
MODEL 5
REMARK VINA RESULT:      -7.2      1.151      1.251
REMARK  Name = 
REMARK  8 active torsions:
REMARK  status: ('A' for Active; 'I' for Inactive)
REMARK    1  A    between atoms: C_1  and  C_2
REMARK    2  A    between atoms: C_8  and  N_9
REMARK    3  A    between atoms: C_10  and  C_12
REMARK    4  A    between atoms: C_12  and  S_13
REMARK    5  A    between atoms: S_13  and  C_14
REMARK    6  A    between atoms: C_14  and  C_15
REMARK    7  A    between atoms: C_14  and  C_16
REMARK    8  A    between atoms: C_18  and  O_19
REMARK                            x       y       z     vdW  Elec       q    Type
REMARK                         _______ _______ _______ _____ _____    ______ ____
ROOT
ATOM      1  S   UNL     1       2.008   3.339  19.701  0.00  0.00    +0.000 S 
ENDROOT
BRANCH   1   2
ATOM      2  C   UNL     1       3.655   2.629  19.273  0.00  0.00    +0.000 C 
ATOM      3  C   UNL     1       3.601   1.286  18.547  0.00  0.00    +0.000 C 
BRANCH   2   4
ATOM      4  C   UNL     1       4.599   3.589  18.567  0.00  0.00    +0.000 A 
ATOM      5  N   UNL     1       4.353   3.845  17.270  0.00  0.00    +0.000 NA
ATOM      6  C   UNL     1       5.127   4.786  16.719  0.00  0.00    +0.000 A 
ATOM      7  C   UNL     1       6.127   5.493  17.364  0.00  0.00    +0.000 A 
ATOM      8  C   UNL     1       6.915   6.506  16.772  0.00  0.00    +0.000 A 
ATOM      9  C   UNL     1       7.894   7.155  17.520  0.00  0.00    +0.000 A 
ATOM     10  C   UNL     1       8.094   6.785  18.846  0.00  0.00    +0.000 A 
ATOM     11  C   UNL     1       7.307   5.781  19.418  0.00  0.00    +0.000 A 
ATOM     12  C   UNL     1       6.312   5.130  18.698  0.00  0.00    +0.000 A 
ATOM     13  N   UNL     1       5.558   4.196  19.298  0.00  0.00    +0.000 NA
BRANCH   6  14
ATOM     14  O   UNL     1       4.829   5.017  15.412  0.00  0.00    +0.000 OA
ATOM     15  H   UNL     1       4.353   4.197  15.190  0.00  0.00    +0.000 HD
ENDBRANCH   6  14
ENDBRANCH   2   4
ENDBRANCH   1   2
BRANCH   1  16
ATOM     16  C   UNL     1       2.460   4.815  20.681  0.00  0.00    +0.000 C 
BRANCH  16  18
ATOM     17  N   UNL     1       1.737   7.180  20.657  0.00  0.00    +0.000 N 
ATOM     18  C   UNL     1       2.231   6.118  19.902  0.00  0.00    +0.000 C 
ATOM     19  O   UNL     1       2.526   6.156  18.715  0.00  0.00    +0.000 OA
ATOM     20  H   UNL     1       1.414   6.925  21.586  0.00  0.00    +0.000 HD
BRANCH  17  28
ATOM     21  C   UNL     1       0.802   9.210  22.559  0.00  0.00    +0.000 C 
ATOM     22  C   UNL     1       0.959   9.488  21.084  0.00  0.00    +0.000 A 
ATOM     23  C   UNL     1       0.636  10.762  20.556  0.00  0.00    +0.000 A 
ATOM     24 CL   UNL     1       0.019  12.055  21.532  0.00  0.00    +0.000 Cl
ATOM     25  C   UNL     1       0.790  11.046  19.198  0.00  0.00    +0.000 A 
ATOM     26  C   UNL     1       1.293  10.078  18.341  0.00  0.00    +0.000 A 
ATOM     27  C   UNL     1       1.622   8.820  18.842  0.00  0.00    +0.000 A 
ATOM     28  C   UNL     1       1.440   8.490  20.191  0.00  0.00    +0.000 A 
ENDBRANCH  17  28
ENDBRANCH  16  18
ENDBRANCH   1  16
TORSDOF 6
ENDMDL
MODEL 6
REMARK VINA RESULT:      -7.1      4.448      7.113
REMARK  Name = 
REMARK  8 active torsions:
REMARK  status: ('A' for Active; 'I' for Inactive)
REMARK    1  A    between atoms: C_1  and  C_2
REMARK    2  A    between atoms: C_8  and  N_9
REMARK    3  A    between atoms: C_10  and  C_12
REMARK    4  A    between atoms: C_12  and  S_13
REMARK    5  A    between atoms: S_13  and  C_14
REMARK    6  A    between atoms: C_14  and  C_15
REMARK    7  A    between atoms: C_14  and  C_16
REMARK    8  A    between atoms: C_18  and  O_19
REMARK                            x       y       z     vdW  Elec       q    Type
REMARK                         _______ _______ _______ _____ _____    ______ ____
ROOT
ATOM      1  S   UNL     1       6.967   6.353  17.850  0.00  0.00    +0.000 S 
ENDROOT
BRANCH   1   2
ATOM      2  C   UNL     1       5.495   5.912  16.832  0.00  0.00    +0.000 C 
ATOM      3  C   UNL     1       5.818   5.440  15.416  0.00  0.00    +0.000 C 
BRANCH   2   4
ATOM      4  C   UNL     1       4.513   4.968  17.506  0.00  0.00    +0.000 A 
ATOM      5  N   UNL     1       4.677   3.652  17.282  0.00  0.00    +0.000 NA
ATOM      6  C   UNL     1       3.875   2.849  17.988  0.00  0.00    +0.000 A 
ATOM      7  C   UNL     1       2.921   3.258  18.905  0.00  0.00    +0.000 A 
ATOM      8  C   UNL     1       2.103   2.392  19.665  0.00  0.00    +0.000 A 
ATOM      9  C   UNL     1       1.177   2.917  20.562  0.00  0.00    +0.000 A 
ATOM     10  C   UNL     1       1.060   4.297  20.691  0.00  0.00    +0.000 A 
ATOM     11  C   UNL     1       1.876   5.141  19.932  0.00  0.00    +0.000 A 
ATOM     12  C   UNL     1       2.820   4.642  19.041  0.00  0.00    +0.000 A 
ATOM     13  N   UNL     1       3.605   5.490  18.359  0.00  0.00    +0.000 NA
BRANCH   6  14
ATOM     14  O   UNL     1       4.090   1.530  17.734  0.00  0.00    +0.000 OA
ATOM     15  H   UNL     1       4.027   1.523  16.762  0.00  0.00    +0.000 HD
ENDBRANCH   6  14
ENDBRANCH   2   4
ENDBRANCH   1   2
BRANCH   1  16
ATOM     16  C   UNL     1       7.482   7.949  17.122  0.00  0.00    +0.000 C 
BRANCH  16  18
ATOM     17  N   UNL     1       8.408  10.145  17.783  0.00  0.00    +0.000 N 
ATOM     18  C   UNL     1       8.309   8.793  18.103  0.00  0.00    +0.000 C 
ATOM     19  O   UNL     1       8.778   8.252  19.096  0.00  0.00    +0.000 OA
ATOM     20  H   UNL     1       8.083  10.385  16.851  0.00  0.00    +0.000 HD
BRANCH  17  28
ATOM     21  C   UNL     1       7.872  12.977  17.231  0.00  0.00    +0.000 C 
ATOM     22  C   UNL     1       8.887  12.525  18.252  0.00  0.00    +0.000 A 
ATOM     23  C   UNL     1       9.643  13.475  18.981  0.00  0.00    +0.000 A 
ATOM     24 CL   UNL     1       9.490  15.185  18.739  0.00  0.00    +0.000 Cl
ATOM     25  C   UNL     1      10.576  13.080  19.943  0.00  0.00    +0.000 A 
ATOM     26  C   UNL     1      10.756  11.733  20.219  0.00  0.00    +0.000 A 
ATOM     27  C   UNL     1      10.018  10.782  19.516  0.00  0.00    +0.000 A 
ATOM     28  C   UNL     1       9.106  11.144  18.516  0.00  0.00    +0.000 A 
ENDBRANCH  17  28
ENDBRANCH  16  18
ENDBRANCH   1  16
TORSDOF 6
ENDMDL
MODEL 7
REMARK VINA RESULT:      -7.1      2.016      2.666
REMARK  Name = 
REMARK  8 active torsions:
REMARK  status: ('A' for Active; 'I' for Inactive)
REMARK    1  A    between atoms: C_1  and  C_2
REMARK    2  A    between atoms: C_8  and  N_9
REMARK    3  A    between atoms: C_10  and  C_12
REMARK    4  A    between atoms: C_12  and  S_13
REMARK    5  A    between atoms: S_13  and  C_14
REMARK    6  A    between atoms: C_14  and  C_15
REMARK    7  A    between atoms: C_14  and  C_16
REMARK    8  A    between atoms: C_18  and  O_19
REMARK                            x       y       z     vdW  Elec       q    Type
REMARK                         _______ _______ _______ _____ _____    ______ ____
ROOT
ATOM      1  S   UNL     1       1.248   4.083  19.719  0.00  0.00    +0.000 S 
ENDROOT
BRANCH   1   2
ATOM      2  C   UNL     1       2.721   3.018  19.412  0.00  0.00    +0.000 C 
ATOM      3  C   UNL     1       2.412   1.682  18.738  0.00  0.00    +0.000 C 
BRANCH   2   4
ATOM      4  C   UNL     1       3.881   3.716  18.723  0.00  0.00    +0.000 A 
ATOM      5  N   UNL     1       4.817   4.271  19.513  0.00  0.00    +0.000 NA
ATOM      6  C   UNL     1       5.882   4.766  18.873  0.00  0.00    +0.000 A 
ATOM      7  C   UNL     1       6.087   4.745  17.504  0.00  0.00    +0.000 A 
ATOM      8  C   UNL     1       7.234   5.246  16.848  0.00  0.00    +0.000 A 
ATOM      9  C   UNL     1       7.334   5.170  15.462  0.00  0.00    +0.000 A 
ATOM     10  C   UNL     1       6.290   4.609  14.734  0.00  0.00    +0.000 A 
ATOM     11  C   UNL     1       5.160   4.118  15.396  0.00  0.00    +0.000 A 
ATOM     12  C   UNL     1       5.044   4.167  16.781  0.00  0.00    +0.000 A 
ATOM     13  N   UNL     1       3.957   3.653  17.376  0.00  0.00    +0.000 NA
BRANCH   6  14
ATOM     14  O   UNL     1       6.804   5.304  19.717  0.00  0.00    +0.000 OA
ATOM     15  H   UNL     1       6.294   6.046  20.087  0.00  0.00    +0.000 HD
ENDBRANCH   6  14
ENDBRANCH   2   4
ENDBRANCH   1   2
BRANCH   1  16
ATOM     16  C   UNL     1       1.891   5.305  20.917  0.00  0.00    +0.000 C 
BRANCH  16  18
ATOM     17  N   UNL     1       1.003   7.611  21.029  0.00  0.00    +0.000 N 
ATOM     18  C   UNL     1       1.856   6.735  20.360  0.00  0.00    +0.000 C 
ATOM     19  O   UNL     1       2.587   7.021  19.420  0.00  0.00    +0.000 OA
ATOM     20  H   UNL     1       0.369   7.165  21.686  0.00  0.00    +0.000 HD
BRANCH  17  28
ATOM     21  C   UNL     1       0.024   9.411  23.129  0.00  0.00    +0.000 C 
ATOM     22  C   UNL     1       0.283   9.874  21.715  0.00  0.00    +0.000 A 
ATOM     23  C   UNL     1       0.039  11.219  21.346  0.00  0.00    +0.000 A 
ATOM     24 CL   UNL     1      -0.591  12.399  22.448  0.00  0.00    +0.000 Cl
ATOM     25  C   UNL     1       0.288  11.673  20.048  0.00  0.00    +0.000 A 
ATOM     26  C   UNL     1       0.810  10.805  19.100  0.00  0.00    +0.000 A 
ATOM     27  C   UNL     1       1.061   9.479  19.446  0.00  0.00    +0.000 A 
ATOM     28  C   UNL     1       0.783   8.982  20.726  0.00  0.00    +0.000 A 
ENDBRANCH  17  28
ENDBRANCH  16  18
ENDBRANCH   1  16
TORSDOF 6
ENDMDL
MODEL 8
REMARK VINA RESULT:      -7.1      5.041      7.519
REMARK  Name = 
REMARK  8 active torsions:
REMARK  status: ('A' for Active; 'I' for Inactive)
REMARK    1  A    between atoms: C_1  and  C_2
REMARK    2  A    between atoms: C_8  and  N_9
REMARK    3  A    between atoms: C_10  and  C_12
REMARK    4  A    between atoms: C_12  and  S_13
REMARK    5  A    between atoms: S_13  and  C_14
REMARK    6  A    between atoms: C_14  and  C_15
REMARK    7  A    between atoms: C_14  and  C_16
REMARK    8  A    between atoms: C_18  and  O_19
REMARK                            x       y       z     vdW  Elec       q    Type
REMARK                         _______ _______ _______ _____ _____    ______ ____
ROOT
ATOM      1  S   UNL     1       7.820   6.943  18.394  0.00  0.00    +0.000 S 
ENDROOT
BRANCH   1   2
ATOM      2  C   UNL     1       6.888   5.955  17.147  0.00  0.00    +0.000 C 
ATOM      3  C   UNL     1       7.651   4.756  16.585  0.00  0.00    +0.000 C 
BRANCH   2   4
ATOM      4  C   UNL     1       5.485   5.554  17.569  0.00  0.00    +0.000 A 
ATOM      5  N   UNL     1       4.604   6.547  17.785  0.00  0.00    +0.000 NA
ATOM      6  C   UNL     1       3.350   6.153  18.033  0.00  0.00    +0.000 A 
ATOM      7  C   UNL     1       2.907   4.842  18.079  0.00  0.00    +0.000 A 
ATOM      8  C   UNL     1       1.571   4.446  18.312  0.00  0.00    +0.000 A 
ATOM      9  C   UNL     1       1.238   3.094  18.334  0.00  0.00    +0.000 A 
ATOM     10  C   UNL     1       2.234   2.144  18.136  0.00  0.00    +0.000 A 
ATOM     11  C   UNL     1       3.553   2.551  17.907  0.00  0.00    +0.000 A 
ATOM     12  C   UNL     1       3.908   3.894  17.864  0.00  0.00    +0.000 A 
ATOM     13  N   UNL     1       5.179   4.240  17.607  0.00  0.00    +0.000 NA
BRANCH   6  14
ATOM     14  O   UNL     1       2.498   7.195  18.232  0.00  0.00    +0.000 OA
ATOM     15  H   UNL     1       3.011   7.727  18.865  0.00  0.00    +0.000 HD
ENDBRANCH   6  14
ENDBRANCH   2   4
ENDBRANCH   1   2
BRANCH   1  16
ATOM     16  C   UNL     1       7.887   8.595  17.614  0.00  0.00    +0.000 C 
BRANCH  16  18
ATOM     17  N   UNL     1       9.233  10.669  17.684  0.00  0.00    +0.000 N 
ATOM     18  C   UNL     1       8.764   9.574  18.407  0.00  0.00    +0.000 C 
ATOM     19  O   UNL     1       8.957   9.362  19.597  0.00  0.00    +0.000 OA
ATOM     20  H   UNL     1       9.097  10.602  16.679  0.00  0.00    +0.000 HD
BRANCH  17  28
ATOM     21  C   UNL     1       8.145  13.389  17.855  0.00  0.00    +0.000 C 
ATOM     22  C   UNL     1       9.566  13.055  18.240  0.00  0.00    +0.000 A 
ATOM     23  C   UNL     1      10.445  14.071  18.689  0.00  0.00    +0.000 A 
ATOM     24 CL   UNL     1       9.979  15.737  18.797  0.00  0.00    +0.000 Cl
ATOM     25  C   UNL     1      11.758  13.781  19.066  0.00  0.00    +0.000 A 
ATOM     26  C   UNL     1      12.216  12.473  19.030  0.00  0.00    +0.000 A 
ATOM     27  C   UNL     1      11.365  11.458  18.595  0.00  0.00    +0.000 A 
ATOM     28  C   UNL     1      10.056  11.721  18.170  0.00  0.00    +0.000 A 
ENDBRANCH  17  28
ENDBRANCH  16  18
ENDBRANCH   1  16
TORSDOF 6
ENDMDL
MODEL 9
REMARK VINA RESULT:      -7.0      4.517      7.094
REMARK  Name = 
REMARK  8 active torsions:
REMARK  status: ('A' for Active; 'I' for Inactive)
REMARK    1  A    between atoms: C_1  and  C_2
REMARK    2  A    between atoms: C_8  and  N_9
REMARK    3  A    between atoms: C_10  and  C_12
REMARK    4  A    between atoms: C_12  and  S_13
REMARK    5  A    between atoms: S_13  and  C_14
REMARK    6  A    between atoms: C_14  and  C_15
REMARK    7  A    between atoms: C_14  and  C_16
REMARK    8  A    between atoms: C_18  and  O_19
REMARK                            x       y       z     vdW  Elec       q    Type
REMARK                         _______ _______ _______ _____ _____    ______ ____
ROOT
ATOM      1  S   UNL     1       6.863   7.185  17.096  0.00  0.00    +0.000 S 
ENDROOT
BRANCH   1   2
ATOM      2  C   UNL     1       6.451   5.456  17.585  0.00  0.00    +0.000 C 
ATOM      3  C   UNL     1       7.604   4.684  18.226  0.00  0.00    +0.000 C 
BRANCH   2   4
ATOM      4  C   UNL     1       5.180   5.310  18.405  0.00  0.00    +0.000 A 
ATOM      5  N   UNL     1       4.315   6.340  18.382  0.00  0.00    +0.000 NA
ATOM      6  C   UNL     1       3.156   6.125  19.012  0.00  0.00    +0.000 A 
ATOM      7  C   UNL     1       2.792   4.958  19.664  0.00  0.00    +0.000 A 
ATOM      8  C   UNL     1       1.548   4.739  20.299  0.00  0.00    +0.000 A 
ATOM      9  C   UNL     1       1.289   3.522  20.922  0.00  0.00    +0.000 A 
ATOM     10  C   UNL     1       2.268   2.534  20.922  0.00  0.00    +0.000 A 
ATOM     11  C   UNL     1       3.494   2.766  20.289  0.00  0.00    +0.000 A 
ATOM     12  C   UNL     1       3.772   3.966  19.646  0.00  0.00    +0.000 A 
ATOM     13  N   UNL     1       4.949   4.132  19.023  0.00  0.00    +0.000 NA
BRANCH   6  14
ATOM     14  O   UNL     1       2.313   7.191  18.948  0.00  0.00    +0.000 OA
ATOM     15  H   UNL     1       1.512   6.809  19.346  0.00  0.00    +0.000 HD
ENDBRANCH   6  14
ENDBRANCH   2   4
ENDBRANCH   1   2
BRANCH   1  16
ATOM     16  C   UNL     1       8.060   7.682  18.385  0.00  0.00    +0.000 C 
BRANCH  16  18
ATOM     17  N   UNL     1       9.396   9.601  19.192  0.00  0.00    +0.000 N 
ATOM     18  C   UNL     1       8.404   9.177  18.310  0.00  0.00    +0.000 C 
ATOM     19  O   UNL     1       7.835   9.872  17.478  0.00  0.00    +0.000 OA
ATOM     20  H   UNL     1       9.647   8.923  19.905  0.00  0.00    +0.000 HD
BRANCH  17  28
ATOM     21  C   UNL     1       8.815  11.126  21.631  0.00  0.00    +0.000 C 
ATOM     22  C   UNL     1       9.617  11.696  20.487  0.00  0.00    +0.000 A 
ATOM     23  C   UNL     1      10.112  13.022  20.549  0.00  0.00    +0.000 A 
ATOM     24 CL   UNL     1       9.813  14.076  21.892  0.00  0.00    +0.000 Cl
ATOM     25  C   UNL     1      10.870  13.564  19.509  0.00  0.00    +0.000 A 
ATOM     26  C   UNL     1      11.176  12.790  18.399  0.00  0.00    +0.000 A 
ATOM     27  C   UNL     1      10.703  11.481  18.321  0.00  0.00    +0.000 A 
ATOM     28  C   UNL     1       9.905  10.922  19.328  0.00  0.00    +0.000 A 
ENDBRANCH  17  28
ENDBRANCH  16  18
ENDBRANCH   1  16
TORSDOF 6
ENDMDL
