MODEL 1
REMARK VINA RESULT:      -4.0      0.000      0.000
REMARK  Name = 
REMARK  1 active torsions:
REMARK  status: ('A' for Active; 'I' for Inactive)
REMARK    1  A    between atoms: C_2  and  C_3
REMARK                            x       y       z     vdW  Elec       q    Type
REMARK                         _______ _______ _______ _____ _____    ______ ____
ROOT
ATOM      1  C   UNL     1       7.102   4.621  16.457  0.00  0.00    +0.000 A 
ATOM      2  N   UNL     1       7.523   5.344  15.438  0.00  0.00    +0.000 NA
ATOM      3  C   UNL     1       6.860   4.859  14.339  0.00  0.00    +0.000 A 
ATOM      4  C   UNL     1       6.023   3.827  14.692  0.00  0.00    +0.000 A 
ATOM      5  N   UNL     1       6.187   3.686  16.043  0.00  0.00    +0.000 N 
ATOM      6  H   UNL     1       5.723   3.015  16.640  0.00  0.00    +0.000 HD
ENDROOT
BRANCH   1   8
ATOM      7  N   UNL     1       7.853   4.957  18.911  0.00  0.00    +0.000 NA
ATOM      8  C   UNL     1       7.522   4.770  17.813  0.00  0.00    +0.000 C 
ENDBRANCH   1   8
TORSDOF 1
ENDMDL
MODEL 2
REMARK VINA RESULT:      -4.0     11.248     12.252
REMARK  Name = 
REMARK  1 active torsions:
REMARK  status: ('A' for Active; 'I' for Inactive)
REMARK    1  A    between atoms: C_2  and  C_3
REMARK                            x       y       z     vdW  Elec       q    Type
REMARK                         _______ _______ _______ _____ _____    ______ ____
ROOT
ATOM      1  C   UNL     1      10.122   4.216  27.623  0.00  0.00    +0.000 A 
ATOM      2  N   UNL     1      10.779   5.359  27.611  0.00  0.00    +0.000 NA
ATOM      3  C   UNL     1      12.073   5.048  27.944  0.00  0.00    +0.000 A 
ATOM      4  C   UNL     1      12.209   3.698  28.162  0.00  0.00    +0.000 A 
ATOM      5  N   UNL     1      10.960   3.180  27.955  0.00  0.00    +0.000 N 
ATOM      6  H   UNL     1      10.690   2.209  28.030  0.00  0.00    +0.000 HD
ENDROOT
BRANCH   1   8
ATOM      7  N   UNL     1       7.596   3.978  27.119  0.00  0.00    +0.000 NA
ATOM      8  C   UNL     1       8.735   4.049  27.335  0.00  0.00    +0.000 C 
ENDBRANCH   1   8
TORSDOF 1
ENDMDL
MODEL 3
REMARK VINA RESULT:      -4.0     11.285     12.357
REMARK  Name = 
REMARK  1 active torsions:
REMARK  status: ('A' for Active; 'I' for Inactive)
REMARK    1  A    between atoms: C_2  and  C_3
REMARK                            x       y       z     vdW  Elec       q    Type
REMARK                         _______ _______ _______ _____ _____    ______ ____
ROOT
ATOM      1  C   UNL     1      10.239   4.211  27.654  0.00  0.00    +0.000 A 
ATOM      2  N   UNL     1      11.062   3.210  27.899  0.00  0.00    +0.000 NA
ATOM      3  C   UNL     1      12.289   3.782  28.116  0.00  0.00    +0.000 A 
ATOM      4  C   UNL     1      12.215   5.150  28.003  0.00  0.00    +0.000 A 
ATOM      5  N   UNL     1      10.905   5.410  27.708  0.00  0.00    +0.000 N 
ATOM      6  H   UNL     1      10.490   6.319  27.555  0.00  0.00    +0.000 HD
ENDROOT
BRANCH   1   8
ATOM      7  N   UNL     1       7.721   3.932  27.126  0.00  0.00    +0.000 NA
ATOM      8  C   UNL     1       8.846   4.093  27.370  0.00  0.00    +0.000 C 
ENDBRANCH   1   8
TORSDOF 1
ENDMDL
MODEL 4
REMARK VINA RESULT:      -3.9     11.327     11.933
REMARK  Name = 
REMARK  1 active torsions:
REMARK  status: ('A' for Active; 'I' for Inactive)
REMARK    1  A    between atoms: C_2  and  C_3
REMARK                            x       y       z     vdW  Elec       q    Type
REMARK                         _______ _______ _______ _____ _____    ______ ____
ROOT
ATOM      1  C   UNL     1       8.979   4.452  27.741  0.00  0.00    +0.000 A 
ATOM      2  N   UNL     1       7.924   3.901  27.172  0.00  0.00    +0.000 NA
ATOM      3  C   UNL     1       6.850   4.654  27.575  0.00  0.00    +0.000 A 
ATOM      4  C   UNL     1       7.254   5.677  28.399  0.00  0.00    +0.000 A 
ATOM      5  N   UNL     1       8.611   5.537  28.497  0.00  0.00    +0.000 N 
ATOM      6  H   UNL     1       9.241   6.122  29.029  0.00  0.00    +0.000 HD
ENDROOT
BRANCH   1   8
ATOM      7  N   UNL     1      11.418   3.607  27.554  0.00  0.00    +0.000 NA
ATOM      8  C   UNL     1      10.327   4.003  27.606  0.00  0.00    +0.000 C 
ENDBRANCH   1   8
TORSDOF 1
ENDMDL
MODEL 5
REMARK VINA RESULT:      -3.9      0.331      1.427
REMARK  Name = 
REMARK  1 active torsions:
REMARK  status: ('A' for Active; 'I' for Inactive)
REMARK    1  A    between atoms: C_2  and  C_3
REMARK                            x       y       z     vdW  Elec       q    Type
REMARK                         _______ _______ _______ _____ _____    ______ ____
ROOT
ATOM      1  C   UNL     1       7.033   4.539  16.175  0.00  0.00    +0.000 A 
ATOM      2  N   UNL     1       6.061   3.760  15.742  0.00  0.00    +0.000 NA
ATOM      3  C   UNL     1       6.001   3.960  14.386  0.00  0.00    +0.000 A 
ATOM      4  C   UNL     1       6.948   4.872  13.986  0.00  0.00    +0.000 A 
ATOM      5  N   UNL     1       7.598   5.233  15.134  0.00  0.00    +0.000 N 
ATOM      6  H   UNL     1       8.360   5.893  15.214  0.00  0.00    +0.000 HD
ENDROOT
BRANCH   1   8
ATOM      7  N   UNL     1       7.743   4.772  18.652  0.00  0.00    +0.000 NA
ATOM      8  C   UNL     1       7.460   4.662  17.531  0.00  0.00    +0.000 C 
ENDBRANCH   1   8
TORSDOF 1
ENDMDL
MODEL 6
REMARK VINA RESULT:      -3.7     11.359     12.043
REMARK  Name = 
REMARK  1 active torsions:
REMARK  status: ('A' for Active; 'I' for Inactive)
REMARK    1  A    between atoms: C_2  and  C_3
REMARK                            x       y       z     vdW  Elec       q    Type
REMARK                         _______ _______ _______ _____ _____    ______ ____
ROOT
ATOM      1  C   UNL     1       7.463   5.050  27.949  0.00  0.00    +0.000 A 
ATOM      2  N   UNL     1       7.881   4.026  27.230  0.00  0.00    +0.000 NA
ATOM      3  C   UNL     1       9.249   4.026  27.346  0.00  0.00    +0.000 A 
ATOM      4  C   UNL     1       9.670   5.062  28.144  0.00  0.00    +0.000 A 
ATOM      5  N   UNL     1       8.523   5.707  28.521  0.00  0.00    +0.000 N 
ATOM      6  H   UNL     1       8.457   6.522  29.115  0.00  0.00    +0.000 HD
ENDROOT
BRANCH   1   8
ATOM      7  N   UNL     1       4.980   5.699  28.281  0.00  0.00    +0.000 NA
ATOM      8  C   UNL     1       6.102   5.443  28.124  0.00  0.00    +0.000 C 
ENDBRANCH   1   8
TORSDOF 1
ENDMDL
MODEL 7
REMARK VINA RESULT:      -3.7      1.313      3.221
REMARK  Name = 
REMARK  1 active torsions:
REMARK  status: ('A' for Active; 'I' for Inactive)
REMARK    1  A    between atoms: C_2  and  C_3
REMARK                            x       y       z     vdW  Elec       q    Type
REMARK                         _______ _______ _______ _____ _____    ______ ____
ROOT
ATOM      1  C   UNL     1       6.776   4.743  15.768  0.00  0.00    +0.000 A 
ATOM      2  N   UNL     1       7.250   5.948  16.020  0.00  0.00    +0.000 NA
ATOM      3  C   UNL     1       7.363   6.025  17.385  0.00  0.00    +0.000 A 
ATOM      4  C   UNL     1       6.953   4.853  17.974  0.00  0.00    +0.000 A 
ATOM      5  N   UNL     1       6.581   4.046  16.934  0.00  0.00    +0.000 N 
ATOM      6  H   UNL     1       6.225   3.102  17.001  0.00  0.00    +0.000 HD
ENDROOT
BRANCH   1   8
ATOM      7  N   UNL     1       6.313   3.822  13.395  0.00  0.00    +0.000 NA
ATOM      8  C   UNL     1       6.495   4.212  14.474  0.00  0.00    +0.000 C 
ENDBRANCH   1   8
TORSDOF 1
ENDMDL
MODEL 8
REMARK VINA RESULT:      -3.6      1.403      3.577
REMARK  Name = 
REMARK  1 active torsions:
REMARK  status: ('A' for Active; 'I' for Inactive)
REMARK    1  A    between atoms: C_2  and  C_3
REMARK                            x       y       z     vdW  Elec       q    Type
REMARK                         _______ _______ _______ _____ _____    ______ ____
ROOT
ATOM      1  C   UNL     1       7.137   5.156  16.854  0.00  0.00    +0.000 A 
ATOM      2  N   UNL     1       7.323   4.633  18.050  0.00  0.00    +0.000 NA
ATOM      3  C   UNL     1       7.727   5.671  18.851  0.00  0.00    +0.000 A 
ATOM      4  C   UNL     1       7.788   6.843  18.136  0.00  0.00    +0.000 A 
ATOM      5  N   UNL     1       7.410   6.501  16.866  0.00  0.00    +0.000 N 
ATOM      6  H   UNL     1       7.342   7.121  16.070  0.00  0.00    +0.000 HD
ENDROOT
BRANCH   1   8
ATOM      7  N   UNL     1       6.364   3.812  14.783  0.00  0.00    +0.000 NA
ATOM      8  C   UNL     1       6.710   4.446  15.692  0.00  0.00    +0.000 C 
ENDBRANCH   1   8
TORSDOF 1
ENDMDL
MODEL 9
REMARK VINA RESULT:      -3.6      1.364      3.487
REMARK  Name = 
REMARK  1 active torsions:
REMARK  status: ('A' for Active; 'I' for Inactive)
REMARK    1  A    between atoms: C_2  and  C_3
REMARK                            x       y       z     vdW  Elec       q    Type
REMARK                         _______ _______ _______ _____ _____    ______ ____
ROOT
ATOM      1  C   UNL     1       6.518   4.265  15.901  0.00  0.00    +0.000 A 
ATOM      2  N   UNL     1       5.571   4.326  16.817  0.00  0.00    +0.000 NA
ATOM      3  C   UNL     1       6.213   4.610  17.996  0.00  0.00    +0.000 A 
ATOM      4  C   UNL     1       7.568   4.725  17.797  0.00  0.00    +0.000 A 
ATOM      5  N   UNL     1       7.749   4.502  16.459  0.00  0.00    +0.000 N 
ATOM      6  H   UNL     1       8.628   4.509  15.960  0.00  0.00    +0.000 HD
ENDROOT
BRANCH   1   8
ATOM      7  N   UNL     1       6.218   3.791  13.375  0.00  0.00    +0.000 NA
ATOM      8  C   UNL     1       6.318   3.992  14.514  0.00  0.00    +0.000 C 
ENDBRANCH   1   8
TORSDOF 1
ENDMDL
