MODEL 1
REMARK VINA RESULT:      -7.3      0.000      0.000
REMARK  Name = 
REMARK  16 active torsions:
REMARK  status: ('A' for Active; 'I' for Inactive)
REMARK    1  A    between atoms: C_1  and  C_2
REMARK    2  A    between atoms: C_7  and  C_8
REMARK    3  A    between atoms: C_11  and  S_12
REMARK    4  A    between atoms: S_12  and  C_13
REMARK    5  A    between atoms: C_13  and  C_14
REMARK    6  A    between atoms: N_16  and  C_17
REMARK    7  A    between atoms: N_16  and  C_21
REMARK    8  A    between atoms: C_17  and  C_18
REMARK    9  A    between atoms: C_18  and  C_19
REMARK   10  A    between atoms: C_18  and  C_20
REMARK   11  A    between atoms: C_22  and  N_23
REMARK   12  A    between atoms: N_24  and  C_25
REMARK   13  A    between atoms: C_25  and  C_26
REMARK   14  A    between atoms: C_26  and  C_27
REMARK   15  A    between atoms: C_26  and  C_28
REMARK   16  A    between atoms: N_34  and  C_35
REMARK                            x       y       z     vdW  Elec       q    Type
REMARK                         _______ _______ _______ _____ _____    ______ ____
ROOT
ATOM      1  C   UNL     1       3.034   5.152  19.867  0.00  0.00    +0.000 C 
ATOM      2  O   UNL     1       2.142   4.667  20.570  0.00  0.00    +0.000 OA
ATOM      3  N   UNL     1       4.144   4.381  19.444  0.00  0.00    +0.000 N 
ENDROOT
BRANCH   3   4
ATOM      4  C   UNL     1       5.105   4.895  18.576  0.00  0.00    +0.000 A 
ATOM      5  C   UNL     1       4.871   4.990  17.245  0.00  0.00    +0.000 A 
ATOM      6  N   UNL     1       5.811   5.609  16.429  0.00  0.00    +0.000 N 
ATOM      7  C   UNL     1       6.960   6.214  16.928  0.00  0.00    +0.000 A 
ATOM      8  O   UNL     1       7.798   6.793  16.238  0.00  0.00    +0.000 OA
ATOM      9  N   UNL     1       7.151   6.137  18.274  0.00  0.00    +0.000 N 
ATOM     10  C   UNL     1       6.389   5.411  19.132  0.00  0.00    +0.000 A 
ATOM     11  O   UNL     1       6.751   5.185  20.284  0.00  0.00    +0.000 OA
ATOM     12  H   UNL     1       8.025   6.501  18.623  0.00  0.00    +0.000 HD
BRANCH   5  13
ATOM     13  N   UNL     1       3.676   4.506  16.721  0.00  0.00    +0.000 N 
ATOM     14  H   UNL     1       2.860   5.020  17.062  0.00  0.00    +0.000 HD
ATOM     15  H   UNL     1       3.664   4.449  15.713  0.00  0.00    +0.000 HD
ENDBRANCH   5  13
BRANCH   6  16
ATOM     16  C   UNL     1       5.624   5.618  14.976  0.00  0.00    +0.000 C 
BRANCH  16  17
ATOM     17  C   UNL     1       6.311   4.451  14.233  0.00  0.00    +0.000 C 
ATOM     18  C   UNL     1       5.354   3.669  13.334  0.00  0.00    +0.000 C 
ATOM     19  C   UNL     1       7.464   5.007  13.393  0.00  0.00    +0.000 C 
ENDBRANCH  16  17
ENDBRANCH   6  16
ENDBRANCH   3   4
BRANCH   1  20
ATOM     20  C   UNL     1       3.022   6.638  19.448  0.00  0.00    +0.000 C 
BRANCH  20  21
ATOM     21  S   UNL     1       1.734   7.628  20.240  0.00  0.00    +0.000 S 
BRANCH  21  25
ATOM     22  C   UNL     1       1.510  11.148  18.647  0.00  0.00    +0.000 A 
ATOM     23  N   UNL     1       1.985  10.460  17.626  0.00  0.00    +0.000 NA
ATOM     24  N   UNL     1       2.164   9.146  18.017  0.00  0.00    +0.000 NA
ATOM     25  C   UNL     1       1.757   9.052  19.260  0.00  0.00    +0.000 A 
ATOM     26  N   UNL     1       1.295  10.259  19.692  0.00  0.00    +0.000 N 
ATOM     27  C   UNL     1       0.697  10.547  20.968  0.00  0.00    +0.000 C 
BRANCH  22  34
ATOM     28  C   UNL     1      -1.241  12.347  18.250  0.00  0.00    +0.000 C 
ATOM     29  C   UNL     1      -0.011  13.172  18.526  0.00  0.00    +0.000 A 
ATOM     30  C   UNL     1      -0.153  14.573  18.576  0.00  0.00    +0.000 A 
ATOM     31  C   UNL     1       0.937  15.402  18.835  0.00  0.00    +0.000 A 
ATOM     32  C   UNL     1       2.195  14.847  19.012  0.00  0.00    +0.000 A 
ATOM     33  C   UNL     1       2.360  13.466  18.916  0.00  0.00    +0.000 A 
ATOM     34  C   UNL     1       1.268  12.602  18.702  0.00  0.00    +0.000 A 
ENDBRANCH  22  34
ENDBRANCH  21  25
ENDBRANCH  20  21
ENDBRANCH   1  20
BRANCH   3  35
ATOM     35  C   UNL     1       4.180   2.923  19.702  0.00  0.00    +0.000 C 
BRANCH  35  36
ATOM     36  C   UNL     1       3.331   2.014  18.757  0.00  0.00    +0.000 C 
ATOM     37  C   UNL     1       4.055   0.789  18.185  0.00  0.00    +0.000 C 
ATOM     38  C   UNL     1       1.995   1.593  19.370  0.00  0.00    +0.000 C 
ENDBRANCH  35  36
ENDBRANCH   3  35
TORSDOF 10
ENDMDL
MODEL 2
REMARK VINA RESULT:      -7.1      2.366      4.803
REMARK  Name = 
REMARK  16 active torsions:
REMARK  status: ('A' for Active; 'I' for Inactive)
REMARK    1  A    between atoms: C_1  and  C_2
REMARK    2  A    between atoms: C_7  and  C_8
REMARK    3  A    between atoms: C_11  and  S_12
REMARK    4  A    between atoms: S_12  and  C_13
REMARK    5  A    between atoms: C_13  and  C_14
REMARK    6  A    between atoms: N_16  and  C_17
REMARK    7  A    between atoms: N_16  and  C_21
REMARK    8  A    between atoms: C_17  and  C_18
REMARK    9  A    between atoms: C_18  and  C_19
REMARK   10  A    between atoms: C_18  and  C_20
REMARK   11  A    between atoms: C_22  and  N_23
REMARK   12  A    between atoms: N_24  and  C_25
REMARK   13  A    between atoms: C_25  and  C_26
REMARK   14  A    between atoms: C_26  and  C_27
REMARK   15  A    between atoms: C_26  and  C_28
REMARK   16  A    between atoms: N_34  and  C_35
REMARK                            x       y       z     vdW  Elec       q    Type
REMARK                         _______ _______ _______ _____ _____    ______ ____
ROOT
ATOM      1  C   UNL     1       3.538   7.433  17.613  0.00  0.00    +0.000 C 
ATOM      2  O   UNL     1       3.561   8.417  16.867  0.00  0.00    +0.000 OA
ATOM      3  N   UNL     1       4.224   6.239  17.281  0.00  0.00    +0.000 N 
ENDROOT
BRANCH   3   4
ATOM      4  C   UNL     1       4.280   5.158  18.159  0.00  0.00    +0.000 A 
ATOM      5  C   UNL     1       3.267   4.264  18.238  0.00  0.00    +0.000 A 
ATOM      6  N   UNL     1       3.408   3.141  19.046  0.00  0.00    +0.000 N 
ATOM      7  C   UNL     1       4.585   2.845  19.725  0.00  0.00    +0.000 A 
ATOM      8  O   UNL     1       4.753   1.849  20.425  0.00  0.00    +0.000 OA
ATOM      9  N   UNL     1       5.602   3.743  19.597  0.00  0.00    +0.000 N 
ATOM     10  C   UNL     1       5.508   4.948  18.979  0.00  0.00    +0.000 A 
ATOM     11  O   UNL     1       6.375   5.809  19.107  0.00  0.00    +0.000 OA
ATOM     12  H   UNL     1       6.423   3.571  20.158  0.00  0.00    +0.000 HD
BRANCH   5  13
ATOM     13  N   UNL     1       2.117   4.459  17.478  0.00  0.00    +0.000 N 
ATOM     14  H   UNL     1       1.884   3.647  16.901  0.00  0.00    +0.000 HD
ATOM     15  H   UNL     1       1.314   4.753  18.016  0.00  0.00    +0.000 HD
ENDBRANCH   5  13
BRANCH   6  16
ATOM     16  C   UNL     1       2.278   2.226  19.228  0.00  0.00    +0.000 C 
BRANCH  16  17
ATOM     17  C   UNL     1       1.347   2.583  20.408  0.00  0.00    +0.000 C 
ATOM     18  C   UNL     1       2.040   2.489  21.766  0.00  0.00    +0.000 C 
ATOM     19  C   UNL     1       0.809   4.002  20.203  0.00  0.00    +0.000 C 
ENDBRANCH  16  17
ENDBRANCH   6  16
ENDBRANCH   3   4
BRANCH   1  20
ATOM     20  C   UNL     1       2.722   7.422  18.922  0.00  0.00    +0.000 C 
BRANCH  20  21
ATOM     21  S   UNL     1       1.042   8.068  18.761  0.00  0.00    +0.000 S 
BRANCH  21  25
ATOM     22  C   UNL     1       0.238  10.588  21.587  0.00  0.00    +0.000 A 
ATOM     23  N   UNL     1       1.191   9.883  22.168  0.00  0.00    +0.000 NA
ATOM     24  N   UNL     1       1.601   8.887  21.301  0.00  0.00    +0.000 NA
ATOM     25  C   UNL     1       0.916   9.030  20.192  0.00  0.00    +0.000 A 
ATOM     26  N   UNL     1       0.081  10.104  20.295  0.00  0.00    +0.000 N 
ATOM     27  C   UNL     1      -0.777  10.631  19.268  0.00  0.00    +0.000 C 
BRANCH  22  34
ATOM     28  C   UNL     1       0.949  13.504  21.196  0.00  0.00    +0.000 C 
ATOM     29  C   UNL     1      -0.234  13.042  22.008  0.00  0.00    +0.000 A 
ATOM     30  C   UNL     1      -1.029  14.024  22.632  0.00  0.00    +0.000 A 
ATOM     31  C   UNL     1      -2.144  13.674  23.392  0.00  0.00    +0.000 A 
ATOM     32  C   UNL     1      -2.462  12.337  23.571  0.00  0.00    +0.000 A 
ATOM     33  C   UNL     1      -1.656  11.353  23.001  0.00  0.00    +0.000 A 
ATOM     34  C   UNL     1      -0.550  11.679  22.189  0.00  0.00    +0.000 A 
ENDBRANCH  22  34
ENDBRANCH  21  25
ENDBRANCH  20  21
ENDBRANCH   1  20
BRANCH   3  35
ATOM     35  C   UNL     1       5.123   6.198  16.104  0.00  0.00    +0.000 C 
BRANCH  35  36
ATOM     36  C   UNL     1       5.670   4.799  15.677  0.00  0.00    +0.000 C 
ATOM     37  C   UNL     1       5.255   4.320  14.280  0.00  0.00    +0.000 C 
ATOM     38  C   UNL     1       7.184   4.670  15.845  0.00  0.00    +0.000 C 
ENDBRANCH  35  36
ENDBRANCH   3  35
TORSDOF 10
ENDMDL
MODEL 3
REMARK VINA RESULT:      -7.0      3.943     10.508
REMARK  Name = 
REMARK  16 active torsions:
REMARK  status: ('A' for Active; 'I' for Inactive)
REMARK    1  A    between atoms: C_1  and  C_2
REMARK    2  A    between atoms: C_7  and  C_8
REMARK    3  A    between atoms: C_11  and  S_12
REMARK    4  A    between atoms: S_12  and  C_13
REMARK    5  A    between atoms: C_13  and  C_14
REMARK    6  A    between atoms: N_16  and  C_17
REMARK    7  A    between atoms: N_16  and  C_21
REMARK    8  A    between atoms: C_17  and  C_18
REMARK    9  A    between atoms: C_18  and  C_19
REMARK   10  A    between atoms: C_18  and  C_20
REMARK   11  A    between atoms: C_22  and  N_23
REMARK   12  A    between atoms: N_24  and  C_25
REMARK   13  A    between atoms: C_25  and  C_26
REMARK   14  A    between atoms: C_26  and  C_27
REMARK   15  A    between atoms: C_26  and  C_28
REMARK   16  A    between atoms: N_34  and  C_35
REMARK                            x       y       z     vdW  Elec       q    Type
REMARK                         _______ _______ _______ _____ _____    ______ ____
ROOT
ATOM      1  C   UNL     1       0.338  11.726  20.602  0.00  0.00    +0.000 C 
ATOM      2  O   UNL     1       1.552  11.809  20.393  0.00  0.00    +0.000 OA
ATOM      3  N   UNL     1      -0.430  12.863  20.955  0.00  0.00    +0.000 N 
ENDROOT
BRANCH   3   4
ATOM      4  C   UNL     1      -1.814  12.795  21.102  0.00  0.00    +0.000 A 
ATOM      5  C   UNL     1      -2.634  12.737  20.026  0.00  0.00    +0.000 A 
ATOM      6  N   UNL     1      -3.999  12.560  20.215  0.00  0.00    +0.000 N 
ATOM      7  C   UNL     1      -4.566  12.356  21.469  0.00  0.00    +0.000 A 
ATOM      8  O   UNL     1      -5.764  12.170  21.669  0.00  0.00    +0.000 OA
ATOM      9  N   UNL     1      -3.713  12.380  22.531  0.00  0.00    +0.000 N 
ATOM     10  C   UNL     1      -2.399  12.717  22.472  0.00  0.00    +0.000 A 
ATOM     11  O   UNL     1      -1.748  12.958  23.485  0.00  0.00    +0.000 OA
ATOM     12  H   UNL     1      -4.136  12.319  23.445  0.00  0.00    +0.000 HD
BRANCH   5  13
ATOM     13  N   UNL     1      -2.092  12.813  18.745  0.00  0.00    +0.000 N 
ATOM     14  H   UNL     1      -1.392  13.553  18.657  0.00  0.00    +0.000 HD
ATOM     15  H   UNL     1      -1.728  11.936  18.401  0.00  0.00    +0.000 HD
ENDBRANCH   5  13
BRANCH   6  16
ATOM     16  C   UNL     1      -4.909  12.609  19.067  0.00  0.00    +0.000 C 
BRANCH  16  17
ATOM     17  C   UNL     1      -5.163  11.243  18.390  0.00  0.00    +0.000 C 
ATOM     18  C   UNL     1      -6.622  10.797  18.474  0.00  0.00    +0.000 C 
ATOM     19  C   UNL     1      -4.737  11.331  16.922  0.00  0.00    +0.000 C 
ENDBRANCH  16  17
ENDBRANCH   6  16
ENDBRANCH   3   4
BRANCH   1  20
ATOM     20  C   UNL     1      -0.409  10.377  20.544  0.00  0.00    +0.000 C 
BRANCH  20  21
ATOM     21  S   UNL     1       0.529   8.975  21.193  0.00  0.00    +0.000 S 
BRANCH  21  25
ATOM     22  C   UNL     1       2.627   7.241  18.442  0.00  0.00    +0.000 A 
ATOM     23  N   UNL     1       2.280   8.346  17.809  0.00  0.00    +0.000 NA
ATOM     24  N   UNL     1       1.481   9.107  18.642  0.00  0.00    +0.000 NA
ATOM     25  C   UNL     1       1.389   8.466  19.783  0.00  0.00    +0.000 A 
ATOM     26  N   UNL     1       2.122   7.317  19.734  0.00  0.00    +0.000 N 
ATOM     27  C   UNL     1       2.334   6.383  20.806  0.00  0.00    +0.000 C 
BRANCH  22  34
ATOM     28  C   UNL     1       1.340   4.570  17.834  0.00  0.00    +0.000 C 
ATOM     29  C   UNL     1       2.800   4.858  17.597  0.00  0.00    +0.000 A 
ATOM     30  C   UNL     1       3.604   3.818  17.089  0.00  0.00    +0.000 A 
ATOM     31  C   UNL     1       4.961   4.011  16.835  0.00  0.00    +0.000 A 
ATOM     32  C   UNL     1       5.546   5.235  17.120  0.00  0.00    +0.000 A 
ATOM     33  C   UNL     1       4.774   6.258  17.670  0.00  0.00    +0.000 A 
ATOM     34  C   UNL     1       3.390   6.105  17.892  0.00  0.00    +0.000 A 
ENDBRANCH  22  34
ENDBRANCH  21  25
ENDBRANCH  20  21
ENDBRANCH   1  20
BRANCH   3  35
ATOM     35  C   UNL     1       0.179  14.213  20.923  0.00  0.00    +0.000 C 
BRANCH  35  36
ATOM     36  C   UNL     1       0.570  14.782  19.522  0.00  0.00    +0.000 C 
ATOM     37  C   UNL     1      -0.348  15.879  18.969  0.00  0.00    +0.000 C 
ATOM     38  C   UNL     1       2.029  15.233  19.444  0.00  0.00    +0.000 C 
ENDBRANCH  35  36
ENDBRANCH   3  35
TORSDOF 10
ENDMDL
MODEL 4
REMARK VINA RESULT:      -6.9      3.557     10.316
REMARK  Name = 
REMARK  16 active torsions:
REMARK  status: ('A' for Active; 'I' for Inactive)
REMARK    1  A    between atoms: C_1  and  C_2
REMARK    2  A    between atoms: C_7  and  C_8
REMARK    3  A    between atoms: C_11  and  S_12
REMARK    4  A    between atoms: S_12  and  C_13
REMARK    5  A    between atoms: C_13  and  C_14
REMARK    6  A    between atoms: N_16  and  C_17
REMARK    7  A    between atoms: N_16  and  C_21
REMARK    8  A    between atoms: C_17  and  C_18
REMARK    9  A    between atoms: C_18  and  C_19
REMARK   10  A    between atoms: C_18  and  C_20
REMARK   11  A    between atoms: C_22  and  N_23
REMARK   12  A    between atoms: N_24  and  C_25
REMARK   13  A    between atoms: C_25  and  C_26
REMARK   14  A    between atoms: C_26  and  C_27
REMARK   15  A    between atoms: C_26  and  C_28
REMARK   16  A    between atoms: N_34  and  C_35
REMARK                            x       y       z     vdW  Elec       q    Type
REMARK                         _______ _______ _______ _____ _____    ______ ____
ROOT
ATOM      1  C   UNL     1      -0.610  10.236  18.225  0.00  0.00    +0.000 C 
ATOM      2  O   UNL     1      -0.967   9.286  17.522  0.00  0.00    +0.000 OA
ATOM      3  N   UNL     1      -1.528  11.226  18.652  0.00  0.00    +0.000 N 
ENDROOT
BRANCH   3   4
ATOM      4  C   UNL     1      -1.151  12.249  19.520  0.00  0.00    +0.000 A 
ATOM      5  C   UNL     1      -0.729  13.448  19.055  0.00  0.00    +0.000 A 
ATOM      6  N   UNL     1      -0.467  14.476  19.953  0.00  0.00    +0.000 N 
ATOM      7  C   UNL     1      -0.696  14.359  21.320  0.00  0.00    +0.000 A 
ATOM      8  O   UNL     1      -0.501  15.256  22.138  0.00  0.00    +0.000 OA
ATOM      9  N   UNL     1      -1.157  13.154  21.757  0.00  0.00    +0.000 N 
ATOM     10  C   UNL     1      -1.279  12.038  20.992  0.00  0.00    +0.000 A 
ATOM     11  O   UNL     1      -1.464  10.931  21.490  0.00  0.00    +0.000 OA
ATOM     12  H   UNL     1      -1.241  13.043  22.756  0.00  0.00    +0.000 HD
BRANCH   5  13
ATOM     13  N   UNL     1      -0.604  13.647  17.682  0.00  0.00    +0.000 N 
ATOM     14  H   UNL     1      -1.508  13.676  17.205  0.00  0.00    +0.000 HD
ATOM     15  H   UNL     1      -0.046  14.450  17.434  0.00  0.00    +0.000 HD
ENDBRANCH   5  13
BRANCH   6  16
ATOM     16  C   UNL     1       0.098  15.740  19.472  0.00  0.00    +0.000 C 
BRANCH  16  17
ATOM     17  C   UNL     1      -0.952  16.802  19.077  0.00  0.00    +0.000 C 
ATOM     18  C   UNL     1      -1.085  17.923  20.107  0.00  0.00    +0.000 C 
ATOM     19  C   UNL     1      -0.568  17.397  17.719  0.00  0.00    +0.000 C 
ENDBRANCH  16  17
ENDBRANCH   6  16
ENDBRANCH   3   4
BRANCH   1  20
ATOM     20  C   UNL     1       0.864  10.432  18.640  0.00  0.00    +0.000 C 
BRANCH  20  21
ATOM     21  S   UNL     1       1.431   9.309  19.937  0.00  0.00    +0.000 S 
BRANCH  21  25
ATOM     22  C   UNL     1       2.885   6.074  18.387  0.00  0.00    +0.000 A 
ATOM     23  N   UNL     1       3.234   6.952  17.465  0.00  0.00    +0.000 NA
ATOM     24  N   UNL     1       2.768   8.200  17.836  0.00  0.00    +0.000 NA
ATOM     25  C   UNL     1       2.175   8.063  18.998  0.00  0.00    +0.000 A 
ATOM     26  N   UNL     1       2.257   6.767  19.414  0.00  0.00    +0.000 N 
ATOM     27  C   UNL     1       1.795   6.233  20.667  0.00  0.00    +0.000 C 
BRANCH  22  34
ATOM     28  C   UNL     1       5.466   4.774  19.286  0.00  0.00    +0.000 C 
ATOM     29  C   UNL     1       4.284   3.996  18.769  0.00  0.00    +0.000 A 
ATOM     30  C   UNL     1       4.404   2.595  18.679  0.00  0.00    +0.000 A 
ATOM     31  C   UNL     1       3.351   1.807  18.218  0.00  0.00    +0.000 A 
ATOM     32  C   UNL     1       2.173   2.408  17.803  0.00  0.00    +0.000 A 
ATOM     33  C   UNL     1       2.058   3.797  17.839  0.00  0.00    +0.000 A 
ATOM     34  C   UNL     1       3.088   4.615  18.344  0.00  0.00    +0.000 A 
ENDBRANCH  22  34
ENDBRANCH  21  25
ENDBRANCH  20  21
ENDBRANCH   1  20
BRANCH   3  35
ATOM     35  C   UNL     1      -2.977  11.058  18.398  0.00  0.00    +0.000 C 
BRANCH  35  36
ATOM     36  C   UNL     1      -3.536  11.637  17.058  0.00  0.00    +0.000 C 
ATOM     37  C   UNL     1      -3.212  10.828  15.797  0.00  0.00    +0.000 C 
ATOM     38  C   UNL     1      -5.034  11.941  17.115  0.00  0.00    +0.000 C 
ENDBRANCH  35  36
ENDBRANCH   3  35
TORSDOF 10
ENDMDL
MODEL 5
REMARK VINA RESULT:      -6.9      4.365     11.246
REMARK  Name = 
REMARK  16 active torsions:
REMARK  status: ('A' for Active; 'I' for Inactive)
REMARK    1  A    between atoms: C_1  and  C_2
REMARK    2  A    between atoms: C_7  and  C_8
REMARK    3  A    between atoms: C_11  and  S_12
REMARK    4  A    between atoms: S_12  and  C_13
REMARK    5  A    between atoms: C_13  and  C_14
REMARK    6  A    between atoms: N_16  and  C_17
REMARK    7  A    between atoms: N_16  and  C_21
REMARK    8  A    between atoms: C_17  and  C_18
REMARK    9  A    between atoms: C_18  and  C_19
REMARK   10  A    between atoms: C_18  and  C_20
REMARK   11  A    between atoms: C_22  and  N_23
REMARK   12  A    between atoms: N_24  and  C_25
REMARK   13  A    between atoms: C_25  and  C_26
REMARK   14  A    between atoms: C_26  and  C_27
REMARK   15  A    between atoms: C_26  and  C_28
REMARK   16  A    between atoms: N_34  and  C_35
REMARK                            x       y       z     vdW  Elec       q    Type
REMARK                         _______ _______ _______ _____ _____    ______ ____
ROOT
ATOM      1  C   UNL     1      -0.364  12.365  19.318  0.00  0.00    +0.000 C 
ATOM      2  O   UNL     1       0.328  12.606  18.325  0.00  0.00    +0.000 OA
ATOM      3  N   UNL     1      -0.887  13.405  20.125  0.00  0.00    +0.000 N 
ENDROOT
BRANCH   3   4
ATOM      4  C   UNL     1      -1.744  13.143  21.192  0.00  0.00    +0.000 A 
ATOM      5  C   UNL     1      -3.083  13.056  21.013  0.00  0.00    +0.000 A 
ATOM      6  N   UNL     1      -3.893  12.686  22.081  0.00  0.00    +0.000 N 
ATOM      7  C   UNL     1      -3.382  12.319  23.322  0.00  0.00    +0.000 A 
ATOM      8  O   UNL     1      -4.066  11.961  24.278  0.00  0.00    +0.000 OA
ATOM      9  N   UNL     1      -2.028  12.379  23.463  0.00  0.00    +0.000 N 
ATOM     10  C   UNL     1      -1.168  12.890  22.545  0.00  0.00    +0.000 A 
ATOM     11  O   UNL     1       0.002  13.141  22.825  0.00  0.00    +0.000 OA
ATOM     12  H   UNL     1      -1.666  12.196  24.387  0.00  0.00    +0.000 HD
BRANCH   5  13
ATOM     13  N   UNL     1      -3.625  13.295  19.754  0.00  0.00    +0.000 N 
ATOM     14  H   UNL     1      -3.094  12.847  19.004  0.00  0.00    +0.000 HD
ATOM     15  H   UNL     1      -4.606  13.066  19.679  0.00  0.00    +0.000 HD
ENDBRANCH   5  13
BRANCH   6  16
ATOM     16  C   UNL     1      -5.350  12.697  21.932  0.00  0.00    +0.000 C 
BRANCH  16  17
ATOM     17  C   UNL     1      -6.015  14.060  22.225  0.00  0.00    +0.000 C 
ATOM     18  C   UNL     1      -7.180  13.957  23.209  0.00  0.00    +0.000 C 
ATOM     19  C   UNL     1      -4.958  15.018  22.781  0.00  0.00    +0.000 C 
ENDBRANCH  16  17
ENDBRANCH   6  16
ENDBRANCH   3   4
BRANCH   1  20
ATOM     20  C   UNL     1      -0.660  10.920  19.773  0.00  0.00    +0.000 C 
BRANCH  20  21
ATOM     21  S   UNL     1       0.710  10.110  20.628  0.00  0.00    +0.000 S 
BRANCH  21  25
ATOM     22  C   UNL     1       2.325   7.535  18.231  0.00  0.00    +0.000 A 
ATOM     23  N   UNL     1       2.260   8.586  17.435  0.00  0.00    +0.000 NA
ATOM     24  N   UNL     1       1.669   9.631  18.121  0.00  0.00    +0.000 NA
ATOM     25  C   UNL     1       1.422   9.207  19.337  0.00  0.00    +0.000 A 
ATOM     26  N   UNL     1       1.852   7.920  19.479  0.00  0.00    +0.000 N 
ATOM     27  C   UNL     1       1.828   7.130  20.681  0.00  0.00    +0.000 C 
BRANCH  22  34
ATOM     28  C   UNL     1       5.181   6.967  17.403  0.00  0.00    +0.000 C 
ATOM     29  C   UNL     1       4.119   5.902  17.497  0.00  0.00    +0.000 A 
ATOM     30  C   UNL     1       4.476   4.582  17.157  0.00  0.00    +0.000 A 
ATOM     31  C   UNL     1       3.551   3.542  17.227  0.00  0.00    +0.000 A 
ATOM     32  C   UNL     1       2.244   3.809  17.604  0.00  0.00    +0.000 A 
ATOM     33  C   UNL     1       1.863   5.118  17.895  0.00  0.00    +0.000 A 
ATOM     34  C   UNL     1       2.789   6.181  17.877  0.00  0.00    +0.000 A 
ENDBRANCH  22  34
ENDBRANCH  21  25
ENDBRANCH  20  21
ENDBRANCH   1  20
BRANCH   3  35
ATOM     35  C   UNL     1      -0.749  14.818  19.701  0.00  0.00    +0.000 C 
BRANCH  35  36
ATOM     36  C   UNL     1       0.566  15.556  20.107  0.00  0.00    +0.000 C 
ATOM     37  C   UNL     1       1.284  16.306  18.979  0.00  0.00    +0.000 C 
ATOM     38  C   UNL     1       0.388  16.476  21.316  0.00  0.00    +0.000 C 
ENDBRANCH  35  36
ENDBRANCH   3  35
TORSDOF 10
ENDMDL
MODEL 6
REMARK VINA RESULT:      -6.9      4.052     11.072
REMARK  Name = 
REMARK  16 active torsions:
REMARK  status: ('A' for Active; 'I' for Inactive)
REMARK    1  A    between atoms: C_1  and  C_2
REMARK    2  A    between atoms: C_7  and  C_8
REMARK    3  A    between atoms: C_11  and  S_12
REMARK    4  A    between atoms: S_12  and  C_13
REMARK    5  A    between atoms: C_13  and  C_14
REMARK    6  A    between atoms: N_16  and  C_17
REMARK    7  A    between atoms: N_16  and  C_21
REMARK    8  A    between atoms: C_17  and  C_18
REMARK    9  A    between atoms: C_18  and  C_19
REMARK   10  A    between atoms: C_18  and  C_20
REMARK   11  A    between atoms: C_22  and  N_23
REMARK   12  A    between atoms: N_24  and  C_25
REMARK   13  A    between atoms: C_25  and  C_26
REMARK   14  A    between atoms: C_26  and  C_27
REMARK   15  A    between atoms: C_26  and  C_28
REMARK   16  A    between atoms: N_34  and  C_35
REMARK                            x       y       z     vdW  Elec       q    Type
REMARK                         _______ _______ _______ _____ _____    ______ ____
ROOT
ATOM      1  C   UNL     1      -0.179  11.448  19.073  0.00  0.00    +0.000 C 
ATOM      2  O   UNL     1       0.499  11.451  18.041  0.00  0.00    +0.000 OA
ATOM      3  N   UNL     1      -0.716  12.644  19.607  0.00  0.00    +0.000 N 
ENDROOT
BRANCH   3   4
ATOM      4  C   UNL     1      -1.558  12.637  20.717  0.00  0.00    +0.000 A 
ATOM      5  C   UNL     1      -2.905  12.617  20.579  0.00  0.00    +0.000 A 
ATOM      6  N   UNL     1      -3.707  12.500  21.708  0.00  0.00    +0.000 N 
ATOM      7  C   UNL     1      -3.187  12.319  22.986  0.00  0.00    +0.000 A 
ATOM      8  O   UNL     1      -3.867  12.185  24.001  0.00  0.00    +0.000 OA
ATOM      9  N   UNL     1      -1.829  12.305  23.092  0.00  0.00    +0.000 N 
ATOM     10  C   UNL     1      -0.962  12.583  22.084  0.00  0.00    +0.000 A 
ATOM     11  O   UNL     1       0.229  12.794  22.296  0.00  0.00    +0.000 OA
ATOM     12  H   UNL     1      -1.454  12.260  24.028  0.00  0.00    +0.000 HD
BRANCH   5  13
ATOM     13  N   UNL     1      -3.466  12.671  19.305  0.00  0.00    +0.000 N 
ATOM     14  H   UNL     1      -4.486  12.738  19.327  0.00  0.00    +0.000 HD
ATOM     15  H   UNL     1      -3.075  13.391  18.715  0.00  0.00    +0.000 HD
ENDBRANCH   5  13
BRANCH   6  16
ATOM     16  C   UNL     1      -5.164  12.590  21.583  0.00  0.00    +0.000 C 
BRANCH  16  17
ATOM     17  C   UNL     1      -5.708  14.030  21.442  0.00  0.00    +0.000 C 
ATOM     18  C   UNL     1      -6.849  14.141  20.432  0.00  0.00    +0.000 C 
ATOM     19  C   UNL     1      -6.187  14.515  22.812  0.00  0.00    +0.000 C 
ENDBRANCH  16  17
ENDBRANCH   6  16
ENDBRANCH   3   4
BRANCH   1  20
ATOM     20  C   UNL     1      -0.440  10.153  19.872  0.00  0.00    +0.000 C 
BRANCH  20  21
ATOM     21  S   UNL     1       0.986   9.551  20.805  0.00  0.00    +0.000 S 
BRANCH  21  25
ATOM     22  C   UNL     1       2.519   6.714  18.664  0.00  0.00    +0.000 A 
ATOM     23  N   UNL     1       2.772   7.753  17.890  0.00  0.00    +0.000 NA
ATOM     24  N   UNL     1       2.262   8.891  18.488  0.00  0.00    +0.000 NA
ATOM     25  C   UNL     1       1.741   8.526  19.635  0.00  0.00    +0.000 A 
ATOM     26  N   UNL     1       1.912   7.186  19.821  0.00  0.00    +0.000 N 
ATOM     27  C   UNL     1       1.547   6.423  20.984  0.00  0.00    +0.000 C 
BRANCH  22  34
ATOM     28  C   UNL     1       5.240   5.467  19.115  0.00  0.00    +0.000 C 
ATOM     29  C   UNL     1       4.058   4.702  18.578  0.00  0.00    +0.000 A 
ATOM     30  C   UNL     1       4.244   3.344  18.250  0.00  0.00    +0.000 A 
ATOM     31  C   UNL     1       3.195   2.569  17.756  0.00  0.00    +0.000 A 
ATOM     32  C   UNL     1       1.953   3.147  17.548  0.00  0.00    +0.000 A 
ATOM     33  C   UNL     1       1.767   4.502  17.821  0.00  0.00    +0.000 A 
ATOM     34  C   UNL     1       2.796   5.297  18.365  0.00  0.00    +0.000 A 
ENDBRANCH  22  34
ENDBRANCH  21  25
ENDBRANCH  20  21
ENDBRANCH   1  20
BRANCH   3  35
ATOM     35  C   UNL     1      -0.613  13.912  18.848  0.00  0.00    +0.000 C 
BRANCH  35  36
ATOM     36  C   UNL     1      -0.038  15.150  19.608  0.00  0.00    +0.000 C 
ATOM     37  C   UNL     1       1.476  15.140  19.848  0.00  0.00    +0.000 C 
ATOM     38  C   UNL     1      -0.461  16.483  18.989  0.00  0.00    +0.000 C 
ENDBRANCH  35  36
ENDBRANCH   3  35
TORSDOF 10
ENDMDL
MODEL 7
REMARK VINA RESULT:      -6.8      4.003     11.070
REMARK  Name = 
REMARK  16 active torsions:
REMARK  status: ('A' for Active; 'I' for Inactive)
REMARK    1  A    between atoms: C_1  and  C_2
REMARK    2  A    between atoms: C_7  and  C_8
REMARK    3  A    between atoms: C_11  and  S_12
REMARK    4  A    between atoms: S_12  and  C_13
REMARK    5  A    between atoms: C_13  and  C_14
REMARK    6  A    between atoms: N_16  and  C_17
REMARK    7  A    between atoms: N_16  and  C_21
REMARK    8  A    between atoms: C_17  and  C_18
REMARK    9  A    between atoms: C_18  and  C_19
REMARK   10  A    between atoms: C_18  and  C_20
REMARK   11  A    between atoms: C_22  and  N_23
REMARK   12  A    between atoms: N_24  and  C_25
REMARK   13  A    between atoms: C_25  and  C_26
REMARK   14  A    between atoms: C_26  and  C_27
REMARK   15  A    between atoms: C_26  and  C_28
REMARK   16  A    between atoms: N_34  and  C_35
REMARK                            x       y       z     vdW  Elec       q    Type
REMARK                         _______ _______ _______ _____ _____    ______ ____
ROOT
ATOM      1  C   UNL     1       0.537  11.348  19.083  0.00  0.00    +0.000 C 
ATOM      2  O   UNL     1       1.682  11.435  18.631  0.00  0.00    +0.000 OA
ATOM      3  N   UNL     1      -0.323  12.471  19.140  0.00  0.00    +0.000 N 
ENDROOT
BRANCH   3   4
ATOM      4  C   UNL     1      -1.646  12.361  19.562  0.00  0.00    +0.000 A 
ATOM      5  C   UNL     1      -1.988  12.541  20.860  0.00  0.00    +0.000 A 
ATOM      6  N   UNL     1      -3.331  12.530  21.221  0.00  0.00    +0.000 N 
ATOM      7  C   UNL     1      -4.360  12.420  20.291  0.00  0.00    +0.000 A 
ATOM      8  O   UNL     1      -5.556  12.434  20.573  0.00  0.00    +0.000 OA
ATOM      9  N   UNL     1      -3.988  12.279  18.989  0.00  0.00    +0.000 N 
ATOM     10  C   UNL     1      -2.714  12.103  18.553  0.00  0.00    +0.000 A 
ATOM     11  O   UNL     1      -2.468  11.739  17.406  0.00  0.00    +0.000 OA
ATOM     12  H   UNL     1      -4.732  12.113  18.327  0.00  0.00    +0.000 HD
BRANCH   5  13
ATOM     13  N   UNL     1      -0.994  12.777  21.806  0.00  0.00    +0.000 N 
ATOM     14  H   UNL     1      -0.102  12.346  21.556  0.00  0.00    +0.000 HD
ATOM     15  H   UNL     1      -0.866  13.753  22.031  0.00  0.00    +0.000 HD
ENDBRANCH   5  13
BRANCH   6  16
ATOM     16  C   UNL     1      -3.708  12.610  22.635  0.00  0.00    +0.000 C 
BRANCH  16  17
ATOM     17  C   UNL     1      -4.023  14.038  23.135  0.00  0.00    +0.000 C 
ATOM     18  C   UNL     1      -5.457  14.191  23.638  0.00  0.00    +0.000 C 
ATOM     19  C   UNL     1      -3.045  14.397  24.256  0.00  0.00    +0.000 C 
ENDBRANCH  16  17
ENDBRANCH   6  16
ENDBRANCH   3   4
BRANCH   1  20
ATOM     20  C   UNL     1      -0.011  10.026  19.661  0.00  0.00    +0.000 C 
BRANCH  20  21
ATOM     21  S   UNL     1       1.150   9.134  20.720  0.00  0.00    +0.000 S 
BRANCH  21  25
ATOM     22  C   UNL     1       2.658   6.218  18.669  0.00  0.00    +0.000 A 
ATOM     23  N   UNL     1       2.891   7.226  17.848  0.00  0.00    +0.000 NA
ATOM     24  N   UNL     1       2.386   8.385  18.409  0.00  0.00    +0.000 NA
ATOM     25  C   UNL     1       1.889   8.066  19.579  0.00  0.00    +0.000 A 
ATOM     26  N   UNL     1       2.071   6.735  19.817  0.00  0.00    +0.000 N 
ATOM     27  C   UNL     1       1.732   6.019  21.017  0.00  0.00    +0.000 C 
BRANCH  22  34
ATOM     28  C   UNL     1       5.364   4.980  19.222  0.00  0.00    +0.000 C 
ATOM     29  C   UNL     1       4.191   4.201  18.685  0.00  0.00    +0.000 A 
ATOM     30  C   UNL     1       4.380   2.832  18.406  0.00  0.00    +0.000 A 
ATOM     31  C   UNL     1       3.340   2.044  17.915  0.00  0.00    +0.000 A 
ATOM     32  C   UNL     1       2.105   2.618  17.660  0.00  0.00    +0.000 A 
ATOM     33  C   UNL     1       1.917   3.982  17.883  0.00  0.00    +0.000 A 
ATOM     34  C   UNL     1       2.936   4.791  18.423  0.00  0.00    +0.000 A 
ENDBRANCH  22  34
ENDBRANCH  21  25
ENDBRANCH  20  21
ENDBRANCH   1  20
BRANCH   3  35
ATOM     35  C   UNL     1       0.077  13.749  18.505  0.00  0.00    +0.000 C 
BRANCH  35  36
ATOM     36  C   UNL     1       0.669  14.851  19.440  0.00  0.00    +0.000 C 
ATOM     37  C   UNL     1      -0.354  15.784  20.100  0.00  0.00    +0.000 C 
ATOM     38  C   UNL     1       1.624  14.293  20.496  0.00  0.00    +0.000 C 
ENDBRANCH  35  36
ENDBRANCH   3  35
TORSDOF 10
ENDMDL
MODEL 8
REMARK VINA RESULT:      -6.8      1.849      4.464
REMARK  Name = 
REMARK  16 active torsions:
REMARK  status: ('A' for Active; 'I' for Inactive)
REMARK    1  A    between atoms: C_1  and  C_2
REMARK    2  A    between atoms: C_7  and  C_8
REMARK    3  A    between atoms: C_11  and  S_12
REMARK    4  A    between atoms: S_12  and  C_13
REMARK    5  A    between atoms: C_13  and  C_14
REMARK    6  A    between atoms: N_16  and  C_17
REMARK    7  A    between atoms: N_16  and  C_21
REMARK    8  A    between atoms: C_17  and  C_18
REMARK    9  A    between atoms: C_18  and  C_19
REMARK   10  A    between atoms: C_18  and  C_20
REMARK   11  A    between atoms: C_22  and  N_23
REMARK   12  A    between atoms: N_24  and  C_25
REMARK   13  A    between atoms: C_25  and  C_26
REMARK   14  A    between atoms: C_26  and  C_27
REMARK   15  A    between atoms: C_26  and  C_28
REMARK   16  A    between atoms: N_34  and  C_35
REMARK                            x       y       z     vdW  Elec       q    Type
REMARK                         _______ _______ _______ _____ _____    ______ ____
ROOT
ATOM      1  C   UNL     1       4.689   6.314  16.571  0.00  0.00    +0.000 C 
ATOM      2  O   UNL     1       4.937   6.932  15.532  0.00  0.00    +0.000 OA
ATOM      3  N   UNL     1       4.663   4.898  16.601  0.00  0.00    +0.000 N 
ENDROOT
BRANCH   3   4
ATOM      4  C   UNL     1       4.476   4.194  17.788  0.00  0.00    +0.000 A 
ATOM      5  C   UNL     1       3.323   3.530  18.039  0.00  0.00    +0.000 A 
ATOM      6  N   UNL     1       3.219   2.750  19.185  0.00  0.00    +0.000 N 
ATOM      7  C   UNL     1       4.281   2.551  20.060  0.00  0.00    +0.000 A 
ATOM      8  O   UNL     1       4.231   1.848  21.067  0.00  0.00    +0.000 OA
ATOM      9  N   UNL     1       5.441   3.200  19.764  0.00  0.00    +0.000 N 
ATOM     10  C   UNL     1       5.594   4.116  18.773  0.00  0.00    +0.000 A 
ATOM     11  O   UNL     1       6.584   4.841  18.711  0.00  0.00    +0.000 OA
ATOM     12  H   UNL     1       6.183   3.124  20.444  0.00  0.00    +0.000 HD
BRANCH   5  13
ATOM     13  N   UNL     1       2.276   3.602  17.124  0.00  0.00    +0.000 N 
ATOM     14  H   UNL     1       1.495   2.990  17.371  0.00  0.00    +0.000 HD
ATOM     15  H   UNL     1       1.949   4.541  16.949  0.00  0.00    +0.000 HD
ENDBRANCH   5  13
BRANCH   6  16
ATOM     16  C   UNL     1       1.941   2.118  19.525  0.00  0.00    +0.000 C 
BRANCH  16  17
ATOM     17  C   UNL     1       1.088   2.903  20.546  0.00  0.00    +0.000 C 
ATOM     18  C   UNL     1       1.364   2.495  21.993  0.00  0.00    +0.000 C 
ATOM     19  C   UNL     1       1.362   4.399  20.375  0.00  0.00    +0.000 C 
ENDBRANCH  16  17
ENDBRANCH   6  16
ENDBRANCH   3   4
BRANCH   1  20
ATOM     20  C   UNL     1       4.343   7.041  17.888  0.00  0.00    +0.000 C 
BRANCH  20  21
ATOM     21  S   UNL     1       2.599   6.952  18.354  0.00  0.00    +0.000 S 
BRANCH  21  25
ATOM     22  C   UNL     1       1.305  10.568  18.839  0.00  0.00    +0.000 A 
ATOM     23  N   UNL     1       1.814  10.663  17.625  0.00  0.00    +0.000 NA
ATOM     24  N   UNL     1       2.365   9.444  17.273  0.00  0.00    +0.000 NA
ATOM     25  C   UNL     1       2.145   8.618  18.268  0.00  0.00    +0.000 A 
ATOM     26  N   UNL     1       1.447   9.250  19.255  0.00  0.00    +0.000 N 
ATOM     27  C   UNL     1       0.952   8.665  20.472  0.00  0.00    +0.000 C 
BRANCH  22  34
ATOM     28  C   UNL     1      -1.673  11.104  18.884  0.00  0.00    +0.000 C 
ATOM     29  C   UNL     1      -0.675  11.909  19.676  0.00  0.00    +0.000 A 
ATOM     30  C   UNL     1      -1.159  12.979  20.454  0.00  0.00    +0.000 A 
ATOM     31  C   UNL     1      -0.299  13.764  21.220  0.00  0.00    +0.000 A 
ATOM     32  C   UNL     1       1.065  13.516  21.191  0.00  0.00    +0.000 A 
ATOM     33  C   UNL     1       1.564  12.493  20.387  0.00  0.00    +0.000 A 
ATOM     34  C   UNL     1       0.713  11.654  19.640  0.00  0.00    +0.000 A 
ENDBRANCH  22  34
ENDBRANCH  21  25
ENDBRANCH  20  21
ENDBRANCH   1  20
BRANCH   3  35
ATOM     35  C   UNL     1       5.094   4.120  15.416  0.00  0.00    +0.000 C 
BRANCH  35  36
ATOM     36  C   UNL     1       6.608   4.184  15.037  0.00  0.00    +0.000 C 
ATOM     37  C   UNL     1       6.918   4.666  13.615  0.00  0.00    +0.000 C 
ATOM     38  C   UNL     1       7.447   4.966  16.049  0.00  0.00    +0.000 C 
ENDBRANCH  35  36
ENDBRANCH   3  35
TORSDOF 10
ENDMDL
MODEL 9
REMARK VINA RESULT:      -6.8      2.077      4.926
REMARK  Name = 
REMARK  16 active torsions:
REMARK  status: ('A' for Active; 'I' for Inactive)
REMARK    1  A    between atoms: C_1  and  C_2
REMARK    2  A    between atoms: C_7  and  C_8
REMARK    3  A    between atoms: C_11  and  S_12
REMARK    4  A    between atoms: S_12  and  C_13
REMARK    5  A    between atoms: C_13  and  C_14
REMARK    6  A    between atoms: N_16  and  C_17
REMARK    7  A    between atoms: N_16  and  C_21
REMARK    8  A    between atoms: C_17  and  C_18
REMARK    9  A    between atoms: C_18  and  C_19
REMARK   10  A    between atoms: C_18  and  C_20
REMARK   11  A    between atoms: C_22  and  N_23
REMARK   12  A    between atoms: N_24  and  C_25
REMARK   13  A    between atoms: C_25  and  C_26
REMARK   14  A    between atoms: C_26  and  C_27
REMARK   15  A    between atoms: C_26  and  C_28
REMARK   16  A    between atoms: N_34  and  C_35
REMARK                            x       y       z     vdW  Elec       q    Type
REMARK                         _______ _______ _______ _____ _____    ______ ____
ROOT
ATOM      1  C   UNL     1       4.789   6.403  16.888  0.00  0.00    +0.000 C 
ATOM      2  O   UNL     1       5.150   7.122  15.951  0.00  0.00    +0.000 OA
ATOM      3  N   UNL     1       5.170   5.041  16.964  0.00  0.00    +0.000 N 
ENDROOT
BRANCH   3   4
ATOM      4  C   UNL     1       4.845   4.249  18.064  0.00  0.00    +0.000 A 
ATOM      5  C   UNL     1       3.684   3.554  18.111  0.00  0.00    +0.000 A 
ATOM      6  N   UNL     1       3.447   2.692  19.176  0.00  0.00    +0.000 N 
ATOM      7  C   UNL     1       4.390   2.443  20.168  0.00  0.00    +0.000 A 
ATOM      8  O   UNL     1       4.223   1.668  21.107  0.00  0.00    +0.000 OA
ATOM      9  N   UNL     1       5.564   3.127  20.074  0.00  0.00    +0.000 N 
ATOM     10  C   UNL     1       5.825   4.115  19.180  0.00  0.00    +0.000 A 
ATOM     11  O   UNL     1       6.798   4.855  19.301  0.00  0.00    +0.000 OA
ATOM     12  H   UNL     1       6.211   3.011  20.840  0.00  0.00    +0.000 HD
BRANCH   5  13
ATOM     13  N   UNL     1       2.765   3.680  17.074  0.00  0.00    +0.000 N 
ATOM     14  H   UNL     1       2.282   2.803  16.866  0.00  0.00    +0.000 HD
ATOM     15  H   UNL     1       2.099   4.428  17.204  0.00  0.00    +0.000 HD
ENDBRANCH   5  13
BRANCH   6  16
ATOM     16  C   UNL     1       2.150   2.021  19.298  0.00  0.00    +0.000 C 
BRANCH  16  17
ATOM     17  C   UNL     1       1.126   2.760  20.186  0.00  0.00    +0.000 C 
ATOM     18  C   UNL     1       1.347   2.520  21.679  0.00  0.00    +0.000 C 
ATOM     19  C   UNL     1       1.206   4.261  19.892  0.00  0.00    +0.000 C 
ENDBRANCH  16  17
ENDBRANCH   6  16
ENDBRANCH   3   4
BRANCH   1  20
ATOM     20  C   UNL     1       3.861   6.926  18.005  0.00  0.00    +0.000 C 
BRANCH  20  21
ATOM     21  S   UNL     1       2.861   8.356  17.537  0.00  0.00    +0.000 S 
BRANCH  21  25
ATOM     22  C   UNL     1       0.596   9.540  20.443  0.00  0.00    +0.000 A 
ATOM     23  N   UNL     1       0.970   8.361  20.905  0.00  0.00    +0.000 NA
ATOM     24  N   UNL     1       1.786   7.753  19.968  0.00  0.00    +0.000 NA
ATOM     25  C   UNL     1       1.924   8.593  18.971  0.00  0.00    +0.000 A 
ATOM     26  N   UNL     1       1.242   9.744  19.231  0.00  0.00    +0.000 N 
ATOM     27  C   UNL     1       1.208  10.930  18.417  0.00  0.00    +0.000 C 
BRANCH  22  34
ATOM     28  C   UNL     1       0.064   9.552  23.423  0.00  0.00    +0.000 C 
ATOM     29  C   UNL     1      -0.605  10.498  22.459  0.00  0.00    +0.000 A 
ATOM     30  C   UNL     1      -1.542  11.414  22.977  0.00  0.00    +0.000 A 
ATOM     31  C   UNL     1      -2.196  12.326  22.149  0.00  0.00    +0.000 A 
ATOM     32  C   UNL     1      -1.951  12.312  20.784  0.00  0.00    +0.000 A 
ATOM     33  C   UNL     1      -1.064  11.378  20.251  0.00  0.00    +0.000 A 
ATOM     34  C   UNL     1      -0.355  10.477  21.070  0.00  0.00    +0.000 A 
ENDBRANCH  22  34
ENDBRANCH  21  25
ENDBRANCH  20  21
ENDBRANCH   1  20
BRANCH   3  35
ATOM     35  C   UNL     1       6.150   4.487  16.001  0.00  0.00    +0.000 C 
BRANCH  35  36
ATOM     36  C   UNL     1       5.941   4.840  14.493  0.00  0.00    +0.000 C 
ATOM     37  C   UNL     1       7.221   5.047  13.675  0.00  0.00    +0.000 C 
ATOM     38  C   UNL     1       5.011   3.865  13.772  0.00  0.00    +0.000 C 
ENDBRANCH  35  36
ENDBRANCH   3  35
TORSDOF 10
ENDMDL
