MODEL 1
REMARK VINA RESULT:      -9.4      0.000      0.000
REMARK  Name = 
REMARK  7 active torsions:
REMARK  status: ('A' for Active; 'I' for Inactive)
REMARK    1  A    between atoms: C_1  and  C_2
REMARK    2  A    between atoms: C_2  and  O_3
REMARK    3  A    between atoms: O_3  and  C_4
REMARK    4  A    between atoms: C_4  and  C_6
REMARK    5  A    between atoms: C_6  and  N_7
REMARK    6  A    between atoms: C_8  and  C_10
REMARK    7  A    between atoms: C_21  and  C_22
REMARK                            x       y       z     vdW  Elec       q    Type
REMARK                         _______ _______ _______ _____ _____    ______ ____
ROOT
ATOM      1  C   UNL     1       6.334   4.834  15.953  0.00  0.00    +0.000 A 
ATOM      2  C   UNL     1       5.026   4.480  16.251  0.00  0.00    +0.000 A 
ATOM      3  C   UNL     1       4.618   4.656  17.576  0.00  0.00    +0.000 A 
ATOM      4  C   UNL     1       5.531   5.171  18.495  0.00  0.00    +0.000 A 
ATOM      5  N   UNL     1       4.871   5.244  19.703  0.00  0.00    +0.000 N 
ATOM      6  C   UNL     1       3.576   4.790  19.593  0.00  0.00    +0.000 A 
ATOM      7  C   UNL     1       2.568   4.686  20.558  0.00  0.00    +0.000 A 
ATOM      8  C   UNL     1       1.331   4.178  20.150  0.00  0.00    +0.000 A 
ATOM      9  C   UNL     1       1.113   3.792  18.830  0.00  0.00    +0.000 A 
ATOM     10  C   UNL     1       2.133   3.904  17.878  0.00  0.00    +0.000 A 
ATOM     11  C   UNL     1       3.389   4.413  18.267  0.00  0.00    +0.000 A 
ATOM     12  C   UNL     1       6.845   5.517  18.149  0.00  0.00    +0.000 A 
ATOM     13  C   UNL     1       7.853   6.091  19.096  0.00  0.00    +0.000 C 
ATOM     14  N   UNL     1       7.231   5.331  16.852  0.00  0.00    +0.000 NA
ATOM     15  H   UNL     1       5.277   5.583  20.562  0.00  0.00    +0.000 HD
ENDROOT
BRANCH   1  17
ATOM     16  N   UNL     1       6.202   3.659  13.826  0.00  0.00    +0.000 N 
ATOM     17  C   UNL     1       6.804   4.664  14.539  0.00  0.00    +0.000 C 
ATOM     18  O   UNL     1       7.674   5.390  14.063  0.00  0.00    +0.000 OA
ATOM     19  H   UNL     1       5.461   3.123  14.275  0.00  0.00    +0.000 HD
BRANCH  16  20
ATOM     20  C   UNL     1       6.536   3.418  12.431  0.00  0.00    +0.000 C 
BRANCH  20  21
ATOM     21  C   UNL     1       5.456   2.705  11.637  0.00  0.00    +0.000 C 
ATOM     22  O   UNL     1       5.588   1.588  11.151  0.00  0.00    +0.000 OA
BRANCH  21  23
ATOM     23  O   UNL     1       4.356   3.500  11.481  0.00  0.00    +0.000 OA
BRANCH  23  25
ATOM     24  C   UNL     1       2.980   4.145   9.647  0.00  0.00    +0.000 C 
ATOM     25  C   UNL     1       3.365   3.006  10.574  0.00  0.00    +0.000 C 
ENDBRANCH  23  25
ENDBRANCH  21  23
ENDBRANCH  20  21
ENDBRANCH  16  20
ENDBRANCH   1  17
TORSDOF 5
ENDMDL
MODEL 2
REMARK VINA RESULT:      -8.7      0.834      1.604
REMARK  Name = 
REMARK  7 active torsions:
REMARK  status: ('A' for Active; 'I' for Inactive)
REMARK    1  A    between atoms: C_1  and  C_2
REMARK    2  A    between atoms: C_2  and  O_3
REMARK    3  A    between atoms: O_3  and  C_4
REMARK    4  A    between atoms: C_4  and  C_6
REMARK    5  A    between atoms: C_6  and  N_7
REMARK    6  A    between atoms: C_8  and  C_10
REMARK    7  A    between atoms: C_21  and  C_22
REMARK                            x       y       z     vdW  Elec       q    Type
REMARK                         _______ _______ _______ _____ _____    ______ ____
ROOT
ATOM      1  C   UNL     1       6.322   4.728  15.958  0.00  0.00    +0.000 A 
ATOM      2  C   UNL     1       5.011   4.394  16.260  0.00  0.00    +0.000 A 
ATOM      3  C   UNL     1       4.616   4.558  17.591  0.00  0.00    +0.000 A 
ATOM      4  C   UNL     1       5.545   5.042  18.510  0.00  0.00    +0.000 A 
ATOM      5  N   UNL     1       4.895   5.109  19.724  0.00  0.00    +0.000 N 
ATOM      6  C   UNL     1       3.591   4.682  19.617  0.00  0.00    +0.000 A 
ATOM      7  C   UNL     1       2.589   4.582  20.588  0.00  0.00    +0.000 A 
ATOM      8  C   UNL     1       1.339   4.104  20.182  0.00  0.00    +0.000 A 
ATOM      9  C   UNL     1       1.104   3.742  18.858  0.00  0.00    +0.000 A 
ATOM     10  C   UNL     1       2.119   3.849  17.900  0.00  0.00    +0.000 A 
ATOM     11  C   UNL     1       3.387   4.328  18.287  0.00  0.00    +0.000 A 
ATOM     12  C   UNL     1       6.863   5.368  18.159  0.00  0.00    +0.000 A 
ATOM     13  C   UNL     1       7.888   5.908  19.107  0.00  0.00    +0.000 C 
ATOM     14  N   UNL     1       7.235   5.194  16.856  0.00  0.00    +0.000 NA
ATOM     15  H   UNL     1       5.314   5.427  20.585  0.00  0.00    +0.000 HD
ENDROOT
BRANCH   1  17
ATOM     16  N   UNL     1       6.077   3.667  13.781  0.00  0.00    +0.000 N 
ATOM     17  C   UNL     1       6.779   4.570  14.538  0.00  0.00    +0.000 C 
ATOM     18  O   UNL     1       7.724   5.219  14.094  0.00  0.00    +0.000 OA
ATOM     19  H   UNL     1       5.281   3.195  14.206  0.00  0.00    +0.000 HD
BRANCH  16  20
ATOM     20  C   UNL     1       6.391   3.453  12.376  0.00  0.00    +0.000 C 
BRANCH  20  21
ATOM     21  C   UNL     1       5.216   2.995  11.530  0.00  0.00    +0.000 C 
ATOM     22  O   UNL     1       4.391   3.755  11.036  0.00  0.00    +0.000 OA
BRANCH  21  23
ATOM     23  O   UNL     1       5.165   1.632  11.459  0.00  0.00    +0.000 OA
BRANCH  23  25
ATOM     24  C   UNL     1       6.229  -0.497  11.348  0.00  0.00    +0.000 C 
ATOM     25  C   UNL     1       6.392   0.991  11.094  0.00  0.00    +0.000 C 
ENDBRANCH  23  25
ENDBRANCH  21  23
ENDBRANCH  20  21
ENDBRANCH  16  20
ENDBRANCH   1  17
TORSDOF 5
ENDMDL
MODEL 3
REMARK VINA RESULT:      -8.6      3.551      7.049
REMARK  Name = 
REMARK  7 active torsions:
REMARK  status: ('A' for Active; 'I' for Inactive)
REMARK    1  A    between atoms: C_1  and  C_2
REMARK    2  A    between atoms: C_2  and  O_3
REMARK    3  A    between atoms: O_3  and  C_4
REMARK    4  A    between atoms: C_4  and  C_6
REMARK    5  A    between atoms: C_6  and  N_7
REMARK    6  A    between atoms: C_8  and  C_10
REMARK    7  A    between atoms: C_21  and  C_22
REMARK                            x       y       z     vdW  Elec       q    Type
REMARK                         _______ _______ _______ _____ _____    ______ ____
ROOT
ATOM      1  C   UNL     1       5.181   3.758  18.202  0.00  0.00    +0.000 A 
ATOM      2  C   UNL     1       5.117   3.430  16.856  0.00  0.00    +0.000 A 
ATOM      3  C   UNL     1       5.984   4.118  16.003  0.00  0.00    +0.000 A 
ATOM      4  C   UNL     1       6.845   5.069  16.549  0.00  0.00    +0.000 A 
ATOM      5  N   UNL     1       7.579   5.580  15.500  0.00  0.00    +0.000 N 
ATOM      6  C   UNL     1       7.217   4.998  14.307  0.00  0.00    +0.000 A 
ATOM      7  C   UNL     1       7.696   5.218  13.010  0.00  0.00    +0.000 A 
ATOM      8  C   UNL     1       7.128   4.469  11.975  0.00  0.00    +0.000 A 
ATOM      9  C   UNL     1       6.124   3.538  12.228  0.00  0.00    +0.000 A 
ATOM     10  C   UNL     1       5.658   3.331  13.532  0.00  0.00    +0.000 A 
ATOM     11  C   UNL     1       6.215   4.075  14.591  0.00  0.00    +0.000 A 
ATOM     12  C   UNL     1       6.876   5.369  17.919  0.00  0.00    +0.000 A 
ATOM     13  C   UNL     1       7.796   6.366  18.552  0.00  0.00    +0.000 C 
ATOM     14  N   UNL     1       6.017   4.693  18.737  0.00  0.00    +0.000 NA
ATOM     15  H   UNL     1       8.291   6.289  15.586  0.00  0.00    +0.000 HD
ENDROOT
BRANCH   1  17
ATOM     16  N   UNL     1       2.943   3.004  18.792  0.00  0.00    +0.000 N 
ATOM     17  C   UNL     1       4.268   3.035  19.147  0.00  0.00    +0.000 C 
ATOM     18  O   UNL     1       4.696   2.506  20.170  0.00  0.00    +0.000 OA
ATOM     19  H   UNL     1       2.669   3.431  17.909  0.00  0.00    +0.000 HD
BRANCH  16  20
ATOM     20  C   UNL     1       1.961   2.296  19.599  0.00  0.00    +0.000 C 
BRANCH  20  21
ATOM     21  C   UNL     1       1.465   3.069  20.809  0.00  0.00    +0.000 C 
ATOM     22  O   UNL     1       1.398   2.601  21.939  0.00  0.00    +0.000 OA
BRANCH  21  23
ATOM     23  O   UNL     1       1.040   4.317  20.452  0.00  0.00    +0.000 OA
BRANCH  23  25
ATOM     24  C   UNL     1       2.249   6.258  19.787  0.00  0.00    +0.000 C 
ATOM     25  C   UNL     1       1.823   5.401  20.965  0.00  0.00    +0.000 C 
ENDBRANCH  23  25
ENDBRANCH  21  23
ENDBRANCH  20  21
ENDBRANCH  16  20
ENDBRANCH   1  17
TORSDOF 5
ENDMDL
MODEL 4
REMARK VINA RESULT:      -8.4      3.433      6.925
REMARK  Name = 
REMARK  7 active torsions:
REMARK  status: ('A' for Active; 'I' for Inactive)
REMARK    1  A    between atoms: C_1  and  C_2
REMARK    2  A    between atoms: C_2  and  O_3
REMARK    3  A    between atoms: O_3  and  C_4
REMARK    4  A    between atoms: C_4  and  C_6
REMARK    5  A    between atoms: C_6  and  N_7
REMARK    6  A    between atoms: C_8  and  C_10
REMARK    7  A    between atoms: C_21  and  C_22
REMARK                            x       y       z     vdW  Elec       q    Type
REMARK                         _______ _______ _______ _____ _____    ______ ____
ROOT
ATOM      1  C   UNL     1       4.371   5.578  17.691  0.00  0.00    +0.000 A 
ATOM      2  C   UNL     1       4.313   4.925  16.469  0.00  0.00    +0.000 A 
ATOM      3  C   UNL     1       5.449   5.014  15.660  0.00  0.00    +0.000 A 
ATOM      4  C   UNL     1       6.548   5.734  16.125  0.00  0.00    +0.000 A 
ATOM      5  N   UNL     1       7.513   5.652  15.144  0.00  0.00    +0.000 N 
ATOM      6  C   UNL     1       7.072   4.915  14.070  0.00  0.00    +0.000 A 
ATOM      7  C   UNL     1       7.716   4.587  12.871  0.00  0.00    +0.000 A 
ATOM      8  C   UNL     1       7.007   3.813  11.947  0.00  0.00    +0.000 A 
ATOM      9  C   UNL     1       5.710   3.384  12.213  0.00  0.00    +0.000 A 
ATOM     10  C   UNL     1       5.082   3.720  13.418  0.00  0.00    +0.000 A 
ATOM     11  C   UNL     1       5.777   4.501  14.364  0.00  0.00    +0.000 A 
ATOM     12  C   UNL     1       6.563   6.378  17.371  0.00  0.00    +0.000 A 
ATOM     13  C   UNL     1       7.726   7.145  17.920  0.00  0.00    +0.000 C 
ATOM     14  N   UNL     1       5.442   6.289  18.146  0.00  0.00    +0.000 NA
ATOM     15  H   UNL     1       8.427   6.076  15.198  0.00  0.00    +0.000 HD
ENDROOT
BRANCH   1  17
ATOM     16  N   UNL     1       3.420   5.144  19.890  0.00  0.00    +0.000 N 
ATOM     17  C   UNL     1       3.171   5.499  18.588  0.00  0.00    +0.000 C 
ATOM     18  O   UNL     1       2.043   5.743  18.169  0.00  0.00    +0.000 OA
ATOM     19  H   UNL     1       4.386   4.994  20.174  0.00  0.00    +0.000 HD
BRANCH  16  20
ATOM     20  C   UNL     1       2.349   5.075  20.871  0.00  0.00    +0.000 C 
BRANCH  20  21
ATOM     21  C   UNL     1       1.866   3.669  21.182  0.00  0.00    +0.000 C 
ATOM     22  O   UNL     1       2.102   3.080  22.230  0.00  0.00    +0.000 OA
BRANCH  21  23
ATOM     23  O   UNL     1       1.205   3.131  20.114  0.00  0.00    +0.000 OA
BRANCH  23  25
ATOM     24  C   UNL     1       2.045   2.249  18.067  0.00  0.00    +0.000 C 
ATOM     25  C   UNL     1       1.810   1.967  19.540  0.00  0.00    +0.000 C 
ENDBRANCH  23  25
ENDBRANCH  21  23
ENDBRANCH  20  21
ENDBRANCH  16  20
ENDBRANCH   1  17
TORSDOF 5
ENDMDL
MODEL 5
REMARK VINA RESULT:      -8.4      2.304      2.618
REMARK  Name = 
REMARK  7 active torsions:
REMARK  status: ('A' for Active; 'I' for Inactive)
REMARK    1  A    between atoms: C_1  and  C_2
REMARK    2  A    between atoms: C_2  and  O_3
REMARK    3  A    between atoms: O_3  and  C_4
REMARK    4  A    between atoms: C_4  and  C_6
REMARK    5  A    between atoms: C_6  and  N_7
REMARK    6  A    between atoms: C_8  and  C_10
REMARK    7  A    between atoms: C_21  and  C_22
REMARK                            x       y       z     vdW  Elec       q    Type
REMARK                         _______ _______ _______ _____ _____    ______ ____
ROOT
ATOM      1  C   UNL     1       5.314   5.097  16.545  0.00  0.00    +0.000 A 
ATOM      2  C   UNL     1       4.572   6.264  16.647  0.00  0.00    +0.000 A 
ATOM      3  C   UNL     1       3.810   6.420  17.809  0.00  0.00    +0.000 A 
ATOM      4  C   UNL     1       3.849   5.415  18.774  0.00  0.00    +0.000 A 
ATOM      5  N   UNL     1       3.024   5.826  19.799  0.00  0.00    +0.000 N 
ATOM      6  C   UNL     1       2.456   7.049  19.524  0.00  0.00    +0.000 A 
ATOM      7  C   UNL     1       1.566   7.824  20.276  0.00  0.00    +0.000 A 
ATOM      8  C   UNL     1       1.150   9.043  19.732  0.00  0.00    +0.000 A 
ATOM      9  C   UNL     1       1.609   9.469  18.489  0.00  0.00    +0.000 A 
ATOM     10  C   UNL     1       2.500   8.681  17.750  0.00  0.00    +0.000 A 
ATOM     11  C   UNL     1       2.931   7.447  18.278  0.00  0.00    +0.000 A 
ATOM     12  C   UNL     1       4.617   4.250  18.629  0.00  0.00    +0.000 A 
ATOM     13  C   UNL     1       4.704   3.155  19.647  0.00  0.00    +0.000 C 
ATOM     14  N   UNL     1       5.348   4.110  17.484  0.00  0.00    +0.000 NA
ATOM     15  H   UNL     1       2.852   5.304  20.645  0.00  0.00    +0.000 HD
ENDROOT
BRANCH   1  17
ATOM     16  N   UNL     1       5.620   4.063  14.363  0.00  0.00    +0.000 N 
ATOM     17  C   UNL     1       6.148   4.899  15.314  0.00  0.00    +0.000 C 
ATOM     18  O   UNL     1       7.233   5.460  15.179  0.00  0.00    +0.000 OA
ATOM     19  H   UNL     1       4.697   3.665  14.528  0.00  0.00    +0.000 HD
BRANCH  16  20
ATOM     20  C   UNL     1       6.307   3.823  13.103  0.00  0.00    +0.000 C 
BRANCH  20  21
ATOM     21  C   UNL     1       5.497   3.047  12.081  0.00  0.00    +0.000 C 
ATOM     22  O   UNL     1       5.841   1.970  11.609  0.00  0.00    +0.000 OA
BRANCH  21  23
ATOM     23  O   UNL     1       4.381   3.742  11.710  0.00  0.00    +0.000 OA
BRANCH  23  25
ATOM     24  C   UNL     1       3.042   4.125   9.777  0.00  0.00    +0.000 C 
ATOM     25  C   UNL     1       3.532   3.081  10.765  0.00  0.00    +0.000 C 
ENDBRANCH  23  25
ENDBRANCH  21  23
ENDBRANCH  20  21
ENDBRANCH  16  20
ENDBRANCH   1  17
TORSDOF 5
ENDMDL
MODEL 6
REMARK VINA RESULT:      -8.2      3.408      6.718
REMARK  Name = 
REMARK  7 active torsions:
REMARK  status: ('A' for Active; 'I' for Inactive)
REMARK    1  A    between atoms: C_1  and  C_2
REMARK    2  A    between atoms: C_2  and  O_3
REMARK    3  A    between atoms: O_3  and  C_4
REMARK    4  A    between atoms: C_4  and  C_6
REMARK    5  A    between atoms: C_6  and  N_7
REMARK    6  A    between atoms: C_8  and  C_10
REMARK    7  A    between atoms: C_21  and  C_22
REMARK                            x       y       z     vdW  Elec       q    Type
REMARK                         _______ _______ _______ _____ _____    ______ ____
ROOT
ATOM      1  C   UNL     1       5.186   4.725  18.522  0.00  0.00    +0.000 A 
ATOM      2  C   UNL     1       5.030   4.180  17.257  0.00  0.00    +0.000 A 
ATOM      3  C   UNL     1       5.913   4.630  16.271  0.00  0.00    +0.000 A 
ATOM      4  C   UNL     1       6.878   5.574  16.617  0.00  0.00    +0.000 A 
ATOM      5  N   UNL     1       7.604   5.829  15.472  0.00  0.00    +0.000 N 
ATOM      6  C   UNL     1       7.137   5.089  14.410  0.00  0.00    +0.000 A 
ATOM      7  C   UNL     1       7.572   5.040  13.081  0.00  0.00    +0.000 A 
ATOM      8  C   UNL     1       6.893   4.182  12.209  0.00  0.00    +0.000 A 
ATOM      9  C   UNL     1       5.825   3.406  12.652  0.00  0.00    +0.000 A 
ATOM     10  C   UNL     1       5.405   3.468  13.986  0.00  0.00    +0.000 A 
ATOM     11  C   UNL     1       6.073   4.326  14.882  0.00  0.00    +0.000 A 
ATOM     12  C   UNL     1       6.999   6.098  17.912  0.00  0.00    +0.000 A 
ATOM     13  C   UNL     1       8.031   7.098  18.334  0.00  0.00    +0.000 C 
ATOM     14  N   UNL     1       6.123   5.655  18.861  0.00  0.00    +0.000 NA
ATOM     15  H   UNL     1       8.377   6.473  15.412  0.00  0.00    +0.000 HD
ENDROOT
BRANCH   1  17
ATOM     16  N   UNL     1       3.301   5.162  20.001  0.00  0.00    +0.000 N 
ATOM     17  C   UNL     1       4.258   4.261  19.607  0.00  0.00    +0.000 C 
ATOM     18  O   UNL     1       4.361   3.141  20.100  0.00  0.00    +0.000 OA
ATOM     19  H   UNL     1       3.253   6.058  19.519  0.00  0.00    +0.000 HD
BRANCH  16  20
ATOM     20  C   UNL     1       2.313   4.819  21.011  0.00  0.00    +0.000 C 
BRANCH  20  21
ATOM     21  C   UNL     1       1.429   3.637  20.654  0.00  0.00    +0.000 C 
ATOM     22  O   UNL     1       1.173   2.717  21.421  0.00  0.00    +0.000 OA
BRANCH  21  23
ATOM     23  O   UNL     1       1.024   3.705  19.351  0.00  0.00    +0.000 OA
BRANCH  23  25
ATOM     24  C   UNL     1       2.071   2.275  17.759  0.00  0.00    +0.000 C 
ATOM     25  C   UNL     1       0.882   2.444  18.687  0.00  0.00    +0.000 C 
ENDBRANCH  23  25
ENDBRANCH  21  23
ENDBRANCH  20  21
ENDBRANCH  16  20
ENDBRANCH   1  17
TORSDOF 5
ENDMDL
MODEL 7
REMARK VINA RESULT:      -8.2      3.409      6.860
REMARK  Name = 
REMARK  7 active torsions:
REMARK  status: ('A' for Active; 'I' for Inactive)
REMARK    1  A    between atoms: C_1  and  C_2
REMARK    2  A    between atoms: C_2  and  O_3
REMARK    3  A    between atoms: O_3  and  C_4
REMARK    4  A    between atoms: C_4  and  C_6
REMARK    5  A    between atoms: C_6  and  N_7
REMARK    6  A    between atoms: C_8  and  C_10
REMARK    7  A    between atoms: C_21  and  C_22
REMARK                            x       y       z     vdW  Elec       q    Type
REMARK                         _______ _______ _______ _____ _____    ______ ____
ROOT
ATOM      1  C   UNL     1       5.173   3.938  17.887  0.00  0.00    +0.000 A 
ATOM      2  C   UNL     1       5.153   3.562  16.552  0.00  0.00    +0.000 A 
ATOM      3  C   UNL     1       6.037   4.234  15.702  0.00  0.00    +0.000 A 
ATOM      4  C   UNL     1       6.868   5.214  16.240  0.00  0.00    +0.000 A 
ATOM      5  N   UNL     1       7.627   5.700  15.196  0.00  0.00    +0.000 N 
ATOM      6  C   UNL     1       7.308   5.073  14.013  0.00  0.00    +0.000 A 
ATOM      7  C   UNL     1       7.822   5.256  12.725  0.00  0.00    +0.000 A 
ATOM      8  C   UNL     1       7.296   4.464  11.699  0.00  0.00    +0.000 A 
ATOM      9  C   UNL     1       6.297   3.528  11.955  0.00  0.00    +0.000 A 
ATOM     10  C   UNL     1       5.795   3.358  13.251  0.00  0.00    +0.000 A 
ATOM     11  C   UNL     1       6.310   4.146  14.300  0.00  0.00    +0.000 A 
ATOM     12  C   UNL     1       6.855   5.561  17.599  0.00  0.00    +0.000 A 
ATOM     13  C   UNL     1       7.742   6.593  18.224  0.00  0.00    +0.000 C 
ATOM     14  N   UNL     1       5.980   4.902  18.414  0.00  0.00    +0.000 NA
ATOM     15  H   UNL     1       8.326   6.422  15.279  0.00  0.00    +0.000 HD
ENDROOT
BRANCH   1  17
ATOM     16  N   UNL     1       3.282   2.447  18.244  0.00  0.00    +0.000 N 
ATOM     17  C   UNL     1       4.242   3.234  18.829  0.00  0.00    +0.000 C 
ATOM     18  O   UNL     1       4.347   3.362  20.046  0.00  0.00    +0.000 OA
ATOM     19  H   UNL     1       3.281   2.358  17.230  0.00  0.00    +0.000 HD
BRANCH  16  20
ATOM     20  C   UNL     1       2.346   1.676  19.047  0.00  0.00    +0.000 C 
BRANCH  20  21
ATOM     21  C   UNL     1       0.979   2.316  19.212  0.00  0.00    +0.000 C 
ATOM     22  O   UNL     1       0.062   2.187  18.410  0.00  0.00    +0.000 OA
BRANCH  21  23
ATOM     23  O   UNL     1       0.939   3.106  20.326  0.00  0.00    +0.000 OA
BRANCH  23  25
ATOM     24  C   UNL     1       1.905   5.153  21.067  0.00  0.00    +0.000 C 
ATOM     25  C   UNL     1       0.946   4.517  20.078  0.00  0.00    +0.000 C 
ENDBRANCH  23  25
ENDBRANCH  21  23
ENDBRANCH  20  21
ENDBRANCH  16  20
ENDBRANCH   1  17
TORSDOF 5
ENDMDL
MODEL 8
REMARK VINA RESULT:      -8.1      3.495      7.236
REMARK  Name = 
REMARK  7 active torsions:
REMARK  status: ('A' for Active; 'I' for Inactive)
REMARK    1  A    between atoms: C_1  and  C_2
REMARK    2  A    between atoms: C_2  and  O_3
REMARK    3  A    between atoms: O_3  and  C_4
REMARK    4  A    between atoms: C_4  and  C_6
REMARK    5  A    between atoms: C_6  and  N_7
REMARK    6  A    between atoms: C_8  and  C_10
REMARK    7  A    between atoms: C_21  and  C_22
REMARK                            x       y       z     vdW  Elec       q    Type
REMARK                         _______ _______ _______ _____ _____    ______ ____
ROOT
ATOM      1  C   UNL     1       4.551   3.922  17.595  0.00  0.00    +0.000 A 
ATOM      2  C   UNL     1       4.656   3.636  16.242  0.00  0.00    +0.000 A 
ATOM      3  C   UNL     1       5.713   4.241  15.556  0.00  0.00    +0.000 A 
ATOM      4  C   UNL     1       6.581   5.072  16.263  0.00  0.00    +0.000 A 
ATOM      5  N   UNL     1       7.518   5.520  15.356  0.00  0.00    +0.000 N 
ATOM      6  C   UNL     1       7.279   5.014  14.099  0.00  0.00    +0.000 A 
ATOM      7  C   UNL     1       7.970   5.209  12.898  0.00  0.00    +0.000 A 
ATOM      8  C   UNL     1       7.487   4.557  11.760  0.00  0.00    +0.000 A 
ATOM      9  C   UNL     1       6.359   3.742  11.823  0.00  0.00    +0.000 A 
ATOM     10  C   UNL     1       5.681   3.557  13.034  0.00  0.00    +0.000 A 
ATOM     11  C   UNL     1       6.150   4.206  14.194  0.00  0.00    +0.000 A 
ATOM     12  C   UNL     1       6.437   5.332  17.633  0.00  0.00    +0.000 A 
ATOM     13  C   UNL     1       7.355   6.201  18.437  0.00  0.00    +0.000 C 
ATOM     14  N   UNL     1       5.394   4.740  18.286  0.00  0.00    +0.000 NA
ATOM     15  H   UNL     1       8.282   6.140  15.576  0.00  0.00    +0.000 HD
ENDROOT
BRANCH   1  17
ATOM     16  N   UNL     1       3.742   2.858  19.630  0.00  0.00    +0.000 N 
ATOM     17  C   UNL     1       3.431   3.285  18.363  0.00  0.00    +0.000 C 
ATOM     18  O   UNL     1       2.310   3.164  17.876  0.00  0.00    +0.000 OA
ATOM     19  H   UNL     1       4.683   3.028  19.980  0.00  0.00    +0.000 HD
BRANCH  16  20
ATOM     20  C   UNL     1       2.734   2.265  20.495  0.00  0.00    +0.000 C 
BRANCH  20  21
ATOM     21  C   UNL     1       2.172   3.207  21.545  0.00  0.00    +0.000 C 
ATOM     22  O   UNL     1       1.416   2.858  22.444  0.00  0.00    +0.000 OA
BRANCH  21  23
ATOM     23  O   UNL     1       2.562   4.495  21.308  0.00  0.00    +0.000 OA
BRANCH  23  25
ATOM     24  C   UNL     1       2.300   6.367  19.860  0.00  0.00    +0.000 C 
ATOM     25  C   UNL     1       1.573   5.333  20.701  0.00  0.00    +0.000 C 
ENDBRANCH  23  25
ENDBRANCH  21  23
ENDBRANCH  20  21
ENDBRANCH  16  20
ENDBRANCH   1  17
TORSDOF 5
ENDMDL
MODEL 9
REMARK VINA RESULT:      -8.0      3.376      6.972
REMARK  Name = 
REMARK  7 active torsions:
REMARK  status: ('A' for Active; 'I' for Inactive)
REMARK    1  A    between atoms: C_1  and  C_2
REMARK    2  A    between atoms: C_2  and  O_3
REMARK    3  A    between atoms: O_3  and  C_4
REMARK    4  A    between atoms: C_4  and  C_6
REMARK    5  A    between atoms: C_6  and  N_7
REMARK    6  A    between atoms: C_8  and  C_10
REMARK    7  A    between atoms: C_21  and  C_22
REMARK                            x       y       z     vdW  Elec       q    Type
REMARK                         _______ _______ _______ _____ _____    ______ ____
ROOT
ATOM      1  C   UNL     1       4.533   5.427  17.737  0.00  0.00    +0.000 A 
ATOM      2  C   UNL     1       4.447   4.778  16.514  0.00  0.00    +0.000 A 
ATOM      3  C   UNL     1       5.541   4.918  15.655  0.00  0.00    +0.000 A 
ATOM      4  C   UNL     1       6.629   5.680  16.075  0.00  0.00    +0.000 A 
ATOM      5  N   UNL     1       7.551   5.643  15.051  0.00  0.00    +0.000 N 
ATOM      6  C   UNL     1       7.092   4.893  13.993  0.00  0.00    +0.000 A 
ATOM      7  C   UNL     1       7.694   4.598  12.764  0.00  0.00    +0.000 A 
ATOM      8  C   UNL     1       6.977   3.799  11.868  0.00  0.00    +0.000 A 
ATOM      9  C   UNL     1       5.712   3.315  12.190  0.00  0.00    +0.000 A 
ATOM     10  C   UNL     1       5.126   3.620  13.424  0.00  0.00    +0.000 A 
ATOM     11  C   UNL     1       5.830   4.424  14.343  0.00  0.00    +0.000 A 
ATOM     12  C   UNL     1       6.673   6.319  17.323  0.00  0.00    +0.000 A 
ATOM     13  C   UNL     1       7.827   7.131  17.824  0.00  0.00    +0.000 C 
ATOM     14  N   UNL     1       5.593   6.180  18.147  0.00  0.00    +0.000 NA
ATOM     15  H   UNL     1       8.448   6.104  15.067  0.00  0.00    +0.000 HD
ENDROOT
BRANCH   1  17
ATOM     16  N   UNL     1       2.333   4.521  18.251  0.00  0.00    +0.000 N 
ATOM     17  C   UNL     1       3.379   5.295  18.686  0.00  0.00    +0.000 C 
ATOM     18  O   UNL     1       3.387   5.849  19.782  0.00  0.00    +0.000 OA
ATOM     19  H   UNL     1       2.415   4.062  17.346  0.00  0.00    +0.000 HD
BRANCH  16  20
ATOM     20  C   UNL     1       1.173   4.276  19.095  0.00  0.00    +0.000 C 
BRANCH  20  21
ATOM     21  C   UNL     1       1.002   2.831  19.528  0.00  0.00    +0.000 C 
ATOM     22  O   UNL     1       0.901   1.890  18.750  0.00  0.00    +0.000 OA
BRANCH  21  23
ATOM     23  O   UNL     1       0.905   2.735  20.888  0.00  0.00    +0.000 OA
BRANCH  23  25
ATOM     24  C   UNL     1       3.241   2.413  21.220  0.00  0.00    +0.000 C 
ATOM     25  C   UNL     1       2.029   3.235  21.620  0.00  0.00    +0.000 C 
ENDBRANCH  23  25
ENDBRANCH  21  23
ENDBRANCH  20  21
ENDBRANCH  16  20
ENDBRANCH   1  17
TORSDOF 5
ENDMDL
