MODEL 1
REMARK VINA RESULT:      -7.2      0.000      0.000
REMARK  Name = 
REMARK  13 active torsions:
REMARK  status: ('A' for Active; 'I' for Inactive)
REMARK    1  A    between atoms: C_1  and  O_2
REMARK    2  A    between atoms: O_2  and  C_3
REMARK    3  A    between atoms: C_8  and  N_9
REMARK    4  A    between atoms: N_9  and  C_10
REMARK    5  A    between atoms: N_9  and  S_27
REMARK    6  A    between atoms: C_10  and  C_11
REMARK    7  A    between atoms: N_13  and  C_14
REMARK    8  A    between atoms: C_19  and  C_20
REMARK    9  A    between atoms: N_22  and  C_23
REMARK   10  A    between atoms: C_23  and  C_24
REMARK   11  A    between atoms: C_24  and  C_25
REMARK   12  A    between atoms: C_24  and  C_26
REMARK   13  A    between atoms: S_27  and  C_28
REMARK                            x       y       z     vdW  Elec       q    Type
REMARK                         _______ _______ _______ _____ _____    ______ ____
ROOT
ATOM      1  C   UNL     1       1.968   7.776  19.169  0.00  0.00    +0.000 C 
ATOM      2  O   UNL     1       1.699   7.292  18.079  0.00  0.00    +0.000 OA
ATOM      3  N   UNL     1       2.269   6.956  20.276  0.00  0.00    +0.000 N 
ATOM      4  H   UNL     1       1.752   7.258  21.099  0.00  0.00    +0.000 HD
ENDROOT
BRANCH   3   5
ATOM      5  C   UNL     1       2.281   5.539  20.094  0.00  0.00    +0.000 A 
ATOM      6  C   UNL     1       1.184   4.821  20.600  0.00  0.00    +0.000 A 
ATOM      7  C   UNL     1       1.099   3.435  20.437  0.00  0.00    +0.000 A 
ATOM      8  C   UNL     1       2.121   2.743  19.797  0.00  0.00    +0.000 A 
ATOM      9  C   UNL     1       3.225   3.439  19.308  0.00  0.00    +0.000 A 
ATOM     10  C   UNL     1       3.316   4.838  19.444  0.00  0.00    +0.000 A 
BRANCH  10  11
ATOM     11  C   UNL     1       4.581   5.441  18.933  0.00  0.00    +0.000 C 
ATOM     12  O   UNL     1       5.540   5.585  19.685  0.00  0.00    +0.000 OA
ATOM     13  N   UNL     1       4.562   5.904  17.638  0.00  0.00    +0.000 N 
ATOM     14  H   UNL     1       3.709   5.806  17.105  0.00  0.00    +0.000 HD
BRANCH  13  15
ATOM     15  C   UNL     1       5.707   6.556  17.029  0.00  0.00    +0.000 C 
BRANCH  15  16
ATOM     16  C   UNL     1       6.454   5.608  16.084  0.00  0.00    +0.000 C 
ATOM     17  C   UNL     1       7.387   4.679  16.858  0.00  0.00    +0.000 C 
ATOM     18  C   UNL     1       5.462   4.777  15.269  0.00  0.00    +0.000 C 
ENDBRANCH  15  16
ENDBRANCH  13  15
ENDBRANCH  10  11
ENDBRANCH   3   5
BRANCH   1  19
ATOM     19  C   UNL     1       1.870   9.260  19.549  0.00  0.00    +0.000 C 
BRANCH  19  20
ATOM     20  N   UNL     1       0.737   9.968  20.254  0.00  0.00    +0.000 N 
BRANCH  20  26
ATOM     21  C   UNL     1      -0.437  11.977  19.300  0.00  0.00    +0.000 A 
ATOM     22  C   UNL     1      -1.202  12.472  18.222  0.00  0.00    +0.000 A 
ATOM     23  C   UNL     1      -1.862  11.628  17.340  0.00  0.00    +0.000 A 
ATOM     24  C   UNL     1      -1.870  10.269  17.604  0.00  0.00    +0.000 A 
ATOM     25  C   UNL     1      -1.142   9.763  18.687  0.00  0.00    +0.000 A 
ATOM     26  C   UNL     1      -0.301  10.583  19.461  0.00  0.00    +0.000 A 
BRANCH  21  28
ATOM     27  C   UNL     1       0.741  14.121  19.561  0.00  0.00    +0.000 C 
ATOM     28  O   UNL     1       0.009  13.022  20.050  0.00  0.00    +0.000 OA
ENDBRANCH  21  28
ENDBRANCH  20  26
BRANCH  20  29
ATOM     29  S   UNL     1       0.460   9.344  21.798  0.00  0.00    +0.000 S 
ATOM     30  C   UNL     1      -0.545  10.509  22.710  0.00  0.00    +0.000 C 
ATOM     31  O   UNL     1      -0.316   8.132  21.643  0.00  0.00    +0.000 OA
ATOM     32  O   UNL     1       1.761   9.271  22.452  0.00  0.00    +0.000 OA
ENDBRANCH  20  29
ENDBRANCH  19  20
ENDBRANCH   1  19
TORSDOF 9
ENDMDL
MODEL 2
REMARK VINA RESULT:      -7.2      2.371      8.187
REMARK  Name = 
REMARK  13 active torsions:
REMARK  status: ('A' for Active; 'I' for Inactive)
REMARK    1  A    between atoms: C_1  and  O_2
REMARK    2  A    between atoms: O_2  and  C_3
REMARK    3  A    between atoms: C_8  and  N_9
REMARK    4  A    between atoms: N_9  and  C_10
REMARK    5  A    between atoms: N_9  and  S_27
REMARK    6  A    between atoms: C_10  and  C_11
REMARK    7  A    between atoms: N_13  and  C_14
REMARK    8  A    between atoms: C_19  and  C_20
REMARK    9  A    between atoms: N_22  and  C_23
REMARK   10  A    between atoms: C_23  and  C_24
REMARK   11  A    between atoms: C_24  and  C_25
REMARK   12  A    between atoms: C_24  and  C_26
REMARK   13  A    between atoms: S_27  and  C_28
REMARK                            x       y       z     vdW  Elec       q    Type
REMARK                         _______ _______ _______ _____ _____    ______ ____
ROOT
ATOM      1  C   UNL     1       2.193   7.273  19.683  0.00  0.00    +0.000 C 
ATOM      2  O   UNL     1       1.678   6.547  20.521  0.00  0.00    +0.000 OA
ATOM      3  N   UNL     1       1.903   8.651  19.634  0.00  0.00    +0.000 N 
ATOM      4  H   UNL     1       1.698   8.942  18.680  0.00  0.00    +0.000 HD
ENDROOT
BRANCH   3   5
ATOM      5  C   UNL     1       1.008   9.196  20.605  0.00  0.00    +0.000 A 
ATOM      6  C   UNL     1       1.278   8.910  21.954  0.00  0.00    +0.000 A 
ATOM      7  C   UNL     1       0.473   9.429  22.972  0.00  0.00    +0.000 A 
ATOM      8  C   UNL     1      -0.630  10.215  22.658  0.00  0.00    +0.000 A 
ATOM      9  C   UNL     1      -0.923  10.491  21.323  0.00  0.00    +0.000 A 
ATOM     10  C   UNL     1      -0.109   9.994  20.286  0.00  0.00    +0.000 A 
BRANCH  10  11
ATOM     11  C   UNL     1      -0.578  10.314  18.906  0.00  0.00    +0.000 C 
ATOM     12  O   UNL     1       0.041   9.892  17.935  0.00  0.00    +0.000 OA
ATOM     13  N   UNL     1      -1.650  11.170  18.805  0.00  0.00    +0.000 N 
ATOM     14  H   UNL     1      -2.063  11.526  19.655  0.00  0.00    +0.000 HD
BRANCH  13  15
ATOM     15  C   UNL     1      -2.179  11.604  17.524  0.00  0.00    +0.000 C 
BRANCH  15  16
ATOM     16  C   UNL     1      -3.204  10.605  16.976  0.00  0.00    +0.000 C 
ATOM     17  C   UNL     1      -4.620  11.176  17.042  0.00  0.00    +0.000 C 
ATOM     18  C   UNL     1      -2.867  10.234  15.532  0.00  0.00    +0.000 C 
ENDBRANCH  15  16
ENDBRANCH  13  15
ENDBRANCH  10  11
ENDBRANCH   3   5
BRANCH   1  19
ATOM     19  C   UNL     1       3.064   6.815  18.505  0.00  0.00    +0.000 C 
BRANCH  19  20
ATOM     20  N   UNL     1       3.805   5.508  18.346  0.00  0.00    +0.000 N 
BRANCH  20  26
ATOM     21  C   UNL     1       3.473   3.191  19.266  0.00  0.00    +0.000 A 
ATOM     22  C   UNL     1       2.526   2.208  19.626  0.00  0.00    +0.000 A 
ATOM     23  C   UNL     1       1.214   2.250  19.173  0.00  0.00    +0.000 A 
ATOM     24  C   UNL     1       0.866   3.214  18.242  0.00  0.00    +0.000 A 
ATOM     25  C   UNL     1       1.802   4.178  17.849  0.00  0.00    +0.000 A 
ATOM     26  C   UNL     1       3.066   4.271  18.458  0.00  0.00    +0.000 A 
BRANCH  21  28
ATOM     27  C   UNL     1       4.931   1.782  20.660  0.00  0.00    +0.000 C 
ATOM     28  O   UNL     1       4.690   2.845  19.769  0.00  0.00    +0.000 OA
ENDBRANCH  21  28
ENDBRANCH  20  26
BRANCH  20  29
ATOM     29  S   UNL     1       5.180   5.668  17.381  0.00  0.00    +0.000 S 
ATOM     30  C   UNL     1       5.272   4.258  16.284  0.00  0.00    +0.000 C 
ATOM     31  O   UNL     1       4.997   6.845  16.558  0.00  0.00    +0.000 OA
ATOM     32  O   UNL     1       6.325   5.607  18.282  0.00  0.00    +0.000 OA
ENDBRANCH  20  29
ENDBRANCH  19  20
ENDBRANCH   1  19
TORSDOF 9
ENDMDL
MODEL 3
REMARK VINA RESULT:      -7.1      1.662      3.944
REMARK  Name = 
REMARK  13 active torsions:
REMARK  status: ('A' for Active; 'I' for Inactive)
REMARK    1  A    between atoms: C_1  and  O_2
REMARK    2  A    between atoms: O_2  and  C_3
REMARK    3  A    between atoms: C_8  and  N_9
REMARK    4  A    between atoms: N_9  and  C_10
REMARK    5  A    between atoms: N_9  and  S_27
REMARK    6  A    between atoms: C_10  and  C_11
REMARK    7  A    between atoms: N_13  and  C_14
REMARK    8  A    between atoms: C_19  and  C_20
REMARK    9  A    between atoms: N_22  and  C_23
REMARK   10  A    between atoms: C_23  and  C_24
REMARK   11  A    between atoms: C_24  and  C_25
REMARK   12  A    between atoms: C_24  and  C_26
REMARK   13  A    between atoms: S_27  and  C_28
REMARK                            x       y       z     vdW  Elec       q    Type
REMARK                         _______ _______ _______ _____ _____    ______ ____
ROOT
ATOM      1  C   UNL     1       2.186   8.012  18.480  0.00  0.00    +0.000 C 
ATOM      2  O   UNL     1       2.288   8.514  17.370  0.00  0.00    +0.000 OA
ATOM      3  N   UNL     1       2.924   6.863  18.832  0.00  0.00    +0.000 N 
ATOM      4  H   UNL     1       2.325   6.173  19.279  0.00  0.00    +0.000 HD
ENDROOT
BRANCH   3   5
ATOM      5  C   UNL     1       3.821   6.307  17.870  0.00  0.00    +0.000 A 
ATOM      6  C   UNL     1       4.840   7.145  17.387  0.00  0.00    +0.000 A 
ATOM      7  C   UNL     1       5.782   6.672  16.468  0.00  0.00    +0.000 A 
ATOM      8  C   UNL     1       5.702   5.367  15.995  0.00  0.00    +0.000 A 
ATOM      9  C   UNL     1       4.685   4.529  16.450  0.00  0.00    +0.000 A 
ATOM     10  C   UNL     1       3.740   4.983  17.392  0.00  0.00    +0.000 A 
BRANCH  10  11
ATOM     11  C   UNL     1       2.672   4.002  17.739  0.00  0.00    +0.000 C 
ATOM     12  O   UNL     1       1.587   4.049  17.168  0.00  0.00    +0.000 OA
ATOM     13  N   UNL     1       2.941   3.142  18.777  0.00  0.00    +0.000 N 
ATOM     14  H   UNL     1       3.837   3.211  19.240  0.00  0.00    +0.000 HD
BRANCH  13  15
ATOM     15  C   UNL     1       1.973   2.168  19.251  0.00  0.00    +0.000 C 
BRANCH  15  16
ATOM     16  C   UNL     1       1.360   2.596  20.589  0.00  0.00    +0.000 C 
ATOM     17  C   UNL     1       2.401   2.564  21.709  0.00  0.00    +0.000 C 
ATOM     18  C   UNL     1       0.767   4.000  20.481  0.00  0.00    +0.000 C 
ENDBRANCH  15  16
ENDBRANCH  13  15
ENDBRANCH  10  11
ENDBRANCH   3   5
BRANCH   1  19
ATOM     19  C   UNL     1       1.177   8.415  19.565  0.00  0.00    +0.000 C 
BRANCH  19  20
ATOM     20  N   UNL     1       0.955   9.782  20.168  0.00  0.00    +0.000 N 
BRANCH  20  26
ATOM     21  C   UNL     1      -0.638  10.983  18.638  0.00  0.00    +0.000 A 
ATOM     22  C   UNL     1      -1.049  12.240  18.142  0.00  0.00    +0.000 A 
ATOM     23  C   UNL     1      -0.247  13.368  18.245  0.00  0.00    +0.000 A 
ATOM     24  C   UNL     1       1.040  13.224  18.735  0.00  0.00    +0.000 A 
ATOM     25  C   UNL     1       1.475  11.978  19.202  0.00  0.00    +0.000 A 
ATOM     26  C   UNL     1       0.603  10.879  19.297  0.00  0.00    +0.000 A 
BRANCH  21  28
ATOM     27  C   UNL     1      -2.923  10.312  18.020  0.00  0.00    +0.000 C 
ATOM     28  O   UNL     1      -1.572  10.047  18.312  0.00  0.00    +0.000 OA
ENDBRANCH  21  28
ENDBRANCH  20  26
BRANCH  20  29
ATOM     29  S   UNL     1       0.452   9.694  21.776  0.00  0.00    +0.000 S 
ATOM     30  C   UNL     1      -0.430  11.197  22.180  0.00  0.00    +0.000 C 
ATOM     31  O   UNL     1      -0.491   8.599  21.876  0.00  0.00    +0.000 OA
ATOM     32  O   UNL     1       1.664   9.657  22.586  0.00  0.00    +0.000 OA
ENDBRANCH  20  29
ENDBRANCH  19  20
ENDBRANCH   1  19
TORSDOF 9
ENDMDL
MODEL 4
REMARK VINA RESULT:      -7.0      2.447      8.302
REMARK  Name = 
REMARK  13 active torsions:
REMARK  status: ('A' for Active; 'I' for Inactive)
REMARK    1  A    between atoms: C_1  and  O_2
REMARK    2  A    between atoms: O_2  and  C_3
REMARK    3  A    between atoms: C_8  and  N_9
REMARK    4  A    between atoms: N_9  and  C_10
REMARK    5  A    between atoms: N_9  and  S_27
REMARK    6  A    between atoms: C_10  and  C_11
REMARK    7  A    between atoms: N_13  and  C_14
REMARK    8  A    between atoms: C_19  and  C_20
REMARK    9  A    between atoms: N_22  and  C_23
REMARK   10  A    between atoms: C_23  and  C_24
REMARK   11  A    between atoms: C_24  and  C_25
REMARK   12  A    between atoms: C_24  and  C_26
REMARK   13  A    between atoms: S_27  and  C_28
REMARK                            x       y       z     vdW  Elec       q    Type
REMARK                         _______ _______ _______ _____ _____    ______ ____
ROOT
ATOM      1  C   UNL     1       2.247   6.945  19.175  0.00  0.00    +0.000 C 
ATOM      2  O   UNL     1       1.928   6.286  20.154  0.00  0.00    +0.000 OA
ATOM      3  N   UNL     1       1.898   8.306  19.066  0.00  0.00    +0.000 N 
ATOM      4  H   UNL     1       1.506   8.505  18.148  0.00  0.00    +0.000 HD
ENDROOT
BRANCH   3   5
ATOM      5  C   UNL     1       1.181   8.916  20.141  0.00  0.00    +0.000 A 
ATOM      6  C   UNL     1       1.580   8.582  21.446  0.00  0.00    +0.000 A 
ATOM      7  C   UNL     1       0.954   9.157  22.556  0.00  0.00    +0.000 A 
ATOM      8  C   UNL     1      -0.098  10.049  22.381  0.00  0.00    +0.000 A 
ATOM      9  C   UNL     1      -0.518  10.375  21.092  0.00  0.00    +0.000 A 
ATOM     10  C   UNL     1       0.115   9.821  19.962  0.00  0.00    +0.000 A 
BRANCH  10  11
ATOM     11  C   UNL     1      -0.481  10.208  18.651  0.00  0.00    +0.000 C 
ATOM     12  O   UNL     1       0.017   9.800  17.607  0.00  0.00    +0.000 OA
ATOM     13  N   UNL     1      -1.522  11.106  18.690  0.00  0.00    +0.000 N 
ATOM     14  H   UNL     1      -1.830  11.445  19.590  0.00  0.00    +0.000 HD
BRANCH  13  15
ATOM     15  C   UNL     1      -2.163  11.605  17.487  0.00  0.00    +0.000 C 
BRANCH  15  16
ATOM     16  C   UNL     1      -3.194  10.608  16.948  0.00  0.00    +0.000 C 
ATOM     17  C   UNL     1      -4.620  11.085  17.222  0.00  0.00    +0.000 C 
ATOM     18  C   UNL     1      -3.003  10.402  15.445  0.00  0.00    +0.000 C 
ENDBRANCH  15  16
ENDBRANCH  13  15
ENDBRANCH  10  11
ENDBRANCH   3   5
BRANCH   1  19
ATOM     19  C   UNL     1       2.899   6.403  17.895  0.00  0.00    +0.000 C 
BRANCH  19  20
ATOM     20  N   UNL     1       3.512   5.041  17.667  0.00  0.00    +0.000 N 
BRANCH  20  26
ATOM     21  C   UNL     1       5.854   4.471  16.950  0.00  0.00    +0.000 A 
ATOM     22  C   UNL     1       7.227   4.697  17.182  0.00  0.00    +0.000 A 
ATOM     23  C   UNL     1       7.691   5.250  18.368  0.00  0.00    +0.000 A 
ATOM     24  C   UNL     1       6.788   5.466  19.396  0.00  0.00    +0.000 A 
ATOM     25  C   UNL     1       5.426   5.217  19.194  0.00  0.00    +0.000 A 
ATOM     26  C   UNL     1       4.920   4.858  17.932  0.00  0.00    +0.000 A 
BRANCH  21  28
ATOM     27  C   UNL     1       6.458   4.084  14.597  0.00  0.00    +0.000 C 
ATOM     28  O   UNL     1       5.701   3.834  15.757  0.00  0.00    +0.000 OA
ENDBRANCH  21  28
ENDBRANCH  20  26
BRANCH  20  29
ATOM     29  S   UNL     1       2.381   3.799  17.831  0.00  0.00    +0.000 S 
ATOM     30  C   UNL     1       2.321   3.307  19.549  0.00  0.00    +0.000 C 
ATOM     31  O   UNL     1       1.084   4.346  17.492  0.00  0.00    +0.000 OA
ATOM     32  O   UNL     1       2.894   2.671  17.062  0.00  0.00    +0.000 OA
ENDBRANCH  20  29
ENDBRANCH  19  20
ENDBRANCH   1  19
TORSDOF 9
ENDMDL
MODEL 5
REMARK VINA RESULT:      -7.0      1.984      3.169
REMARK  Name = 
REMARK  13 active torsions:
REMARK  status: ('A' for Active; 'I' for Inactive)
REMARK    1  A    between atoms: C_1  and  O_2
REMARK    2  A    between atoms: O_2  and  C_3
REMARK    3  A    between atoms: C_8  and  N_9
REMARK    4  A    between atoms: N_9  and  C_10
REMARK    5  A    between atoms: N_9  and  S_27
REMARK    6  A    between atoms: C_10  and  C_11
REMARK    7  A    between atoms: N_13  and  C_14
REMARK    8  A    between atoms: C_19  and  C_20
REMARK    9  A    between atoms: N_22  and  C_23
REMARK   10  A    between atoms: C_23  and  C_24
REMARK   11  A    between atoms: C_24  and  C_25
REMARK   12  A    between atoms: C_24  and  C_26
REMARK   13  A    between atoms: S_27  and  C_28
REMARK                            x       y       z     vdW  Elec       q    Type
REMARK                         _______ _______ _______ _____ _____    ______ ____
ROOT
ATOM      1  C   UNL     1       2.096   6.352  19.940  0.00  0.00    +0.000 C 
ATOM      2  O   UNL     1       1.791   5.672  20.910  0.00  0.00    +0.000 OA
ATOM      3  N   UNL     1       2.499   5.754  18.729  0.00  0.00    +0.000 N 
ATOM      4  H   UNL     1       3.343   6.197  18.372  0.00  0.00    +0.000 HD
ENDROOT
BRANCH   3   5
ATOM      5  C   UNL     1       2.518   4.328  18.643  0.00  0.00    +0.000 A 
ATOM      6  C   UNL     1       1.276   3.670  18.663  0.00  0.00    +0.000 A 
ATOM      7  C   UNL     1       1.201   2.278  18.551  0.00  0.00    +0.000 A 
ATOM      8  C   UNL     1       2.363   1.522  18.450  0.00  0.00    +0.000 A 
ATOM      9  C   UNL     1       3.603   2.159  18.449  0.00  0.00    +0.000 A 
ATOM     10  C   UNL     1       3.696   3.562  18.538  0.00  0.00    +0.000 A 
BRANCH  10  11
ATOM     11  C   UNL     1       5.086   4.101  18.591  0.00  0.00    +0.000 C 
ATOM     12  O   UNL     1       5.508   4.609  19.625  0.00  0.00    +0.000 OA
ATOM     13  N   UNL     1       5.796   4.085  17.413  0.00  0.00    +0.000 N 
ATOM     14  H   UNL     1       5.351   3.708  16.589  0.00  0.00    +0.000 HD
BRANCH  13  15
ATOM     15  C   UNL     1       7.141   4.622  17.310  0.00  0.00    +0.000 C 
BRANCH  15  16
ATOM     16  C   UNL     1       7.131   6.055  16.767  0.00  0.00    +0.000 C 
ATOM     17  C   UNL     1       5.740   6.447  16.270  0.00  0.00    +0.000 C 
ATOM     18  C   UNL     1       7.587   7.038  17.845  0.00  0.00    +0.000 C 
ENDBRANCH  15  16
ENDBRANCH  13  15
ENDBRANCH  10  11
ENDBRANCH   3   5
BRANCH   1  19
ATOM     19  C   UNL     1       2.248   7.879  19.919  0.00  0.00    +0.000 C 
BRANCH  19  20
ATOM     20  N   UNL     1       1.174   8.919  19.701  0.00  0.00    +0.000 N 
BRANCH  20  26
ATOM     21  C   UNL     1      -0.371  10.597  20.760  0.00  0.00    +0.000 A 
ATOM     22  C   UNL     1      -1.114  10.926  21.914  0.00  0.00    +0.000 A 
ATOM     23  C   UNL     1      -0.859  10.337  23.145  0.00  0.00    +0.000 A 
ATOM     24  C   UNL     1       0.237   9.499  23.264  0.00  0.00    +0.000 A 
ATOM     25  C   UNL     1       1.004   9.186  22.136  0.00  0.00    +0.000 A 
ATOM     26  C   UNL     1       0.630   9.609  20.848  0.00  0.00    +0.000 A 
BRANCH  21  28
ATOM     27  C   UNL     1      -2.031  12.005  19.613  0.00  0.00    +0.000 C 
ATOM     28  O   UNL     1      -0.768  11.394  19.730  0.00  0.00    +0.000 OA
ENDBRANCH  21  28
ENDBRANCH  20  26
BRANCH  20  29
ATOM     29  S   UNL     1       1.272   9.623  18.171  0.00  0.00    +0.000 S 
ATOM     30  C   UNL     1       1.968  11.262  18.342  0.00  0.00    +0.000 C 
ATOM     31  O   UNL     1       2.205   8.837  17.391  0.00  0.00    +0.000 OA
ATOM     32  O   UNL     1      -0.099   9.769  17.696  0.00  0.00    +0.000 OA
ENDBRANCH  20  29
ENDBRANCH  19  20
ENDBRANCH   1  19
TORSDOF 9
ENDMDL
MODEL 6
REMARK VINA RESULT:      -6.8      2.094      4.632
REMARK  Name = 
REMARK  13 active torsions:
REMARK  status: ('A' for Active; 'I' for Inactive)
REMARK    1  A    between atoms: C_1  and  O_2
REMARK    2  A    between atoms: O_2  and  C_3
REMARK    3  A    between atoms: C_8  and  N_9
REMARK    4  A    between atoms: N_9  and  C_10
REMARK    5  A    between atoms: N_9  and  S_27
REMARK    6  A    between atoms: C_10  and  C_11
REMARK    7  A    between atoms: N_13  and  C_14
REMARK    8  A    between atoms: C_19  and  C_20
REMARK    9  A    between atoms: N_22  and  C_23
REMARK   10  A    between atoms: C_23  and  C_24
REMARK   11  A    between atoms: C_24  and  C_25
REMARK   12  A    between atoms: C_24  and  C_26
REMARK   13  A    between atoms: S_27  and  C_28
REMARK                            x       y       z     vdW  Elec       q    Type
REMARK                         _______ _______ _______ _____ _____    ______ ____
ROOT
ATOM      1  C   UNL     1       2.647   6.703  18.382  0.00  0.00    +0.000 C 
ATOM      2  O   UNL     1       1.944   5.939  17.737  0.00  0.00    +0.000 OA
ATOM      3  N   UNL     1       4.044   6.741  18.196  0.00  0.00    +0.000 N 
ATOM      4  H   UNL     1       4.527   6.724  19.092  0.00  0.00    +0.000 HD
ENDROOT
BRANCH   3   5
ATOM      5  C   UNL     1       4.626   5.883  17.214  0.00  0.00    +0.000 A 
ATOM      6  C   UNL     1       4.975   6.464  15.983  0.00  0.00    +0.000 A 
ATOM      7  C   UNL     1       5.580   5.704  14.977  0.00  0.00    +0.000 A 
ATOM      8  C   UNL     1       5.816   4.348  15.173  0.00  0.00    +0.000 A 
ATOM      9  C   UNL     1       5.457   3.752  16.381  0.00  0.00    +0.000 A 
ATOM     10  C   UNL     1       4.866   4.508  17.413  0.00  0.00    +0.000 A 
BRANCH  10  11
ATOM     11  C   UNL     1       4.476   3.728  18.623  0.00  0.00    +0.000 C 
ATOM     12  O   UNL     1       5.310   3.478  19.487  0.00  0.00    +0.000 OA
ATOM     13  N   UNL     1       3.192   3.235  18.648  0.00  0.00    +0.000 N 
ATOM     14  H   UNL     1       2.586   3.431  17.864  0.00  0.00    +0.000 HD
BRANCH  13  15
ATOM     15  C   UNL     1       2.694   2.419  19.741  0.00  0.00    +0.000 C 
BRANCH  15  16
ATOM     16  C   UNL     1       2.040   3.279  20.828  0.00  0.00    +0.000 C 
ATOM     17  C   UNL     1       0.844   4.054  20.274  0.00  0.00    +0.000 C 
ATOM     18  C   UNL     1       1.587   2.407  21.999  0.00  0.00    +0.000 C 
ENDBRANCH  15  16
ENDBRANCH  13  15
ENDBRANCH  10  11
ENDBRANCH   3   5
BRANCH   1  19
ATOM     19  C   UNL     1       2.188   7.584  19.552  0.00  0.00    +0.000 C 
BRANCH  19  20
ATOM     20  N   UNL     1       1.259   8.775  19.513  0.00  0.00    +0.000 N 
BRANCH  20  26
ATOM     21  C   UNL     1      -0.352  10.120  20.898  0.00  0.00    +0.000 A 
ATOM     22  C   UNL     1      -0.895  10.315  22.186  0.00  0.00    +0.000 A 
ATOM     23  C   UNL     1      -0.277   9.821  23.327  0.00  0.00    +0.000 A 
ATOM     24  C   UNL     1       0.969   9.231  23.203  0.00  0.00    +0.000 A 
ATOM     25  C   UNL     1       1.538   9.058  21.936  0.00  0.00    +0.000 A 
ATOM     26  C   UNL     1       0.829   9.364  20.760  0.00  0.00    +0.000 A 
BRANCH  21  28
ATOM     27  C   UNL     1      -1.690  12.058  20.188  0.00  0.00    +0.000 C 
ATOM     28  O   UNL     1      -1.108  10.792  19.987  0.00  0.00    +0.000 OA
ENDBRANCH  21  28
ENDBRANCH  20  26
BRANCH  20  29
ATOM     29  S   UNL     1       1.427   9.667  18.090  0.00  0.00    +0.000 S 
ATOM     30  C   UNL     1       1.812  11.359  18.521  0.00  0.00    +0.000 C 
ATOM     31  O   UNL     1       2.568   9.132  17.376  0.00  0.00    +0.000 OA
ATOM     32  O   UNL     1       0.121   9.658  17.441  0.00  0.00    +0.000 OA
ENDBRANCH  20  29
ENDBRANCH  19  20
ENDBRANCH   1  19
TORSDOF 9
ENDMDL
MODEL 7
REMARK VINA RESULT:      -6.8      1.379      2.207
REMARK  Name = 
REMARK  13 active torsions:
REMARK  status: ('A' for Active; 'I' for Inactive)
REMARK    1  A    between atoms: C_1  and  O_2
REMARK    2  A    between atoms: O_2  and  C_3
REMARK    3  A    between atoms: C_8  and  N_9
REMARK    4  A    between atoms: N_9  and  C_10
REMARK    5  A    between atoms: N_9  and  S_27
REMARK    6  A    between atoms: C_10  and  C_11
REMARK    7  A    between atoms: N_13  and  C_14
REMARK    8  A    between atoms: C_19  and  C_20
REMARK    9  A    between atoms: N_22  and  C_23
REMARK   10  A    between atoms: C_23  and  C_24
REMARK   11  A    between atoms: C_24  and  C_25
REMARK   12  A    between atoms: C_24  and  C_26
REMARK   13  A    between atoms: S_27  and  C_28
REMARK                            x       y       z     vdW  Elec       q    Type
REMARK                         _______ _______ _______ _____ _____    ______ ____
ROOT
ATOM      1  C   UNL     1       1.634   7.997  20.197  0.00  0.00    +0.000 C 
ATOM      2  O   UNL     1       0.772   7.951  19.331  0.00  0.00    +0.000 OA
ATOM      3  N   UNL     1       2.403   6.861  20.521  0.00  0.00    +0.000 N 
ATOM      4  H   UNL     1       2.446   6.730  21.530  0.00  0.00    +0.000 HD
ENDROOT
BRANCH   3   5
ATOM      5  C   UNL     1       2.176   5.652  19.795  0.00  0.00    +0.000 A 
ATOM      6  C   UNL     1       1.318   4.706  20.382  0.00  0.00    +0.000 A 
ATOM      7  C   UNL     1       1.015   3.509  19.725  0.00  0.00    +0.000 A 
ATOM      8  C   UNL     1       1.587   3.225  18.491  0.00  0.00    +0.000 A 
ATOM      9  C   UNL     1       2.456   4.145  17.905  0.00  0.00    +0.000 A 
ATOM     10  C   UNL     1       2.756   5.365  18.543  0.00  0.00    +0.000 A 
BRANCH  10  11
ATOM     11  C   UNL     1       3.749   6.222  17.833  0.00  0.00    +0.000 C 
ATOM     12  O   UNL     1       3.647   7.443  17.875  0.00  0.00    +0.000 OA
ATOM     13  N   UNL     1       4.688   5.569  17.069  0.00  0.00    +0.000 N 
ATOM     14  H   UNL     1       4.663   4.560  17.035  0.00  0.00    +0.000 HD
BRANCH  13  15
ATOM     15  C   UNL     1       5.684   6.280  16.287  0.00  0.00    +0.000 C 
BRANCH  15  16
ATOM     16  C   UNL     1       7.095   6.058  16.845  0.00  0.00    +0.000 C 
ATOM     17  C   UNL     1       7.524   7.221  17.739  0.00  0.00    +0.000 C 
ATOM     18  C   UNL     1       7.157   4.752  17.636  0.00  0.00    +0.000 C 
ENDBRANCH  15  16
ENDBRANCH  13  15
ENDBRANCH  10  11
ENDBRANCH   3   5
BRANCH   1  19
ATOM     19  C   UNL     1       1.902   9.175  21.143  0.00  0.00    +0.000 C 
BRANCH  19  20
ATOM     20  N   UNL     1       0.962  10.293  21.529  0.00  0.00    +0.000 N 
BRANCH  20  26
ATOM     21  C   UNL     1      -0.433  11.281  19.685  0.00  0.00    +0.000 A 
ATOM     22  C   UNL     1      -0.867  12.474  19.067  0.00  0.00    +0.000 A 
ATOM     23  C   UNL     1      -0.211  13.683  19.262  0.00  0.00    +0.000 A 
ATOM     24  C   UNL     1       0.973  13.685  19.981  0.00  0.00    +0.000 A 
ATOM     25  C   UNL     1       1.434  12.505  20.574  0.00  0.00    +0.000 A 
ATOM     26  C   UNL     1       0.670  11.324  20.560  0.00  0.00    +0.000 A 
BRANCH  21  28
ATOM     27  C   UNL     1      -1.899  10.216  18.020  0.00  0.00    +0.000 C 
ATOM     28  O   UNL     1      -1.196  10.245  19.240  0.00  0.00    +0.000 OA
ENDBRANCH  21  28
ENDBRANCH  20  26
BRANCH  20  29
ATOM     29  S   UNL     1      -0.138   9.817  22.717  0.00  0.00    +0.000 S 
ATOM     30  C   UNL     1      -1.296  11.153  22.989  0.00  0.00    +0.000 C 
ATOM     31  O   UNL     1      -0.887   8.696  22.190  0.00  0.00    +0.000 OA
ATOM     32  O   UNL     1       0.631   9.638  23.943  0.00  0.00    +0.000 OA
ENDBRANCH  20  29
ENDBRANCH  19  20
ENDBRANCH   1  19
TORSDOF 9
ENDMDL
MODEL 8
REMARK VINA RESULT:      -6.7      2.401      8.068
REMARK  Name = 
REMARK  13 active torsions:
REMARK  status: ('A' for Active; 'I' for Inactive)
REMARK    1  A    between atoms: C_1  and  O_2
REMARK    2  A    between atoms: O_2  and  C_3
REMARK    3  A    between atoms: C_8  and  N_9
REMARK    4  A    between atoms: N_9  and  C_10
REMARK    5  A    between atoms: N_9  and  S_27
REMARK    6  A    between atoms: C_10  and  C_11
REMARK    7  A    between atoms: N_13  and  C_14
REMARK    8  A    between atoms: C_19  and  C_20
REMARK    9  A    between atoms: N_22  and  C_23
REMARK   10  A    between atoms: C_23  and  C_24
REMARK   11  A    between atoms: C_24  and  C_25
REMARK   12  A    between atoms: C_24  and  C_26
REMARK   13  A    between atoms: S_27  and  C_28
REMARK                            x       y       z     vdW  Elec       q    Type
REMARK                         _______ _______ _______ _____ _____    ______ ____
ROOT
ATOM      1  C   UNL     1       2.171   7.081  20.181  0.00  0.00    +0.000 C 
ATOM      2  O   UNL     1       1.271   6.414  20.670  0.00  0.00    +0.000 OA
ATOM      3  N   UNL     1       2.179   8.487  20.291  0.00  0.00    +0.000 N 
ATOM      4  H   UNL     1       2.375   8.917  19.390  0.00  0.00    +0.000 HD
ENDROOT
BRANCH   3   5
ATOM      5  C   UNL     1       1.122   9.122  21.012  0.00  0.00    +0.000 A 
ATOM      6  C   UNL     1       1.130   8.983  22.411  0.00  0.00    +0.000 A 
ATOM      7  C   UNL     1       0.152   9.599  23.197  0.00  0.00    +0.000 A 
ATOM      8  C   UNL     1      -0.865  10.334  22.599  0.00  0.00    +0.000 A 
ATOM      9  C   UNL     1      -0.898  10.464  21.211  0.00  0.00    +0.000 A 
ATOM     10  C   UNL     1       0.092   9.868  20.405  0.00  0.00    +0.000 A 
BRANCH  10  11
ATOM     11  C   UNL     1      -0.105  10.035  18.936  0.00  0.00    +0.000 C 
ATOM     12  O   UNL     1       0.867  10.116  18.192  0.00  0.00    +0.000 OA
ATOM     13  N   UNL     1      -1.401  10.192  18.504  0.00  0.00    +0.000 N 
ATOM     14  H   UNL     1      -2.142  10.178  19.191  0.00  0.00    +0.000 HD
BRANCH  13  15
ATOM     15  C   UNL     1      -1.734  10.411  17.108  0.00  0.00    +0.000 C 
BRANCH  15  16
ATOM     16  C   UNL     1      -3.122  11.044  16.956  0.00  0.00    +0.000 C 
ATOM     17  C   UNL     1      -3.668  10.845  15.543  0.00  0.00    +0.000 C 
ATOM     18  C   UNL     1      -4.095  10.444  17.971  0.00  0.00    +0.000 C 
ENDBRANCH  15  16
ENDBRANCH  13  15
ENDBRANCH  10  11
ENDBRANCH   3   5
BRANCH   1  19
ATOM     19  C   UNL     1       3.294   6.558  19.275  0.00  0.00    +0.000 C 
BRANCH  19  20
ATOM     20  N   UNL     1       3.854   5.157  19.200  0.00  0.00    +0.000 N 
BRANCH  20  26
ATOM     21  C   UNL     1       2.854   2.968  19.929  0.00  0.00    +0.000 A 
ATOM     22  C   UNL     1       1.699   2.156  19.917  0.00  0.00    +0.000 A 
ATOM     23  C   UNL     1       0.663   2.366  19.017  0.00  0.00    +0.000 A 
ATOM     24  C   UNL     1       0.829   3.318  18.026  0.00  0.00    +0.000 A 
ATOM     25  C   UNL     1       1.983   4.111  18.004  0.00  0.00    +0.000 A 
ATOM     26  C   UNL     1       2.941   4.051  19.032  0.00  0.00    +0.000 A 
BRANCH  21  28
ATOM     27  C   UNL     1       4.894   1.732  20.533  0.00  0.00    +0.000 C 
ATOM     28  O   UNL     1       3.738   2.474  20.840  0.00  0.00    +0.000 OA
ENDBRANCH  21  28
ENDBRANCH  20  26
BRANCH  20  29
ATOM     29  S   UNL     1       5.436   5.134  18.613  0.00  0.00    +0.000 S 
ATOM     30  C   UNL     1       5.681   6.574  17.581  0.00  0.00    +0.000 C 
ATOM     31  O   UNL     1       6.322   5.262  19.751  0.00  0.00    +0.000 OA
ATOM     32  O   UNL     1       5.544   3.954  17.764  0.00  0.00    +0.000 OA
ENDBRANCH  20  29
ENDBRANCH  19  20
ENDBRANCH   1  19
TORSDOF 9
ENDMDL
MODEL 9
REMARK VINA RESULT:      -6.7      2.349      8.157
REMARK  Name = 
REMARK  13 active torsions:
REMARK  status: ('A' for Active; 'I' for Inactive)
REMARK    1  A    between atoms: C_1  and  O_2
REMARK    2  A    between atoms: O_2  and  C_3
REMARK    3  A    between atoms: C_8  and  N_9
REMARK    4  A    between atoms: N_9  and  C_10
REMARK    5  A    between atoms: N_9  and  S_27
REMARK    6  A    between atoms: C_10  and  C_11
REMARK    7  A    between atoms: N_13  and  C_14
REMARK    8  A    between atoms: C_19  and  C_20
REMARK    9  A    between atoms: N_22  and  C_23
REMARK   10  A    between atoms: C_23  and  C_24
REMARK   11  A    between atoms: C_24  and  C_25
REMARK   12  A    between atoms: C_24  and  C_26
REMARK   13  A    between atoms: S_27  and  C_28
REMARK                            x       y       z     vdW  Elec       q    Type
REMARK                         _______ _______ _______ _____ _____    ______ ____
ROOT
ATOM      1  C   UNL     1       2.183   7.254  19.370  0.00  0.00    +0.000 C 
ATOM      2  O   UNL     1       2.047   6.645  20.421  0.00  0.00    +0.000 OA
ATOM      3  N   UNL     1       1.677   8.560  19.213  0.00  0.00    +0.000 N 
ATOM      4  H   UNL     1       1.167   8.646  18.337  0.00  0.00    +0.000 HD
ENDROOT
BRANCH   3   5
ATOM      5  C   UNL     1       1.021   9.177  20.322  0.00  0.00    +0.000 A 
ATOM      6  C   UNL     1       1.190   8.574  21.580  0.00  0.00    +0.000 A 
ATOM      7  C   UNL     1       0.610   9.129  22.725  0.00  0.00    +0.000 A 
ATOM      8  C   UNL     1      -0.172  10.275  22.626  0.00  0.00    +0.000 A 
ATOM      9  C   UNL     1      -0.365  10.873  21.382  0.00  0.00    +0.000 A 
ATOM     10  C   UNL     1       0.230  10.339  20.221  0.00  0.00    +0.000 A 
BRANCH  10  11
ATOM     11  C   UNL     1      -0.116  11.043  18.953  0.00  0.00    +0.000 C 
ATOM     12  O   UNL     1       0.647  11.887  18.493  0.00  0.00    +0.000 OA
ATOM     13  N   UNL     1      -1.351  10.768  18.414  0.00  0.00    +0.000 N 
ATOM     14  H   UNL     1      -1.948  10.108  18.893  0.00  0.00    +0.000 HD
BRANCH  13  15
ATOM     15  C   UNL     1      -1.836  11.419  17.210  0.00  0.00    +0.000 C 
BRANCH  15  16
ATOM     16  C   UNL     1      -3.097  10.733  16.673  0.00  0.00    +0.000 C 
ATOM     17  C   UNL     1      -2.901  10.270  15.230  0.00  0.00    +0.000 C 
ATOM     18  C   UNL     1      -3.468   9.536  17.549  0.00  0.00    +0.000 C 
ENDBRANCH  15  16
ENDBRANCH  13  15
ENDBRANCH  10  11
ENDBRANCH   3   5
BRANCH   1  19
ATOM     19  C   UNL     1       2.744   6.682  18.061  0.00  0.00    +0.000 C 
BRANCH  19  20
ATOM     20  N   UNL     1       3.296   5.298  17.810  0.00  0.00    +0.000 N 
BRANCH  20  26
ATOM     21  C   UNL     1       5.580   4.818  16.872  0.00  0.00    +0.000 A 
ATOM     22  C   UNL     1       6.968   5.008  17.040  0.00  0.00    +0.000 A 
ATOM     23  C   UNL     1       7.514   5.401  18.255  0.00  0.00    +0.000 A 
ATOM     24  C   UNL     1       6.683   5.485  19.359  0.00  0.00    +0.000 A 
ATOM     25  C   UNL     1       5.307   5.269  19.217  0.00  0.00    +0.000 A 
ATOM     26  C   UNL     1       4.716   5.077  17.955  0.00  0.00    +0.000 A 
BRANCH  21  28
ATOM     27  C   UNL     1       6.329   4.035  14.664  0.00  0.00    +0.000 C 
ATOM     28  O   UNL     1       5.342   4.341  15.620  0.00  0.00    +0.000 OA
ENDBRANCH  21  28
ENDBRANCH  20  26
BRANCH  20  29
ATOM     29  S   UNL     1       2.149   4.094  18.098  0.00  0.00    +0.000 S 
ATOM     30  C   UNL     1       2.778   2.545  17.462  0.00  0.00    +0.000 C 
ATOM     31  O   UNL     1       2.020   3.952  19.533  0.00  0.00    +0.000 OA
ATOM     32  O   UNL     1       0.971   4.451  17.315  0.00  0.00    +0.000 OA
ENDBRANCH  20  29
ENDBRANCH  19  20
ENDBRANCH   1  19
TORSDOF 9
ENDMDL
