MODEL 1
REMARK VINA RESULT:      -6.6      0.000      0.000
REMARK  Name = 
REMARK  5 active torsions:
REMARK  status: ('A' for Active; 'I' for Inactive)
REMARK    1  A    between atoms: C_1  and  C_2
REMARK    2  A    between atoms: C_7  and  N_8
REMARK    3  A    between atoms: N_13  and  C_14
REMARK    4  A    between atoms: C_14  and  C_15
REMARK    5  A    between atoms: N_19  and  C_20
REMARK                            x       y       z     vdW  Elec       q    Type
REMARK                         _______ _______ _______ _____ _____    ______ ____
ROOT
ATOM      1  N   UNL     1       4.093   3.876  18.589  0.00  0.00    +0.000 N 
ATOM      2  C   UNL     1       4.501   5.007  17.782  0.00  0.00    +0.000 C 
ATOM      3  C   UNL     1       6.008   5.176  18.007  0.00  0.00    +0.000 C 
ATOM      4  C   UNL     1       6.422   6.652  17.976  0.00  0.00    +0.000 C 
ATOM      5  C   UNL     1       7.337   6.805  16.762  0.00  0.00    +0.000 C 
ATOM      6  N   UNL     1       7.204   5.589  15.950  0.00  0.00    +0.000 NA
ATOM      7  C   UNL     1       6.864   4.531  16.912  0.00  0.00    +0.000 C 
ATOM      8  C   UNL     1       6.234   4.481  19.346  0.00  0.00    +0.000 C 
ATOM      9  C   UNL     1       5.142   3.447  19.409  0.00  0.00    +0.000 C 
ATOM     10  O   UNL     1       5.188   2.474  20.148  0.00  0.00    +0.000 OA
ENDROOT
BRANCH   1  17
ATOM     11  C   UNL     1       2.523   5.717  20.461  0.00  0.00    +0.000 C 
ATOM     12  C   UNL     1       2.009   4.434  19.864  0.00  0.00    +0.000 A 
ATOM     13  C   UNL     1       0.722   4.019  20.270  0.00  0.00    +0.000 A 
ATOM     14  C   UNL     1       0.100   2.917  19.692  0.00  0.00    +0.000 A 
ATOM     15  C   UNL     1       0.747   2.220  18.687  0.00  0.00    +0.000 A 
ATOM     16  C   UNL     1       2.038   2.589  18.305  0.00  0.00    +0.000 A 
ATOM     17  C   UNL     1       2.710   3.672  18.902  0.00  0.00    +0.000 A 
ENDBRANCH   1  17
BRANCH   6  18
ATOM     18  C   UNL     1       6.231   5.764  14.859  0.00  0.00    +0.000 C 
BRANCH  18  19
ATOM     19  C   UNL     1       6.403   4.798  13.717  0.00  0.00    +0.000 A 
ATOM     20  N   UNL     1       5.605   3.764  13.489  0.00  0.00    +0.000 NA
ATOM     21  C   UNL     1       6.095   3.151  12.366  0.00  0.00    +0.000 A 
ATOM     22  C   UNL     1       7.201   3.811  11.894  0.00  0.00    +0.000 A 
ATOM     23  N   UNL     1       7.397   4.852  12.766  0.00  0.00    +0.000 N 
ATOM     24  C   UNL     1       8.476   5.803  12.667  0.00  0.00    +0.000 C 
ENDBRANCH  18  19
ENDBRANCH   6  18
TORSDOF 3
ENDMDL
MODEL 2
REMARK VINA RESULT:      -6.2      9.243     12.328
REMARK  Name = 
REMARK  5 active torsions:
REMARK  status: ('A' for Active; 'I' for Inactive)
REMARK    1  A    between atoms: C_1  and  C_2
REMARK    2  A    between atoms: C_7  and  N_8
REMARK    3  A    between atoms: N_13  and  C_14
REMARK    4  A    between atoms: C_14  and  C_15
REMARK    5  A    between atoms: N_19  and  C_20
REMARK                            x       y       z     vdW  Elec       q    Type
REMARK                         _______ _______ _______ _____ _____    ______ ____
ROOT
ATOM      1  N   UNL     1      -0.734  11.635  19.153  0.00  0.00    +0.000 N 
ATOM      2  C   UNL     1      -1.727  12.045  18.183  0.00  0.00    +0.000 C 
ATOM      3  C   UNL     1      -2.149  10.774  17.435  0.00  0.00    +0.000 C 
ATOM      4  C   UNL     1      -2.467  11.064  15.964  0.00  0.00    +0.000 C 
ATOM      5  C   UNL     1      -3.956  10.769  15.791  0.00  0.00    +0.000 C 
ATOM      6  N   UNL     1      -4.541  10.638  17.132  0.00  0.00    +0.000 NA
ATOM      7  C   UNL     1      -3.440  10.150  17.974  0.00  0.00    +0.000 C 
ATOM      8  C   UNL     1      -0.965   9.839  17.657  0.00  0.00    +0.000 C 
ATOM      9  C   UNL     1      -0.379  10.296  18.966  0.00  0.00    +0.000 C 
ATOM     10  O   UNL     1       0.355   9.594  19.648  0.00  0.00    +0.000 OA
ENDROOT
BRANCH   1  17
ATOM     11  C   UNL     1      -0.705  12.190  22.162  0.00  0.00    +0.000 C 
ATOM     12  C   UNL     1       0.062  12.964  21.124  0.00  0.00    +0.000 A 
ATOM     13  C   UNL     1       0.792  14.083  21.581  0.00  0.00    +0.000 A 
ATOM     14  C   UNL     1       1.632  14.797  20.732  0.00  0.00    +0.000 A 
ATOM     15  C   UNL     1       1.769  14.395  19.416  0.00  0.00    +0.000 A 
ATOM     16  C   UNL     1       1.022  13.318  18.935  0.00  0.00    +0.000 A 
ATOM     17  C   UNL     1       0.130  12.605  19.758  0.00  0.00    +0.000 A 
ENDBRANCH   1  17
BRANCH   6  18
ATOM     18  C   UNL     1      -5.153  11.898  17.588  0.00  0.00    +0.000 C 
BRANCH  18  19
ATOM     19  C   UNL     1      -5.950  11.774  18.858  0.00  0.00    +0.000 A 
ATOM     20  N   UNL     1      -7.104  11.128  18.953  0.00  0.00    +0.000 NA
ATOM     21  C   UNL     1      -7.492  11.243  20.263  0.00  0.00    +0.000 A 
ATOM     22  C   UNL     1      -6.573  11.963  20.982  0.00  0.00    +0.000 A 
ATOM     23  N   UNL     1      -5.600  12.307  20.078  0.00  0.00    +0.000 N 
ATOM     24  C   UNL     1      -4.437  13.097  20.397  0.00  0.00    +0.000 C 
ENDBRANCH  18  19
ENDBRANCH   6  18
TORSDOF 3
ENDMDL
MODEL 3
REMARK VINA RESULT:      -6.1     10.162     12.833
REMARK  Name = 
REMARK  5 active torsions:
REMARK  status: ('A' for Active; 'I' for Inactive)
REMARK    1  A    between atoms: C_1  and  C_2
REMARK    2  A    between atoms: C_7  and  N_8
REMARK    3  A    between atoms: N_13  and  C_14
REMARK    4  A    between atoms: C_14  and  C_15
REMARK    5  A    between atoms: N_19  and  C_20
REMARK                            x       y       z     vdW  Elec       q    Type
REMARK                         _______ _______ _______ _____ _____    ______ ____
ROOT
ATOM      1  N   UNL     1      -5.030  12.904  20.701  0.00  0.00    +0.000 N 
ATOM      2  C   UNL     1      -3.700  13.424  20.934  0.00  0.00    +0.000 C 
ATOM      3  C   UNL     1      -3.459  13.333  22.445  0.00  0.00    +0.000 C 
ATOM      4  C   UNL     1      -2.604  14.500  22.952  0.00  0.00    +0.000 C 
ATOM      5  C   UNL     1      -1.303  13.879  23.458  0.00  0.00    +0.000 C 
ATOM      6  N   UNL     1      -1.259  12.492  22.976  0.00  0.00    +0.000 NA
ATOM      7  C   UNL     1      -2.667  12.090  22.862  0.00  0.00    +0.000 C 
ATOM      8  C   UNL     1      -4.874  13.287  23.014  0.00  0.00    +0.000 C 
ATOM      9  C   UNL     1      -5.690  12.668  21.911  0.00  0.00    +0.000 C 
ATOM     10  O   UNL     1      -6.782  12.151  22.101  0.00  0.00    +0.000 OA
ENDROOT
BRANCH   1  17
ATOM     11  C   UNL     1      -5.220  10.878  18.417  0.00  0.00    +0.000 C 
ATOM     12  C   UNL     1      -5.694  12.306  18.359  0.00  0.00    +0.000 A 
ATOM     13  C   UNL     1      -6.197  12.756  17.119  0.00  0.00    +0.000 A 
ATOM     14  C   UNL     1      -6.772  14.015  16.984  0.00  0.00    +0.000 A 
ATOM     15  C   UNL     1      -6.870  14.840  18.091  0.00  0.00    +0.000 A 
ATOM     16  C   UNL     1      -6.339  14.429  19.314  0.00  0.00    +0.000 A 
ATOM     17  C   UNL     1      -5.710  13.180  19.470  0.00  0.00    +0.000 A 
ENDBRANCH   1  17
BRANCH   6  18
ATOM     18  C   UNL     1      -0.481  12.369  21.732  0.00  0.00    +0.000 C 
BRANCH  18  19
ATOM     19  C   UNL     1       0.141  11.015  21.524  0.00  0.00    +0.000 A 
ATOM     20  N   UNL     1       0.480  10.191  22.506  0.00  0.00    +0.000 NA
ATOM     21  C   UNL     1       1.000   9.077  21.901  0.00  0.00    +0.000 A 
ATOM     22  C   UNL     1       0.981   9.210  20.536  0.00  0.00    +0.000 A 
ATOM     23  N   UNL     1       0.443  10.451  20.304  0.00  0.00    +0.000 N 
ATOM     24  C   UNL     1       0.257  11.024  18.995  0.00  0.00    +0.000 C 
ENDBRANCH  18  19
ENDBRANCH   6  18
TORSDOF 3
ENDMDL
MODEL 4
REMARK VINA RESULT:      -6.1      8.777     12.173
REMARK  Name = 
REMARK  5 active torsions:
REMARK  status: ('A' for Active; 'I' for Inactive)
REMARK    1  A    between atoms: C_1  and  C_2
REMARK    2  A    between atoms: C_7  and  N_8
REMARK    3  A    between atoms: N_13  and  C_14
REMARK    4  A    between atoms: C_14  and  C_15
REMARK    5  A    between atoms: N_19  and  C_20
REMARK                            x       y       z     vdW  Elec       q    Type
REMARK                         _______ _______ _______ _____ _____    ______ ____
ROOT
ATOM      1  N   UNL     1      -0.267  10.612  19.296  0.00  0.00    +0.000 N 
ATOM      2  C   UNL     1       0.173  11.820  19.961  0.00  0.00    +0.000 C 
ATOM      3  C   UNL     1      -0.789  12.930  19.521  0.00  0.00    +0.000 C 
ATOM      4  C   UNL     1      -0.075  14.280  19.395  0.00  0.00    +0.000 C 
ATOM      5  C   UNL     1      -0.697  15.184  20.459  0.00  0.00    +0.000 C 
ATOM      6  N   UNL     1      -1.480  14.330  21.363  0.00  0.00    +0.000 NA
ATOM      7  C   UNL     1      -1.910  13.199  20.530  0.00  0.00    +0.000 C 
ATOM      8  C   UNL     1      -1.360  12.388  18.214  0.00  0.00    +0.000 C 
ATOM      9  C   UNL     1      -1.277  10.893  18.371  0.00  0.00    +0.000 C 
ATOM     10  O   UNL     1      -1.941  10.116  17.700  0.00  0.00    +0.000 OA
ENDROOT
BRANCH   1  17
ATOM     11  C   UNL     1       0.144   8.605  21.567  0.00  0.00    +0.000 C 
ATOM     12  C   UNL     1       0.910   8.625  20.271  0.00  0.00    +0.000 A 
ATOM     13  C   UNL     1       1.952   7.682  20.137  0.00  0.00    +0.000 A 
ATOM     14  C   UNL     1       2.643   7.531  18.939  0.00  0.00    +0.000 A 
ATOM     15  C   UNL     1       2.293   8.309  17.850  0.00  0.00    +0.000 A 
ATOM     16  C   UNL     1       1.296   9.277  17.977  0.00  0.00    +0.000 A 
ATOM     17  C   UNL     1       0.610   9.484  19.189  0.00  0.00    +0.000 A 
ENDBRANCH   1  17
BRANCH   6  18
ATOM     18  C   UNL     1      -0.713  13.955  22.562  0.00  0.00    +0.000 C 
BRANCH  18  19
ATOM     19  C   UNL     1      -1.192  14.606  23.831  0.00  0.00    +0.000 A 
ATOM     20  N   UNL     1      -0.485  15.483  24.532  0.00  0.00    +0.000 NA
ATOM     21  C   UNL     1      -1.272  15.835  25.597  0.00  0.00    +0.000 A 
ATOM     22  C   UNL     1      -2.474  15.175  25.555  0.00  0.00    +0.000 A 
ATOM     23  N   UNL     1      -2.410  14.386  24.434  0.00  0.00    +0.000 N 
ATOM     24  C   UNL     1      -3.458  13.492  24.009  0.00  0.00    +0.000 C 
ENDBRANCH  18  19
ENDBRANCH   6  18
TORSDOF 3
ENDMDL
MODEL 5
REMARK VINA RESULT:      -6.0      2.092      3.346
REMARK  Name = 
REMARK  5 active torsions:
REMARK  status: ('A' for Active; 'I' for Inactive)
REMARK    1  A    between atoms: C_1  and  C_2
REMARK    2  A    between atoms: C_7  and  N_8
REMARK    3  A    between atoms: N_13  and  C_14
REMARK    4  A    between atoms: C_14  and  C_15
REMARK    5  A    between atoms: N_19  and  C_20
REMARK                            x       y       z     vdW  Elec       q    Type
REMARK                         _______ _______ _______ _____ _____    ______ ____
ROOT
ATOM      1  N   UNL     1       3.016   5.883  19.175  0.00  0.00    +0.000 N 
ATOM      2  C   UNL     1       4.191   6.060  18.348  0.00  0.00    +0.000 C 
ATOM      3  C   UNL     1       5.032   4.788  18.515  0.00  0.00    +0.000 C 
ATOM      4  C   UNL     1       6.533   5.093  18.461  0.00  0.00    +0.000 C 
ATOM      5  C   UNL     1       7.060   4.385  17.214  0.00  0.00    +0.000 C 
ATOM      6  N   UNL     1       5.898   3.976  16.413  0.00  0.00    +0.000 NA
ATOM      7  C   UNL     1       4.823   3.768  17.392  0.00  0.00    +0.000 C 
ATOM      8  C   UNL     1       4.544   4.230  19.849  0.00  0.00    +0.000 C 
ATOM      9  C   UNL     1       3.128   4.729  19.958  0.00  0.00    +0.000 C 
ATOM     10  O   UNL     1       2.299   4.222  20.699  0.00  0.00    +0.000 OA
ENDROOT
BRANCH   1  17
ATOM     11  C   UNL     1       2.474   8.223  17.280  0.00  0.00    +0.000 C 
ATOM     12  C   UNL     1       2.061   8.157  18.727  0.00  0.00    +0.000 A 
ATOM     13  C   UNL     1       1.441   9.306  19.260  0.00  0.00    +0.000 A 
ATOM     14  C   UNL     1       0.911   9.314  20.547  0.00  0.00    +0.000 A 
ATOM     15  C   UNL     1       0.978   8.166  21.316  0.00  0.00    +0.000 A 
ATOM     16  C   UNL     1       1.627   7.034  20.821  0.00  0.00    +0.000 A 
ATOM     17  C   UNL     1       2.212   7.011  19.541  0.00  0.00    +0.000 A 
ENDBRANCH   1  17
BRANCH   6  18
ATOM     18  C   UNL     1       5.588   4.956  15.358  0.00  0.00    +0.000 C 
BRANCH  18  19
ATOM     19  C   UNL     1       6.494   4.880  14.159  0.00  0.00    +0.000 A 
ATOM     20  N   UNL     1       7.666   5.495  14.071  0.00  0.00    +0.000 NA
ATOM     21  C   UNL     1       8.170   5.169  12.839  0.00  0.00    +0.000 A 
ATOM     22  C   UNL     1       7.307   4.346  12.161  0.00  0.00    +0.000 A 
ATOM     23  N   UNL     1       6.237   4.176  13.004  0.00  0.00    +0.000 N 
ATOM     24  C   UNL     1       5.068   3.395  12.686  0.00  0.00    +0.000 C 
ENDBRANCH  18  19
ENDBRANCH   6  18
TORSDOF 3
ENDMDL
MODEL 6
REMARK VINA RESULT:      -6.0      2.106      6.843
REMARK  Name = 
REMARK  5 active torsions:
REMARK  status: ('A' for Active; 'I' for Inactive)
REMARK    1  A    between atoms: C_1  and  C_2
REMARK    2  A    between atoms: C_7  and  N_8
REMARK    3  A    between atoms: N_13  and  C_14
REMARK    4  A    between atoms: C_14  and  C_15
REMARK    5  A    between atoms: N_19  and  C_20
REMARK                            x       y       z     vdW  Elec       q    Type
REMARK                         _______ _______ _______ _____ _____    ______ ____
ROOT
ATOM      1  N   UNL     1       5.576   5.023  15.151  0.00  0.00    +0.000 N 
ATOM      2  C   UNL     1       6.011   4.452  16.409  0.00  0.00    +0.000 C 
ATOM      3  C   UNL     1       5.954   5.586  17.440  0.00  0.00    +0.000 C 
ATOM      4  C   UNL     1       7.076   5.462  18.477  0.00  0.00    +0.000 C 
ATOM      5  C   UNL     1       6.384   5.210  19.815  0.00  0.00    +0.000 C 
ATOM      6  N   UNL     1       4.982   4.876  19.533  0.00  0.00    +0.000 NA
ATOM      7  C   UNL     1       4.674   5.581  18.281  0.00  0.00    +0.000 C 
ATOM      8  C   UNL     1       6.025   6.839  16.573  0.00  0.00    +0.000 C 
ATOM      9  C   UNL     1       5.427   6.410  15.260  0.00  0.00    +0.000 C 
ATOM     10  O   UNL     1       4.993   7.201  14.435  0.00  0.00    +0.000 OA
ENDROOT
BRANCH   1  17
ATOM     11  C   UNL     1       8.220   5.348  13.647  0.00  0.00    +0.000 C 
ATOM     12  C   UNL     1       7.017   4.594  13.146  0.00  0.00    +0.000 A 
ATOM     13  C   UNL     1       7.102   4.062  11.841  0.00  0.00    +0.000 A 
ATOM     14  C   UNL     1       6.101   3.247  11.323  0.00  0.00    +0.000 A 
ATOM     15  C   UNL     1       5.005   2.936  12.107  0.00  0.00    +0.000 A 
ATOM     16  C   UNL     1       4.882   3.489  13.383  0.00  0.00    +0.000 A 
ATOM     17  C   UNL     1       5.857   4.353  13.916  0.00  0.00    +0.000 A 
ENDBRANCH   1  17
BRANCH   6  18
ATOM     18  C   UNL     1       4.763   3.421  19.489  0.00  0.00    +0.000 C 
BRANCH  18  19
ATOM     19  C   UNL     1       3.357   2.997  19.814  0.00  0.00    +0.000 A 
ATOM     20  N   UNL     1       2.870   2.907  21.044  0.00  0.00    +0.000 NA
ATOM     21  C   UNL     1       1.569   2.500  20.905  0.00  0.00    +0.000 A 
ATOM     22  C   UNL     1       1.247   2.339  19.581  0.00  0.00    +0.000 A 
ATOM     23  N   UNL     1       2.394   2.646  18.894  0.00  0.00    +0.000 N 
ATOM     24  C   UNL     1       2.521   2.587  17.459  0.00  0.00    +0.000 C 
ENDBRANCH  18  19
ENDBRANCH   6  18
TORSDOF 3
ENDMDL
MODEL 7
REMARK VINA RESULT:      -6.0      9.043     12.116
REMARK  Name = 
REMARK  5 active torsions:
REMARK  status: ('A' for Active; 'I' for Inactive)
REMARK    1  A    between atoms: C_1  and  C_2
REMARK    2  A    between atoms: C_7  and  N_8
REMARK    3  A    between atoms: N_13  and  C_14
REMARK    4  A    between atoms: C_14  and  C_15
REMARK    5  A    between atoms: N_19  and  C_20
REMARK                            x       y       z     vdW  Elec       q    Type
REMARK                         _______ _______ _______ _____ _____    ______ ____
ROOT
ATOM      1  N   UNL     1       0.064  11.112  20.044  0.00  0.00    +0.000 N 
ATOM      2  C   UNL     1      -1.314  11.073  20.487  0.00  0.00    +0.000 C 
ATOM      3  C   UNL     1      -1.548  12.363  21.282  0.00  0.00    +0.000 C 
ATOM      4  C   UNL     1      -2.518  12.140  22.447  0.00  0.00    +0.000 C 
ATOM      5  C   UNL     1      -3.750  12.988  22.135  0.00  0.00    +0.000 C 
ATOM      6  N   UNL     1      -3.651  13.412  20.733  0.00  0.00    +0.000 NA
ATOM      7  C   UNL     1      -2.209  13.474  20.461  0.00  0.00    +0.000 C 
ATOM      8  C   UNL     1      -0.137  12.768  21.699  0.00  0.00    +0.000 C 
ATOM      9  C   UNL     1       0.741  12.190  20.621  0.00  0.00    +0.000 C 
ATOM     10  O   UNL     1       1.880  12.583  20.409  0.00  0.00    +0.000 OA
ENDROOT
BRANCH   1  17
ATOM     11  C   UNL     1       0.731   8.788  21.918  0.00  0.00    +0.000 C 
ATOM     12  C   UNL     1       1.147   8.892  20.475  0.00  0.00    +0.000 A 
ATOM     13  C   UNL     1       1.976   7.863  19.979  0.00  0.00    +0.000 A 
ATOM     14  C   UNL     1       2.319   7.794  18.633  0.00  0.00    +0.000 A 
ATOM     15  C   UNL     1       1.827   8.744  17.756  0.00  0.00    +0.000 A 
ATOM     16  C   UNL     1       1.042   9.794  18.236  0.00  0.00    +0.000 A 
ATOM     17  C   UNL     1       0.715   9.915  19.599  0.00  0.00    +0.000 A 
ENDBRANCH   1  17
BRANCH   6  18
ATOM     18  C   UNL     1      -4.410  12.523  19.837  0.00  0.00    +0.000 C 
BRANCH  18  19
ATOM     19  C   UNL     1      -5.732  13.082  19.386  0.00  0.00    +0.000 A 
ATOM     20  N   UNL     1      -6.095  14.349  19.533  0.00  0.00    +0.000 NA
ATOM     21  C   UNL     1      -7.351  14.445  18.992  0.00  0.00    +0.000 A 
ATOM     22  C   UNL     1      -7.767  13.232  18.505  0.00  0.00    +0.000 A 
ATOM     23  N   UNL     1      -6.735  12.367  18.770  0.00  0.00    +0.000 N 
ATOM     24  C   UNL     1      -6.751  10.962  18.448  0.00  0.00    +0.000 C 
ENDBRANCH  18  19
ENDBRANCH   6  18
TORSDOF 3
ENDMDL
MODEL 8
REMARK VINA RESULT:      -6.0      2.116      6.692
REMARK  Name = 
REMARK  5 active torsions:
REMARK  status: ('A' for Active; 'I' for Inactive)
REMARK    1  A    between atoms: C_1  and  C_2
REMARK    2  A    between atoms: C_7  and  N_8
REMARK    3  A    between atoms: N_13  and  C_14
REMARK    4  A    between atoms: C_14  and  C_15
REMARK    5  A    between atoms: N_19  and  C_20
REMARK                            x       y       z     vdW  Elec       q    Type
REMARK                         _______ _______ _______ _____ _____    ______ ____
ROOT
ATOM      1  N   UNL     1       5.688   5.055  15.215  0.00  0.00    +0.000 N 
ATOM      2  C   UNL     1       6.205   4.512  16.453  0.00  0.00    +0.000 C 
ATOM      3  C   UNL     1       6.102   5.634  17.493  0.00  0.00    +0.000 C 
ATOM      4  C   UNL     1       7.263   5.587  18.491  0.00  0.00    +0.000 C 
ATOM      5  C   UNL     1       6.636   5.280  19.850  0.00  0.00    +0.000 C 
ATOM      6  N   UNL     1       5.253   4.847  19.612  0.00  0.00    +0.000 NA
ATOM      7  C   UNL     1       4.854   5.534  18.376  0.00  0.00    +0.000 C 
ATOM      8  C   UNL     1       6.054   6.893  16.633  0.00  0.00    +0.000 C 
ATOM      9  C   UNL     1       5.444   6.427  15.338  0.00  0.00    +0.000 C 
ATOM     10  O   UNL     1       4.928   7.189  14.533  0.00  0.00    +0.000 OA
ENDROOT
BRANCH   1  17
ATOM     11  C   UNL     1       8.297   5.494  13.678  0.00  0.00    +0.000 C 
ATOM     12  C   UNL     1       7.115   4.705  13.183  0.00  0.00    +0.000 A 
ATOM     13  C   UNL     1       7.200   4.194  11.870  0.00  0.00    +0.000 A 
ATOM     14  C   UNL     1       6.220   3.351  11.355  0.00  0.00    +0.000 A 
ATOM     15  C   UNL     1       5.147   2.991  12.150  0.00  0.00    +0.000 A 
ATOM     16  C   UNL     1       5.023   3.521  13.435  0.00  0.00    +0.000 A 
ATOM     17  C   UNL     1       5.975   4.412  13.967  0.00  0.00    +0.000 A 
ENDBRANCH   1  17
BRANCH   6  18
ATOM     18  C   UNL     1       5.138   3.380  19.566  0.00  0.00    +0.000 C 
BRANCH  18  19
ATOM     19  C   UNL     1       3.796   2.879  19.107  0.00  0.00    +0.000 A 
ATOM     20  N   UNL     1       3.521   2.520  17.860  0.00  0.00    +0.000 NA
ATOM     21  C   UNL     1       2.209   2.124  17.864  0.00  0.00    +0.000 A 
ATOM     22  C   UNL     1       1.669   2.236  19.120  0.00  0.00    +0.000 A 
ATOM     23  N   UNL     1       2.683   2.728  19.903  0.00  0.00    +0.000 N 
ATOM     24  C   UNL     1       2.552   3.027  21.307  0.00  0.00    +0.000 C 
ENDBRANCH  18  19
ENDBRANCH   6  18
TORSDOF 3
ENDMDL
MODEL 9
REMARK VINA RESULT:      -5.9      9.233     12.330
REMARK  Name = 
REMARK  5 active torsions:
REMARK  status: ('A' for Active; 'I' for Inactive)
REMARK    1  A    between atoms: C_1  and  C_2
REMARK    2  A    between atoms: C_7  and  N_8
REMARK    3  A    between atoms: N_13  and  C_14
REMARK    4  A    between atoms: C_14  and  C_15
REMARK    5  A    between atoms: N_19  and  C_20
REMARK                            x       y       z     vdW  Elec       q    Type
REMARK                         _______ _______ _______ _____ _____    ______ ____
ROOT
ATOM      1  N   UNL     1      -1.014  11.709  19.380  0.00  0.00    +0.000 N 
ATOM      2  C   UNL     1      -1.950  12.066  18.336  0.00  0.00    +0.000 C 
ATOM      3  C   UNL     1      -2.175  10.797  17.505  0.00  0.00    +0.000 C 
ATOM      4  C   UNL     1      -2.386  11.122  16.023  0.00  0.00    +0.000 C 
ATOM      5  C   UNL     1      -3.816  10.694  15.699  0.00  0.00    +0.000 C 
ATOM      6  N   UNL     1      -4.504  10.448  16.973  0.00  0.00    +0.000 NA
ATOM      7  C   UNL     1      -3.442  10.029  17.897  0.00  0.00    +0.000 C 
ATOM      8  C   UNL     1      -0.929   9.969  17.804  0.00  0.00    +0.000 C 
ATOM      9  C   UNL     1      -0.512  10.419  19.178  0.00  0.00    +0.000 C 
ATOM     10  O   UNL     1       0.223   9.760  19.900  0.00  0.00    +0.000 OA
ENDROOT
BRANCH   1  17
ATOM     11  C   UNL     1       1.543  13.018  18.328  0.00  0.00    +0.000 C 
ATOM     12  C   UNL     1       0.942  13.247  19.689  0.00  0.00    +0.000 A 
ATOM     13  C   UNL     1       1.667  14.077  20.569  0.00  0.00    +0.000 A 
ATOM     14  C   UNL     1       1.148  14.454  21.804  0.00  0.00    +0.000 A 
ATOM     15  C   UNL     1      -0.113  14.020  22.172  0.00  0.00    +0.000 A 
ATOM     16  C   UNL     1      -0.826  13.162  21.333  0.00  0.00    +0.000 A 
ATOM     17  C   UNL     1      -0.308  12.728  20.099  0.00  0.00    +0.000 A 
ENDBRANCH   1  17
BRANCH   6  18
ATOM     18  C   UNL     1      -5.277  11.622  17.414  0.00  0.00    +0.000 C 
BRANCH  18  19
ATOM     19  C   UNL     1      -6.031  11.417  18.699  0.00  0.00    +0.000 A 
ATOM     20  N   UNL     1      -6.948  10.476  18.884  0.00  0.00    +0.000 NA
ATOM     21  C   UNL     1      -7.383  10.624  20.175  0.00  0.00    +0.000 A 
ATOM     22  C   UNL     1      -6.731  11.660  20.794  0.00  0.00    +0.000 A 
ATOM     23  N   UNL     1      -5.881  12.167  19.844  0.00  0.00    +0.000 N 
ATOM     24  C   UNL     1      -5.009  13.295  20.055  0.00  0.00    +0.000 C 
ENDBRANCH  18  19
ENDBRANCH   6  18
TORSDOF 3
ENDMDL
