MODEL 1
REMARK VINA RESULT:      -7.1      0.000      0.000
REMARK  Name = 
REMARK  9 active torsions:
REMARK  status: ('A' for Active; 'I' for Inactive)
REMARK    1  A    between atoms: C_6  and  C_7
REMARK    2  A    between atoms: C_13  and  O_14
REMARK    3  A    between atoms: O_14  and  C_15
REMARK    4  A    between atoms: C_15  and  C_16
REMARK    5  A    between atoms: C_16  and  O_17
REMARK    6  A    between atoms: O_17  and  C_18
REMARK    7  A    between atoms: C_18  and  P_19
REMARK    8  A    between atoms: P_19  and  O_21
REMARK    9  A    between atoms: P_19  and  O_22
REMARK                            x       y       z     vdW  Elec       q    Type
REMARK                         _______ _______ _______ _____ _____    ______ ____
ROOT
ATOM      1  N   UNL     1       5.007   1.456  20.012  0.00  0.00    +0.000 N 
ATOM      2  C   UNL     1       4.410   2.691  19.878  0.00  0.00    +0.000 A 
ATOM      3  N   UNL     1       3.151   2.810  20.264  0.00  0.00    +0.000 NA
ATOM      4  C   UNL     1       2.569   4.012  20.099  0.00  0.00    +0.000 A 
ATOM      5  N   UNL     1       1.236   4.002  20.508  0.00  0.00    +0.000 N 
ATOM      6  C   UNL     1       3.219   5.151  19.586  0.00  0.00    +0.000 A 
ATOM      7  C   UNL     1       4.548   4.893  19.246  0.00  0.00    +0.000 A 
ATOM      8  N   UNL     1       5.137   3.682  19.392  0.00  0.00    +0.000 NA
ATOM      9  H   UNL     1       4.529   0.930  20.730  0.00  0.00    +0.000 HD
ATOM     10  H   UNL     1       6.006   1.570  20.114  0.00  0.00    +0.000 HD
ATOM     11  H   UNL     1       1.004   3.048  20.769  0.00  0.00    +0.000 HD
ATOM     12  H   UNL     1       0.622   4.368  19.790  0.00  0.00    +0.000 HD
ENDROOT
BRANCH   6  13
ATOM     13  C   UNL     1       2.484   6.440  19.364  0.00  0.00    +0.000 A 
ATOM     14  C   UNL     1       2.396   7.029  18.082  0.00  0.00    +0.000 A 
ATOM     15  C   UNL     1       1.966   8.347  17.890  0.00  0.00    +0.000 A 
ATOM     16  C   UNL     1       1.523   9.091  18.973  0.00  0.00    +0.000 A 
ATOM     17  C   UNL     1       1.488   8.505  20.234  0.00  0.00    +0.000 A 
ATOM     18  C   UNL     1       1.970   7.201  20.429  0.00  0.00    +0.000 A 
ENDBRANCH   6  13
BRANCH   7  19
ATOM     19  O   UNL     1       5.374   5.900  18.756  0.00  0.00    +0.000 OA
BRANCH  19  20
ATOM     20  C   UNL     1       6.765   5.650  19.063  0.00  0.00    +0.000 C 
BRANCH  20  21
ATOM     21  C   UNL     1       7.712   6.239  18.014  0.00  0.00    +0.000 C 
BRANCH  21  22
ATOM     22  O   UNL     1       7.082   6.367  16.724  0.00  0.00    +0.000 OA
BRANCH  22  23
ATOM     23  C   UNL     1       7.387   5.209  15.909  0.00  0.00    +0.000 C 
BRANCH  23  24
ATOM     24  P   UNL     1       5.851   4.413  15.416  0.00  0.00    +0.000 P 
ATOM     25  O   UNL     1       5.727   4.070  13.969  0.00  0.00    +0.000 OA
BRANCH  24  26
ATOM     26  O   UNL     1       5.710   3.160  16.412  0.00  0.00    +0.000 OA
ATOM     27  H   UNL     1       4.765   2.989  16.623  0.00  0.00    +0.000 HD
ENDBRANCH  24  26
BRANCH  24  28
ATOM     28  O   UNL     1       4.643   5.323  15.949  0.00  0.00    +0.000 OA
ATOM     29  H   UNL     1       4.356   5.937  15.243  0.00  0.00    +0.000 HD
ENDBRANCH  24  28
ENDBRANCH  23  24
ENDBRANCH  22  23
ENDBRANCH  21  22
ENDBRANCH  20  21
ENDBRANCH  19  20
ENDBRANCH   7  19
TORSDOF 9
ENDMDL
MODEL 2
REMARK VINA RESULT:      -7.0      0.925      1.463
REMARK  Name = 
REMARK  9 active torsions:
REMARK  status: ('A' for Active; 'I' for Inactive)
REMARK    1  A    between atoms: C_6  and  C_7
REMARK    2  A    between atoms: C_13  and  O_14
REMARK    3  A    between atoms: O_14  and  C_15
REMARK    4  A    between atoms: C_15  and  C_16
REMARK    5  A    between atoms: C_16  and  O_17
REMARK    6  A    between atoms: O_17  and  C_18
REMARK    7  A    between atoms: C_18  and  P_19
REMARK    8  A    between atoms: P_19  and  O_21
REMARK    9  A    between atoms: P_19  and  O_22
REMARK                            x       y       z     vdW  Elec       q    Type
REMARK                         _______ _______ _______ _____ _____    ______ ____
ROOT
ATOM      1  N   UNL     1       4.869   1.484  19.710  0.00  0.00    +0.000 N 
ATOM      2  C   UNL     1       4.378   2.770  19.639  0.00  0.00    +0.000 A 
ATOM      3  N   UNL     1       3.071   2.935  19.755  0.00  0.00    +0.000 NA
ATOM      4  C   UNL     1       2.600   4.192  19.651  0.00  0.00    +0.000 A 
ATOM      5  N   UNL     1       1.210   4.233  19.755  0.00  0.00    +0.000 N 
ATOM      6  C   UNL     1       3.403   5.335  19.472  0.00  0.00    +0.000 A 
ATOM      7  C   UNL     1       4.760   5.019  19.394  0.00  0.00    +0.000 A 
ATOM      8  N   UNL     1       5.242   3.756  19.479  0.00  0.00    +0.000 NA
ATOM      9  H   UNL     1       4.216   0.905  20.219  0.00  0.00    +0.000 HD
ATOM     10  H   UNL     1       5.822   1.502  20.043  0.00  0.00    +0.000 HD
ATOM     11  H   UNL     1       0.879   3.274  19.811  0.00  0.00    +0.000 HD
ATOM     12  H   UNL     1       0.792   4.742  18.983  0.00  0.00    +0.000 HD
ENDROOT
BRANCH   6  13
ATOM     13  C   UNL     1       2.799   6.697  19.293  0.00  0.00    +0.000 A 
ATOM     14  C   UNL     1       2.100   7.337  20.342  0.00  0.00    +0.000 A 
ATOM     15  C   UNL     1       1.298   8.464  20.130  0.00  0.00    +0.000 A 
ATOM     16  C   UNL     1       1.241   9.043  18.871  0.00  0.00    +0.000 A 
ATOM     17  C   UNL     1       2.006   8.506  17.840  0.00  0.00    +0.000 A 
ATOM     18  C   UNL     1       2.767   7.344  18.046  0.00  0.00    +0.000 A 
ENDBRANCH   6  13
BRANCH   7  19
ATOM     19  O   UNL     1       5.723   6.015  19.255  0.00  0.00    +0.000 OA
BRANCH  19  20
ATOM     20  C   UNL     1       7.050   5.461  19.102  0.00  0.00    +0.000 C 
BRANCH  20  21
ATOM     21  C   UNL     1       7.643   5.731  17.718  0.00  0.00    +0.000 C 
BRANCH  21  22
ATOM     22  O   UNL     1       7.918   4.514  16.997  0.00  0.00    +0.000 OA
BRANCH  22  23
ATOM     23  C   UNL     1       6.726   4.072  16.304  0.00  0.00    +0.000 C 
BRANCH  23  24
ATOM     24  P   UNL     1       6.551   5.004  14.776  0.00  0.00    +0.000 P 
ATOM     25  O   UNL     1       7.818   5.492  14.157  0.00  0.00    +0.000 OA
BRANCH  24  26
ATOM     26  O   UNL     1       5.668   4.056  13.826  0.00  0.00    +0.000 OA
ATOM     27  H   UNL     1       5.344   3.272  14.321  0.00  0.00    +0.000 HD
ENDBRANCH  24  26
BRANCH  24  28
ATOM     28  O   UNL     1       5.494   6.180  15.046  0.00  0.00    +0.000 OA
ATOM     29  H   UNL     1       5.826   7.016  14.660  0.00  0.00    +0.000 HD
ENDBRANCH  24  28
ENDBRANCH  23  24
ENDBRANCH  22  23
ENDBRANCH  21  22
ENDBRANCH  20  21
ENDBRANCH  19  20
ENDBRANCH   7  19
TORSDOF 9
ENDMDL
MODEL 3
REMARK VINA RESULT:      -6.9      2.974      4.621
REMARK  Name = 
REMARK  9 active torsions:
REMARK  status: ('A' for Active; 'I' for Inactive)
REMARK    1  A    between atoms: C_6  and  C_7
REMARK    2  A    between atoms: C_13  and  O_14
REMARK    3  A    between atoms: O_14  and  C_15
REMARK    4  A    between atoms: C_15  and  C_16
REMARK    5  A    between atoms: C_16  and  O_17
REMARK    6  A    between atoms: O_17  and  C_18
REMARK    7  A    between atoms: C_18  and  P_19
REMARK    8  A    between atoms: P_19  and  O_21
REMARK    9  A    between atoms: P_19  and  O_22
REMARK                            x       y       z     vdW  Elec       q    Type
REMARK                         _______ _______ _______ _____ _____    ______ ____
ROOT
ATOM      1  N   UNL     1       5.793   3.058  15.878  0.00  0.00    +0.000 N 
ATOM      2  C   UNL     1       5.064   4.066  16.472  0.00  0.00    +0.000 A 
ATOM      3  N   UNL     1       5.669   5.223  16.676  0.00  0.00    +0.000 NA
ATOM      4  C   UNL     1       4.957   6.189  17.286  0.00  0.00    +0.000 A 
ATOM      5  N   UNL     1       5.712   7.346  17.477  0.00  0.00    +0.000 N 
ATOM      6  C   UNL     1       3.611   6.062  17.679  0.00  0.00    +0.000 A 
ATOM      7  C   UNL     1       3.090   4.803  17.379  0.00  0.00    +0.000 A 
ATOM      8  N   UNL     1       3.804   3.819  16.782  0.00  0.00    +0.000 NA
ATOM      9  H   UNL     1       6.548   3.463  15.343  0.00  0.00    +0.000 HD
ATOM     10  H   UNL     1       5.171   2.429  15.391  0.00  0.00    +0.000 HD
ATOM     11  H   UNL     1       6.659   7.147  17.167  0.00  0.00    +0.000 HD
ATOM     12  H   UNL     1       5.677   7.660  18.440  0.00  0.00    +0.000 HD
ENDROOT
BRANCH   6  13
ATOM     13  C   UNL     1       2.904   7.160  18.419  0.00  0.00    +0.000 A 
ATOM     14  C   UNL     1       2.518   7.009  19.770  0.00  0.00    +0.000 A 
ATOM     15  C   UNL     1       1.626   7.886  20.398  0.00  0.00    +0.000 A 
ATOM     16  C   UNL     1       1.160   9.000  19.715  0.00  0.00    +0.000 A 
ATOM     17  C   UNL     1       1.609   9.242  18.420  0.00  0.00    +0.000 A 
ATOM     18  C   UNL     1       2.462   8.330  17.778  0.00  0.00    +0.000 A 
ENDBRANCH   6  13
BRANCH   7  19
ATOM     19  O   UNL     1       1.761   4.490  17.654  0.00  0.00    +0.000 OA
BRANCH  19  20
ATOM     20  C   UNL     1       1.594   3.091  17.975  0.00  0.00    +0.000 C 
BRANCH  20  21
ATOM     21  C   UNL     1       0.997   2.877  19.368  0.00  0.00    +0.000 C 
BRANCH  21  22
ATOM     22  O   UNL     1       1.884   2.140  20.233  0.00  0.00    +0.000 OA
BRANCH  22  23
ATOM     23  C   UNL     1       2.980   2.989  20.652  0.00  0.00    +0.000 C 
BRANCH  23  24
ATOM     24  P   UNL     1       4.535   2.229  20.164  0.00  0.00    +0.000 P 
ATOM     25  O   UNL     1       5.271   1.496  21.234  0.00  0.00    +0.000 OA
BRANCH  24  26
ATOM     26  O   UNL     1       4.161   1.337  18.881  0.00  0.00    +0.000 OA
ATOM     27  H   UNL     1       4.796   0.595  18.777  0.00  0.00    +0.000 HD
ENDBRANCH  24  26
BRANCH  24  28
ATOM     28  O   UNL     1       5.425   3.362  19.457  0.00  0.00    +0.000 OA
ATOM     29  H   UNL     1       5.158   3.453  18.520  0.00  0.00    +0.000 HD
ENDBRANCH  24  28
ENDBRANCH  23  24
ENDBRANCH  22  23
ENDBRANCH  21  22
ENDBRANCH  20  21
ENDBRANCH  19  20
ENDBRANCH   7  19
TORSDOF 9
ENDMDL
MODEL 4
REMARK VINA RESULT:      -6.9      1.013      1.350
REMARK  Name = 
REMARK  9 active torsions:
REMARK  status: ('A' for Active; 'I' for Inactive)
REMARK    1  A    between atoms: C_6  and  C_7
REMARK    2  A    between atoms: C_13  and  O_14
REMARK    3  A    between atoms: O_14  and  C_15
REMARK    4  A    between atoms: C_15  and  C_16
REMARK    5  A    between atoms: C_16  and  O_17
REMARK    6  A    between atoms: O_17  and  C_18
REMARK    7  A    between atoms: C_18  and  P_19
REMARK    8  A    between atoms: P_19  and  O_21
REMARK    9  A    between atoms: P_19  and  O_22
REMARK                            x       y       z     vdW  Elec       q    Type
REMARK                         _______ _______ _______ _____ _____    ______ ____
ROOT
ATOM      1  N   UNL     1       4.540   0.830  19.121  0.00  0.00    +0.000 N 
ATOM      2  C   UNL     1       4.024   2.104  19.222  0.00  0.00    +0.000 A 
ATOM      3  N   UNL     1       2.710   2.240  19.164  0.00  0.00    +0.000 NA
ATOM      4  C   UNL     1       2.219   3.491  19.231  0.00  0.00    +0.000 A 
ATOM      5  N   UNL     1       0.829   3.509  19.124  0.00  0.00    +0.000 N 
ATOM      6  C   UNL     1       3.003   4.650  19.399  0.00  0.00    +0.000 A 
ATOM      7  C   UNL     1       4.365   4.359  19.473  0.00  0.00    +0.000 A 
ATOM      8  N   UNL     1       4.870   3.104  19.389  0.00  0.00    +0.000 NA
ATOM      9  H   UNL     1       3.837   0.161  19.403  0.00  0.00    +0.000 HD
ATOM     10  H   UNL     1       5.431   0.785  19.595  0.00  0.00    +0.000 HD
ATOM     11  H   UNL     1       0.525   2.556  18.944  0.00  0.00    +0.000 HD
ATOM     12  H   UNL     1       0.517   4.156  18.409  0.00  0.00    +0.000 HD
ENDROOT
BRANCH   6  13
ATOM     13  C   UNL     1       2.389   6.018  19.393  0.00  0.00    +0.000 A 
ATOM     14  C   UNL     1       2.457   6.854  18.255  0.00  0.00    +0.000 A 
ATOM     15  C   UNL     1       2.147   8.217  18.305  0.00  0.00    +0.000 A 
ATOM     16  C   UNL     1       1.669   8.772  19.482  0.00  0.00    +0.000 A 
ATOM     17  C   UNL     1       1.481   7.955  20.593  0.00  0.00    +0.000 A 
ATOM     18  C   UNL     1       1.844   6.599  20.552  0.00  0.00    +0.000 A 
ENDBRANCH   6  13
BRANCH   7  19
ATOM     19  O   UNL     1       5.306   5.365  19.678  0.00  0.00    +0.000 OA
BRANCH  19  20
ATOM     20  C   UNL     1       6.570   5.054  19.050  0.00  0.00    +0.000 C 
BRANCH  20  21
ATOM     21  C   UNL     1       7.230   6.282  18.418  0.00  0.00    +0.000 C 
BRANCH  21  22
ATOM     22  O   UNL     1       7.813   5.987  17.134  0.00  0.00    +0.000 OA
BRANCH  22  23
ATOM     23  C   UNL     1       7.323   4.711  16.652  0.00  0.00    +0.000 C 
BRANCH  23  24
ATOM     24  P   UNL     1       6.589   4.938  15.027  0.00  0.00    +0.000 P 
ATOM     25  O   UNL     1       5.444   5.892  14.951  0.00  0.00    +0.000 OA
BRANCH  24  26
ATOM     26  O   UNL     1       7.828   5.308  14.073  0.00  0.00    +0.000 OA
ATOM     27  H   UNL     1       8.208   4.498  13.667  0.00  0.00    +0.000 HD
ENDBRANCH  24  26
BRANCH  24  28
ATOM     28  O   UNL     1       6.229   3.484  14.453  0.00  0.00    +0.000 OA
ATOM     29  H   UNL     1       6.623   3.374  13.563  0.00  0.00    +0.000 HD
ENDBRANCH  24  28
ENDBRANCH  23  24
ENDBRANCH  22  23
ENDBRANCH  21  22
ENDBRANCH  20  21
ENDBRANCH  19  20
ENDBRANCH   7  19
TORSDOF 9
ENDMDL
MODEL 5
REMARK VINA RESULT:      -6.9      3.716      5.956
REMARK  Name = 
REMARK  9 active torsions:
REMARK  status: ('A' for Active; 'I' for Inactive)
REMARK    1  A    between atoms: C_6  and  C_7
REMARK    2  A    between atoms: C_13  and  O_14
REMARK    3  A    between atoms: O_14  and  C_15
REMARK    4  A    between atoms: C_15  and  C_16
REMARK    5  A    between atoms: C_16  and  O_17
REMARK    6  A    between atoms: O_17  and  C_18
REMARK    7  A    between atoms: C_18  and  P_19
REMARK    8  A    between atoms: P_19  and  O_21
REMARK    9  A    between atoms: P_19  and  O_22
REMARK                            x       y       z     vdW  Elec       q    Type
REMARK                         _______ _______ _______ _____ _____    ______ ____
ROOT
ATOM      1  N   UNL     1       6.135   5.817  14.938  0.00  0.00    +0.000 N 
ATOM      2  C   UNL     1       5.320   5.458  15.990  0.00  0.00    +0.000 A 
ATOM      3  N   UNL     1       5.237   4.174  16.291  0.00  0.00    +0.000 NA
ATOM      4  C   UNL     1       4.412   3.832  17.298  0.00  0.00    +0.000 A 
ATOM      5  N   UNL     1       4.383   2.452  17.497  0.00  0.00    +0.000 N 
ATOM      6  C   UNL     1       3.673   4.747  18.072  0.00  0.00    +0.000 A 
ATOM      7  C   UNL     1       3.875   6.066  17.665  0.00  0.00    +0.000 A 
ATOM      8  N   UNL     1       4.688   6.419  16.641  0.00  0.00    +0.000 NA
ATOM      9  H   UNL     1       6.838   5.104  14.801  0.00  0.00    +0.000 HD
ATOM     10  H   UNL     1       6.462   6.765  15.069  0.00  0.00    +0.000 HD
ATOM     11  H   UNL     1       4.948   2.026  16.768  0.00  0.00    +0.000 HD
ATOM     12  H   UNL     1       3.434   2.096  17.509  0.00  0.00    +0.000 HD
ENDROOT
BRANCH   6  13
ATOM     13  C   UNL     1       2.719   4.284  19.134  0.00  0.00    +0.000 A 
ATOM     14  C   UNL     1       3.093   4.248  20.497  0.00  0.00    +0.000 A 
ATOM     15  C   UNL     1       2.340   3.571  21.463  0.00  0.00    +0.000 A 
ATOM     16  C   UNL     1       1.136   2.982  21.110  0.00  0.00    +0.000 A 
ATOM     17  C   UNL     1       0.680   3.095  19.800  0.00  0.00    +0.000 A 
ATOM     18  C   UNL     1       1.465   3.730  18.823  0.00  0.00    +0.000 A 
ENDBRANCH   6  13
BRANCH   7  19
ATOM     19  O   UNL     1       3.263   7.126  18.329  0.00  0.00    +0.000 OA
BRANCH  19  20
ATOM     20  C   UNL     1       2.295   7.797  17.491  0.00  0.00    +0.000 C 
BRANCH  20  21
ATOM     21  C   UNL     1       2.006   9.226  17.957  0.00  0.00    +0.000 C 
BRANCH  21  22
ATOM     22  O   UNL     1       0.834   9.299  18.793  0.00  0.00    +0.000 OA
BRANCH  22  23
ATOM     23  C   UNL     1       1.160   9.955  20.042  0.00  0.00    +0.000 C 
BRANCH  23  24
ATOM     24  P   UNL     1       0.914   8.800  21.398  0.00  0.00    +0.000 P 
ATOM     25  O   UNL     1      -0.501   8.566  21.812  0.00  0.00    +0.000 OA
BRANCH  24  26
ATOM     26  O   UNL     1       1.702   7.475  20.945  0.00  0.00    +0.000 OA
ATOM     27  H   UNL     1       1.849   6.879  21.712  0.00  0.00    +0.000 HD
ENDBRANCH  24  26
BRANCH  24  28
ATOM     28  O   UNL     1       1.850   9.272  22.612  0.00  0.00    +0.000 OA
ATOM     29  H   UNL     1       2.519   8.583  22.798  0.00  0.00    +0.000 HD
ENDBRANCH  24  28
ENDBRANCH  23  24
ENDBRANCH  22  23
ENDBRANCH  21  22
ENDBRANCH  20  21
ENDBRANCH  19  20
ENDBRANCH   7  19
TORSDOF 9
ENDMDL
MODEL 6
REMARK VINA RESULT:      -6.8      4.010      6.361
REMARK  Name = 
REMARK  9 active torsions:
REMARK  status: ('A' for Active; 'I' for Inactive)
REMARK    1  A    between atoms: C_6  and  C_7
REMARK    2  A    between atoms: C_13  and  O_14
REMARK    3  A    between atoms: O_14  and  C_15
REMARK    4  A    between atoms: C_15  and  C_16
REMARK    5  A    between atoms: C_16  and  O_17
REMARK    6  A    between atoms: O_17  and  C_18
REMARK    7  A    between atoms: C_18  and  P_19
REMARK    8  A    between atoms: P_19  and  O_21
REMARK    9  A    between atoms: P_19  and  O_22
REMARK                            x       y       z     vdW  Elec       q    Type
REMARK                         _______ _______ _______ _____ _____    ______ ____
ROOT
ATOM      1  N   UNL     1       6.874   7.396  16.853  0.00  0.00    +0.000 N 
ATOM      2  C   UNL     1       5.807   6.711  17.392  0.00  0.00    +0.000 A 
ATOM      3  N   UNL     1       6.045   5.520  17.915  0.00  0.00    +0.000 NA
ATOM      4  C   UNL     1       4.990   4.845  18.409  0.00  0.00    +0.000 A 
ATOM      5  N   UNL     1       5.360   3.593  18.898  0.00  0.00    +0.000 N 
ATOM      6  C   UNL     1       3.671   5.338  18.444  0.00  0.00    +0.000 A 
ATOM      7  C   UNL     1       3.569   6.613  17.887  0.00  0.00    +0.000 A 
ATOM      8  N   UNL     1       4.621   7.292  17.371  0.00  0.00    +0.000 NA
ATOM      9  H   UNL     1       7.731   7.067  17.273  0.00  0.00    +0.000 HD
ATOM     10  H   UNL     1       6.695   8.390  16.893  0.00  0.00    +0.000 HD
ATOM     11  H   UNL     1       6.346   3.462  18.691  0.00  0.00    +0.000 HD
ATOM     12  H   UNL     1       4.782   2.855  18.512  0.00  0.00    +0.000 HD
ENDROOT
BRANCH   6  13
ATOM     13  C   UNL     1       2.534   4.498  18.947  0.00  0.00    +0.000 A 
ATOM     14  C   UNL     1       2.153   4.510  20.309  0.00  0.00    +0.000 A 
ATOM     15  C   UNL     1       1.297   3.548  20.857  0.00  0.00    +0.000 A 
ATOM     16  C   UNL     1       0.720   2.591  20.035  0.00  0.00    +0.000 A 
ATOM     17  C   UNL     1       0.983   2.618  18.669  0.00  0.00    +0.000 A 
ATOM     18  C   UNL     1       1.885   3.553  18.134  0.00  0.00    +0.000 A 
ENDBRANCH   6  13
BRANCH   7  19
ATOM     19  O   UNL     1       2.353   7.291  17.861  0.00  0.00    +0.000 OA
BRANCH  19  20
ATOM     20  C   UNL     1       2.522   8.706  18.107  0.00  0.00    +0.000 C 
BRANCH  20  21
ATOM     21  C   UNL     1       1.208   9.482  17.993  0.00  0.00    +0.000 C 
BRANCH  21  22
ATOM     22  O   UNL     1       0.401   9.363  19.182  0.00  0.00    +0.000 OA
BRANCH  22  23
ATOM     23  C   UNL     1       0.893  10.265  20.203  0.00  0.00    +0.000 C 
BRANCH  23  24
ATOM     24  P   UNL     1       0.596   9.542  21.822  0.00  0.00    +0.000 P 
ATOM     25  O   UNL     1       0.233  10.496  22.910  0.00  0.00    +0.000 OA
BRANCH  24  26
ATOM     26  O   UNL     1      -0.493   8.392  21.555  0.00  0.00    +0.000 OA
ATOM     27  H   UNL     1      -1.402   8.731  21.710  0.00  0.00    +0.000 HD
ENDBRANCH  24  26
BRANCH  24  28
ATOM     28  O   UNL     1       1.867   8.633  22.186  0.00  0.00    +0.000 OA
ATOM     29  H   UNL     1       2.458   8.566  21.408  0.00  0.00    +0.000 HD
ENDBRANCH  24  28
ENDBRANCH  23  24
ENDBRANCH  22  23
ENDBRANCH  21  22
ENDBRANCH  20  21
ENDBRANCH  19  20
ENDBRANCH   7  19
TORSDOF 9
ENDMDL
MODEL 7
REMARK VINA RESULT:      -6.8      4.640      6.569
REMARK  Name = 
REMARK  9 active torsions:
REMARK  status: ('A' for Active; 'I' for Inactive)
REMARK    1  A    between atoms: C_6  and  C_7
REMARK    2  A    between atoms: C_13  and  O_14
REMARK    3  A    between atoms: O_14  and  C_15
REMARK    4  A    between atoms: C_15  and  C_16
REMARK    5  A    between atoms: C_16  and  O_17
REMARK    6  A    between atoms: O_17  and  C_18
REMARK    7  A    between atoms: C_18  and  P_19
REMARK    8  A    between atoms: P_19  and  O_21
REMARK    9  A    between atoms: P_19  and  O_22
REMARK                            x       y       z     vdW  Elec       q    Type
REMARK                         _______ _______ _______ _____ _____    ______ ____
ROOT
ATOM      1  N   UNL     1       7.368   7.068  16.906  0.00  0.00    +0.000 N 
ATOM      2  C   UNL     1       6.220   6.485  17.397  0.00  0.00    +0.000 A 
ATOM      3  N   UNL     1       6.348   5.364  18.086  0.00  0.00    +0.000 NA
ATOM      4  C   UNL     1       5.217   4.786  18.533  0.00  0.00    +0.000 A 
ATOM      5  N   UNL     1       5.477   3.596  19.212  0.00  0.00    +0.000 N 
ATOM      6  C   UNL     1       3.924   5.314  18.353  0.00  0.00    +0.000 A 
ATOM      7  C   UNL     1       3.938   6.511  17.636  0.00  0.00    +0.000 A 
ATOM      8  N   UNL     1       5.068   7.091  17.166  0.00  0.00    +0.000 NA
ATOM      9  H   UNL     1       8.158   6.771  17.461  0.00  0.00    +0.000 HD
ATOM     10  H   UNL     1       7.227   8.063  16.803  0.00  0.00    +0.000 HD
ATOM     11  H   UNL     1       6.474   3.414  19.138  0.00  0.00    +0.000 HD
ATOM     12  H   UNL     1       4.916   2.831  18.854  0.00  0.00    +0.000 HD
ENDROOT
BRANCH   6  13
ATOM     13  C   UNL     1       2.704   4.576  18.819  0.00  0.00    +0.000 A 
ATOM     14  C   UNL     1       2.194   4.743  20.127  0.00  0.00    +0.000 A 
ATOM     15  C   UNL     1       1.243   3.878  20.678  0.00  0.00    +0.000 A 
ATOM     16  C   UNL     1       0.702   2.864  19.901  0.00  0.00    +0.000 A 
ATOM     17  C   UNL     1       1.097   2.740  18.573  0.00  0.00    +0.000 A 
ATOM     18  C   UNL     1       2.091   3.578  18.042  0.00  0.00    +0.000 A 
ENDBRANCH   6  13
BRANCH   7  19
ATOM     19  O   UNL     1       2.762   7.213  17.385  0.00  0.00    +0.000 OA
BRANCH  19  20
ATOM     20  C   UNL     1       2.504   8.209  18.400  0.00  0.00    +0.000 C 
BRANCH  20  21
ATOM     21  C   UNL     1       1.787   9.442  17.844  0.00  0.00    +0.000 C 
BRANCH  21  22
ATOM     22  O   UNL     1       0.472   9.608  18.411  0.00  0.00    +0.000 OA
BRANCH  22  23
ATOM     23  C   UNL     1       0.272  10.991  18.793  0.00  0.00    +0.000 C 
BRANCH  23  24
ATOM     24  P   UNL     1      -1.428  11.460  18.443  0.00  0.00    +0.000 P 
ATOM     25  O   UNL     1      -2.229  11.940  19.606  0.00  0.00    +0.000 OA
BRANCH  24  26
ATOM     26  O   UNL     1      -1.314  12.511  17.233  0.00  0.00    +0.000 OA
ATOM     27  H   UNL     1      -2.091  13.113  17.222  0.00  0.00    +0.000 HD
ENDBRANCH  24  26
BRANCH  24  28
ATOM     28  O   UNL     1      -2.119  10.233  17.673  0.00  0.00    +0.000 OA
ATOM     29  H   UNL     1      -2.060  10.376  16.707  0.00  0.00    +0.000 HD
ENDBRANCH  24  28
ENDBRANCH  23  24
ENDBRANCH  22  23
ENDBRANCH  21  22
ENDBRANCH  20  21
ENDBRANCH  19  20
ENDBRANCH   7  19
TORSDOF 9
ENDMDL
MODEL 8
REMARK VINA RESULT:      -6.8      4.118      6.321
REMARK  Name = 
REMARK  9 active torsions:
REMARK  status: ('A' for Active; 'I' for Inactive)
REMARK    1  A    between atoms: C_6  and  C_7
REMARK    2  A    between atoms: C_13  and  O_14
REMARK    3  A    between atoms: O_14  and  C_15
REMARK    4  A    between atoms: C_15  and  C_16
REMARK    5  A    between atoms: C_16  and  O_17
REMARK    6  A    between atoms: O_17  and  C_18
REMARK    7  A    between atoms: C_18  and  P_19
REMARK    8  A    between atoms: P_19  and  O_21
REMARK    9  A    between atoms: P_19  and  O_22
REMARK                            x       y       z     vdW  Elec       q    Type
REMARK                         _______ _______ _______ _____ _____    ______ ____
ROOT
ATOM      1  N   UNL     1       7.013   7.350  16.736  0.00  0.00    +0.000 N 
ATOM      2  C   UNL     1       5.988   6.631  17.311  0.00  0.00    +0.000 A 
ATOM      3  N   UNL     1       6.300   5.510  17.938  0.00  0.00    +0.000 NA
ATOM      4  C   UNL     1       5.287   4.800  18.467  0.00  0.00    +0.000 A 
ATOM      5  N   UNL     1       5.737   3.625  19.069  0.00  0.00    +0.000 N 
ATOM      6  C   UNL     1       3.934   5.190  18.434  0.00  0.00    +0.000 A 
ATOM      7  C   UNL     1       3.751   6.402  17.768  0.00  0.00    +0.000 A 
ATOM      8  N   UNL     1       4.762   7.115  17.216  0.00  0.00    +0.000 NA
ATOM      9  H   UNL     1       7.881   7.123  17.200  0.00  0.00    +0.000 HD
ATOM     10  H   UNL     1       6.759   8.326  16.688  0.00  0.00    +0.000 HD
ATOM     11  H   UNL     1       6.735   3.555  18.893  0.00  0.00    +0.000 HD
ATOM     12  H   UNL     1       5.227   2.815  18.736  0.00  0.00    +0.000 HD
ENDROOT
BRANCH   6  13
ATOM     13  C   UNL     1       2.851   4.310  18.985  0.00  0.00    +0.000 A 
ATOM     14  C   UNL     1       2.227   3.322  18.190  0.00  0.00    +0.000 A 
ATOM     15  C   UNL     1       1.043   2.684  18.577  0.00  0.00    +0.000 A 
ATOM     16  C   UNL     1       0.492   2.952  19.821  0.00  0.00    +0.000 A 
ATOM     17  C   UNL     1       1.142   3.835  20.678  0.00  0.00    +0.000 A 
ATOM     18  C   UNL     1       2.300   4.511  20.262  0.00  0.00    +0.000 A 
ENDBRANCH   6  13
BRANCH   7  19
ATOM     19  O   UNL     1       2.489   6.980  17.660  0.00  0.00    +0.000 OA
BRANCH  19  20
ATOM     20  C   UNL     1       2.488   8.355  18.105  0.00  0.00    +0.000 C 
BRANCH  20  21
ATOM     21  C   UNL     1       1.822   8.529  19.472  0.00  0.00    +0.000 C 
BRANCH  21  22
ATOM     22  O   UNL     1       0.709   9.443  19.424  0.00  0.00    +0.000 OA
BRANCH  22  23
ATOM     23  C   UNL     1       0.807  10.396  20.510  0.00  0.00    +0.000 C 
BRANCH  23  24
ATOM     24  P   UNL     1       0.392   9.575  22.055  0.00  0.00    +0.000 P 
ATOM     25  O   UNL     1      -0.529   8.405  21.949  0.00  0.00    +0.000 OA
BRANCH  24  26
ATOM     26  O   UNL     1       1.813   9.244  22.729  0.00  0.00    +0.000 OA
ATOM     27  H   UNL     1       1.705   8.616  23.477  0.00  0.00    +0.000 HD
ENDBRANCH  24  26
BRANCH  24  28
ATOM     28  O   UNL     1      -0.137  10.697  23.072  0.00  0.00    +0.000 OA
ATOM     29  H   UNL     1      -0.657  10.275  23.786  0.00  0.00    +0.000 HD
ENDBRANCH  24  28
ENDBRANCH  23  24
ENDBRANCH  22  23
ENDBRANCH  21  22
ENDBRANCH  20  21
ENDBRANCH  19  20
ENDBRANCH   7  19
TORSDOF 9
ENDMDL
MODEL 9
REMARK VINA RESULT:      -6.8      3.956      6.338
REMARK  Name = 
REMARK  9 active torsions:
REMARK  status: ('A' for Active; 'I' for Inactive)
REMARK    1  A    between atoms: C_6  and  C_7
REMARK    2  A    between atoms: C_13  and  O_14
REMARK    3  A    between atoms: O_14  and  C_15
REMARK    4  A    between atoms: C_15  and  C_16
REMARK    5  A    between atoms: C_16  and  O_17
REMARK    6  A    between atoms: O_17  and  C_18
REMARK    7  A    between atoms: C_18  and  P_19
REMARK    8  A    between atoms: P_19  and  O_21
REMARK    9  A    between atoms: P_19  and  O_22
REMARK                            x       y       z     vdW  Elec       q    Type
REMARK                         _______ _______ _______ _____ _____    ______ ____
ROOT
ATOM      1  N   UNL     1       1.315   2.778  22.250  0.00  0.00    +0.000 N 
ATOM      2  C   UNL     1       2.172   3.127  21.229  0.00  0.00    +0.000 A 
ATOM      3  N   UNL     1       3.192   2.323  20.982  0.00  0.00    +0.000 NA
ATOM      4  C   UNL     1       4.041   2.692  20.004  0.00  0.00    +0.000 A 
ATOM      5  N   UNL     1       5.091   1.785  19.863  0.00  0.00    +0.000 N 
ATOM      6  C   UNL     1       3.891   3.843  19.207  0.00  0.00    +0.000 A 
ATOM      7  C   UNL     1       2.761   4.583  19.555  0.00  0.00    +0.000 A 
ATOM      8  N   UNL     1       1.911   4.230  20.550  0.00  0.00    +0.000 NA
ATOM      9  H   UNL     1       1.366   1.781  22.404  0.00  0.00    +0.000 HD
ATOM     10  H   UNL     1       0.400   3.169  22.075  0.00  0.00    +0.000 HD
ATOM     11  H   UNL     1       4.997   1.091  20.599  0.00  0.00    +0.000 HD
ATOM     12  H   UNL     1       5.992   2.251  19.883  0.00  0.00    +0.000 HD
ENDROOT
BRANCH   6  13
ATOM     13  C   UNL     1       4.918   4.225  18.182  0.00  0.00    +0.000 A 
ATOM     14  C   UNL     1       4.763   3.884  16.819  0.00  0.00    +0.000 A 
ATOM     15  C   UNL     1       5.814   3.976  15.899  0.00  0.00    +0.000 A 
ATOM     16  C   UNL     1       7.034   4.501  16.297  0.00  0.00    +0.000 A 
ATOM     17  C   UNL     1       7.187   4.953  17.604  0.00  0.00    +0.000 A 
ATOM     18  C   UNL     1       6.147   4.809  18.536  0.00  0.00    +0.000 A 
ENDBRANCH   6  13
BRANCH   7  19
ATOM     19  O   UNL     1       2.414   5.738  18.860  0.00  0.00    +0.000 OA
BRANCH  19  20
ATOM     20  C   UNL     1       2.387   6.897  19.723  0.00  0.00    +0.000 C 
BRANCH  20  21
ATOM     21  C   UNL     1       1.848   8.143  19.016  0.00  0.00    +0.000 C 
BRANCH  21  22
ATOM     22  O   UNL     1       1.359   9.128  19.947  0.00  0.00    +0.000 OA
BRANCH  22  23
ATOM     23  C   UNL     1       1.303   8.562  21.279  0.00  0.00    +0.000 C 
BRANCH  23  24
ATOM     24  P   UNL     1       0.105   9.477  22.259  0.00  0.00    +0.000 P 
ATOM     25  O   UNL     1      -0.426  10.729  21.644  0.00  0.00    +0.000 OA
BRANCH  24  26
ATOM     26  O   UNL     1      -1.018   8.392  22.636  0.00  0.00    +0.000 OA
ATOM     27  H   UNL     1      -1.887   8.644  22.253  0.00  0.00    +0.000 HD
ENDBRANCH  24  26
BRANCH  24  28
ATOM     28  O   UNL     1       0.749   9.717  23.709  0.00  0.00    +0.000 OA
ATOM     29  H   UNL     1       0.558   8.950  24.285  0.00  0.00    +0.000 HD
ENDBRANCH  24  28
ENDBRANCH  23  24
ENDBRANCH  22  23
ENDBRANCH  21  22
ENDBRANCH  20  21
ENDBRANCH  19  20
ENDBRANCH   7  19
TORSDOF 9
ENDMDL
