MODEL 1
REMARK VINA RESULT:      -7.6      0.000      0.000
REMARK  Name = 
REMARK  11 active torsions:
REMARK  status: ('A' for Active; 'I' for Inactive)
REMARK    1  A    between atoms: C_1  and  C_2
REMARK    2  A    between atoms: C_2  and  O_3
REMARK    3  A    between atoms: O_3  and  C_4
REMARK    4  A    between atoms: C_7  and  N_8
REMARK    5  A    between atoms: C_10  and  C_11
REMARK    6  A    between atoms: C_11  and  O_12
REMARK    7  A    between atoms: C_13  and  C_14
REMARK    8  A    between atoms: N_16  and  C_17
REMARK    9  A    between atoms: C_17  and  C_18
REMARK   10  A    between atoms: C_22  and  O_23
REMARK   11  A    between atoms: O_23  and  C_24
REMARK                            x       y       z     vdW  Elec       q    Type
REMARK                         _______ _______ _______ _____ _____    ______ ____
ROOT
ATOM      1  N   UNL     1       2.834   7.201  18.483  0.00  0.00    +0.000 N 
ATOM      2  N   UNL     1       2.529   6.954  19.787  0.00  0.00    +0.000 NA
ATOM      3  C   UNL     1       1.805   8.038  20.124  0.00  0.00    +0.000 A 
ATOM      4  C   UNL     1       1.672   8.898  19.002  0.00  0.00    +0.000 A 
ATOM      5  N   UNL     1       2.350   8.358  17.974  0.00  0.00    +0.000 NA
ENDROOT
BRANCH   1   9
ATOM      6  C   UNL     1       5.152   4.576  16.106  0.00  0.00    +0.000 A 
ATOM      7  C   UNL     1       4.197   4.067  16.991  0.00  0.00    +0.000 A 
ATOM      8  C   UNL     1       3.422   4.925  17.782  0.00  0.00    +0.000 A 
ATOM      9  C   UNL     1       3.609   6.309  17.694  0.00  0.00    +0.000 A 
ATOM     10  C   UNL     1       4.579   6.819  16.819  0.00  0.00    +0.000 A 
ATOM     11  C   UNL     1       5.352   5.955  16.035  0.00  0.00    +0.000 A 
BRANCH   6  12
ATOM     12  O   UNL     1       5.851   3.641  15.389  0.00  0.00    +0.000 OA
BRANCH  12  14
ATOM     13  C   UNL     1       5.940   3.656  12.998  0.00  0.00    +0.000 C 
ATOM     14  C   UNL     1       6.599   4.138  14.277  0.00  0.00    +0.000 C 
ENDBRANCH  12  14
ENDBRANCH   6  12
ENDBRANCH   1   9
BRANCH   4  15
ATOM     15  C   UNL     1       0.910  10.144  18.841  0.00  0.00    +0.000 C 
ATOM     16  O   UNL     1       1.442  11.203  18.516  0.00  0.00    +0.000 OA
ATOM     17  N   UNL     1      -0.448  10.048  19.081  0.00  0.00    +0.000 N 
ATOM     18  H   UNL     1      -0.769   9.300  19.677  0.00  0.00    +0.000 HD
BRANCH  17  19
ATOM     19  C   UNL     1      -1.301  11.214  19.006  0.00  0.00    +0.000 C 
BRANCH  19  20
ATOM     20  C   UNL     1      -2.333  11.056  17.922  0.00  0.00    +0.000 A 
ATOM     21  C   UNL     1      -2.038  10.311  16.772  0.00  0.00    +0.000 A 
ATOM     22  C   UNL     1      -2.980  10.191  15.754  0.00  0.00    +0.000 A 
ATOM     23  C   UNL     1      -4.217  10.824  15.871  0.00  0.00    +0.000 A 
ATOM     24  C   UNL     1      -4.524  11.584  17.005  0.00  0.00    +0.000 A 
ATOM     25  C   UNL     1      -3.582  11.698  18.027  0.00  0.00    +0.000 A 
BRANCH  24  26
ATOM     26  O   UNL     1      -5.764  12.159  16.984  0.00  0.00    +0.000 OA
ATOM     27  C   UNL     1      -6.693  11.717  17.967  0.00  0.00    +0.000 C 
ENDBRANCH  24  26
ENDBRANCH  19  20
ENDBRANCH  17  19
ENDBRANCH   4  15
BRANCH   3  28
ATOM     28  C   UNL     1       1.220   8.146  21.492  0.00  0.00    +0.000 C 
BRANCH  28  29
ATOM     29  O   UNL     1      -0.201   8.295  21.461  0.00  0.00    +0.000 OA
ATOM     30  H   UNL     1      -0.485   8.199  22.392  0.00  0.00    +0.000 HD
ENDBRANCH  28  29
ENDBRANCH   3  28
TORSDOF 9
ENDMDL
MODEL 2
REMARK VINA RESULT:      -7.5      6.610      9.211
REMARK  Name = 
REMARK  11 active torsions:
REMARK  status: ('A' for Active; 'I' for Inactive)
REMARK    1  A    between atoms: C_1  and  C_2
REMARK    2  A    between atoms: C_2  and  O_3
REMARK    3  A    between atoms: O_3  and  C_4
REMARK    4  A    between atoms: C_7  and  N_8
REMARK    5  A    between atoms: C_10  and  C_11
REMARK    6  A    between atoms: C_11  and  O_12
REMARK    7  A    between atoms: C_13  and  C_14
REMARK    8  A    between atoms: N_16  and  C_17
REMARK    9  A    between atoms: C_17  and  C_18
REMARK   10  A    between atoms: C_22  and  O_23
REMARK   11  A    between atoms: O_23  and  C_24
REMARK                            x       y       z     vdW  Elec       q    Type
REMARK                         _______ _______ _______ _____ _____    ______ ____
ROOT
ATOM      1  N   UNL     1       8.195   8.790  18.160  0.00  0.00    +0.000 N 
ATOM      2  N   UNL     1       8.655   7.790  18.961  0.00  0.00    +0.000 NA
ATOM      3  C   UNL     1       7.906   6.741  18.573  0.00  0.00    +0.000 A 
ATOM      4  C   UNL     1       7.030   7.134  17.527  0.00  0.00    +0.000 A 
ATOM      5  N   UNL     1       7.214   8.444  17.292  0.00  0.00    +0.000 NA
ENDROOT
BRANCH   1   9
ATOM      6  C   UNL     1       9.726  12.730  18.368  0.00  0.00    +0.000 A 
ATOM      7  C   UNL     1       8.590  12.455  17.601  0.00  0.00    +0.000 A 
ATOM      8  C   UNL     1       8.072  11.156  17.525  0.00  0.00    +0.000 A 
ATOM      9  C   UNL     1       8.702  10.116  18.218  0.00  0.00    +0.000 A 
ATOM     10  C   UNL     1       9.850  10.388  18.975  0.00  0.00    +0.000 A 
ATOM     11  C   UNL     1      10.364  11.688  19.042  0.00  0.00    +0.000 A 
BRANCH   6  12
ATOM     12  O   UNL     1      10.141  14.035  18.362  0.00  0.00    +0.000 OA
BRANCH  12  14
ATOM     13  C   UNL     1       9.798  16.277  17.596  0.00  0.00    +0.000 C 
ATOM     14  C   UNL     1       9.130  15.010  18.098  0.00  0.00    +0.000 C 
ENDBRANCH  12  14
ENDBRANCH   6  12
ENDBRANCH   1   9
BRANCH   4  15
ATOM     15  C   UNL     1       6.092   6.340  16.721  0.00  0.00    +0.000 C 
ATOM     16  O   UNL     1       5.628   6.749  15.659  0.00  0.00    +0.000 OA
ATOM     17  N   UNL     1       5.761   5.102  17.238  0.00  0.00    +0.000 N 
ATOM     18  H   UNL     1       5.856   4.965  18.233  0.00  0.00    +0.000 HD
BRANCH  17  19
ATOM     19  C   UNL     1       4.808   4.246  16.565  0.00  0.00    +0.000 C 
BRANCH  19  20
ATOM     20  C   UNL     1       3.717   3.811  17.505  0.00  0.00    +0.000 A 
ATOM     21  C   UNL     1       2.374   3.901  17.116  0.00  0.00    +0.000 A 
ATOM     22  C   UNL     1       1.362   3.531  17.997  0.00  0.00    +0.000 A 
ATOM     23  C   UNL     1       1.683   3.079  19.276  0.00  0.00    +0.000 A 
ATOM     24  C   UNL     1       3.017   2.995  19.689  0.00  0.00    +0.000 A 
ATOM     25  C   UNL     1       4.030   3.360  18.802  0.00  0.00    +0.000 A 
BRANCH  24  26
ATOM     26  O   UNL     1       3.189   2.548  20.969  0.00  0.00    +0.000 OA
ATOM     27  C   UNL     1       2.114   2.764  21.874  0.00  0.00    +0.000 C 
ENDBRANCH  24  26
ENDBRANCH  19  20
ENDBRANCH  17  19
ENDBRANCH   4  15
BRANCH   3  28
ATOM     28  C   UNL     1       8.131   5.399  19.184  0.00  0.00    +0.000 C 
BRANCH  28  29
ATOM     29  O   UNL     1       8.099   5.442  20.611  0.00  0.00    +0.000 OA
ATOM     30  H   UNL     1       7.484   4.728  20.872  0.00  0.00    +0.000 HD
ENDBRANCH  28  29
ENDBRANCH   3  28
TORSDOF 9
ENDMDL
MODEL 3
REMARK VINA RESULT:      -7.4      5.847      8.916
REMARK  Name = 
REMARK  11 active torsions:
REMARK  status: ('A' for Active; 'I' for Inactive)
REMARK    1  A    between atoms: C_1  and  C_2
REMARK    2  A    between atoms: C_2  and  O_3
REMARK    3  A    between atoms: O_3  and  C_4
REMARK    4  A    between atoms: C_7  and  N_8
REMARK    5  A    between atoms: C_10  and  C_11
REMARK    6  A    between atoms: C_11  and  O_12
REMARK    7  A    between atoms: C_13  and  C_14
REMARK    8  A    between atoms: N_16  and  C_17
REMARK    9  A    between atoms: C_17  and  C_18
REMARK   10  A    between atoms: C_22  and  O_23
REMARK   11  A    between atoms: O_23  and  C_24
REMARK                            x       y       z     vdW  Elec       q    Type
REMARK                         _______ _______ _______ _____ _____    ______ ____
ROOT
ATOM      1  N   UNL     1       8.202   8.764  18.193  0.00  0.00    +0.000 N 
ATOM      2  N   UNL     1       8.630   7.733  18.973  0.00  0.00    +0.000 NA
ATOM      3  C   UNL     1       7.854   6.716  18.556  0.00  0.00    +0.000 A 
ATOM      4  C   UNL     1       6.995   7.157  17.515  0.00  0.00    +0.000 A 
ATOM      5  N   UNL     1       7.218   8.467  17.312  0.00  0.00    +0.000 NA
ENDROOT
BRANCH   1   9
ATOM      6  C   UNL     1       9.838  12.655  18.504  0.00  0.00    +0.000 A 
ATOM      7  C   UNL     1       8.787  12.402  17.619  0.00  0.00    +0.000 A 
ATOM      8  C   UNL     1       8.234  11.119  17.508  0.00  0.00    +0.000 A 
ATOM      9  C   UNL     1       8.746  10.074  18.285  0.00  0.00    +0.000 A 
ATOM     10  C   UNL     1       9.812  10.323  19.161  0.00  0.00    +0.000 A 
ATOM     11  C   UNL     1      10.360  11.607  19.263  0.00  0.00    +0.000 A 
BRANCH   6  12
ATOM     12  O   UNL     1      10.297  13.946  18.523  0.00  0.00    +0.000 OA
BRANCH  12  14
ATOM     13  C   UNL     1      12.302  14.022  17.217  0.00  0.00    +0.000 C 
ATOM     14  C   UNL     1      10.842  14.431  17.294  0.00  0.00    +0.000 C 
ENDBRANCH  12  14
ENDBRANCH   6  12
ENDBRANCH   1   9
BRANCH   4  15
ATOM     15  C   UNL     1       6.040   6.409  16.685  0.00  0.00    +0.000 C 
ATOM     16  O   UNL     1       5.641   6.829  15.602  0.00  0.00    +0.000 OA
ATOM     17  N   UNL     1       5.617   5.201  17.205  0.00  0.00    +0.000 N 
ATOM     18  H   UNL     1       5.668   5.074  18.205  0.00  0.00    +0.000 HD
BRANCH  17  19
ATOM     19  C   UNL     1       4.639   4.393  16.509  0.00  0.00    +0.000 C 
BRANCH  19  20
ATOM     20  C   UNL     1       3.700   3.729  17.479  0.00  0.00    +0.000 A 
ATOM     21  C   UNL     1       3.601   2.331  17.520  0.00  0.00    +0.000 A 
ATOM     22  C   UNL     1       2.710   1.717  18.395  0.00  0.00    +0.000 A 
ATOM     23  C   UNL     1       1.902   2.492  19.225  0.00  0.00    +0.000 A 
ATOM     24  C   UNL     1       1.975   3.889  19.189  0.00  0.00    +0.000 A 
ATOM     25  C   UNL     1       2.874   4.503  18.317  0.00  0.00    +0.000 A 
BRANCH  24  26
ATOM     26  O   UNL     1       1.121   4.525  20.045  0.00  0.00    +0.000 OA
ATOM     27  C   UNL     1       1.627   5.664  20.730  0.00  0.00    +0.000 C 
ENDBRANCH  24  26
ENDBRANCH  19  20
ENDBRANCH  17  19
ENDBRANCH   4  15
BRANCH   3  28
ATOM     28  C   UNL     1       8.037   5.353  19.137  0.00  0.00    +0.000 C 
BRANCH  28  29
ATOM     29  O   UNL     1       8.085   5.376  20.564  0.00  0.00    +0.000 OA
ATOM     30  H   UNL     1       7.431   4.708  20.850  0.00  0.00    +0.000 HD
ENDBRANCH  28  29
ENDBRANCH   3  28
TORSDOF 9
ENDMDL
MODEL 4
REMARK VINA RESULT:      -7.4      0.873      1.836
REMARK  Name = 
REMARK  11 active torsions:
REMARK  status: ('A' for Active; 'I' for Inactive)
REMARK    1  A    between atoms: C_1  and  C_2
REMARK    2  A    between atoms: C_2  and  O_3
REMARK    3  A    between atoms: O_3  and  C_4
REMARK    4  A    between atoms: C_7  and  N_8
REMARK    5  A    between atoms: C_10  and  C_11
REMARK    6  A    between atoms: C_11  and  O_12
REMARK    7  A    between atoms: C_13  and  C_14
REMARK    8  A    between atoms: N_16  and  C_17
REMARK    9  A    between atoms: C_17  and  C_18
REMARK   10  A    between atoms: C_22  and  O_23
REMARK   11  A    between atoms: O_23  and  C_24
REMARK                            x       y       z     vdW  Elec       q    Type
REMARK                         _______ _______ _______ _____ _____    ______ ____
ROOT
ATOM      1  N   UNL     1       2.860   7.257  18.358  0.00  0.00    +0.000 N 
ATOM      2  N   UNL     1       2.376   7.005  19.605  0.00  0.00    +0.000 NA
ATOM      3  C   UNL     1       1.759   8.160  19.914  0.00  0.00    +0.000 A 
ATOM      4  C   UNL     1       1.867   9.071  18.829  0.00  0.00    +0.000 A 
ATOM      5  N   UNL     1       2.587   8.485  17.858  0.00  0.00    +0.000 NA
ENDROOT
BRANCH   1   9
ATOM      6  C   UNL     1       5.065   4.381  16.172  0.00  0.00    +0.000 A 
ATOM      7  C   UNL     1       5.364   5.740  16.048  0.00  0.00    +0.000 A 
ATOM      8  C   UNL     1       4.644   6.702  16.768  0.00  0.00    +0.000 A 
ATOM      9  C   UNL     1       3.605   6.302  17.615  0.00  0.00    +0.000 A 
ATOM     10  C   UNL     1       3.293   4.939  17.727  0.00  0.00    +0.000 A 
ATOM     11  C   UNL     1       4.015   3.985  17.002  0.00  0.00    +0.000 A 
BRANCH   6  12
ATOM     12  O   UNL     1       5.835   3.535  15.417  0.00  0.00    +0.000 OA
BRANCH  12  14
ATOM     13  C   UNL     1       5.968   3.550  13.028  0.00  0.00    +0.000 C 
ATOM     14  C   UNL     1       6.520   4.134  14.315  0.00  0.00    +0.000 C 
ENDBRANCH  12  14
ENDBRANCH   6  12
ENDBRANCH   1   9
BRANCH   4  15
ATOM     15  C   UNL     1       1.290  10.410  18.648  0.00  0.00    +0.000 C 
ATOM     16  O   UNL     1       1.984  11.402  18.438  0.00  0.00    +0.000 OA
ATOM     17  N   UNL     1      -0.088  10.483  18.732  0.00  0.00    +0.000 N 
ATOM     18  H   UNL     1      -0.567   9.762  19.251  0.00  0.00    +0.000 HD
BRANCH  17  19
ATOM     19  C   UNL     1      -0.774  11.752  18.622  0.00  0.00    +0.000 C 
BRANCH  19  20
ATOM     20  C   UNL     1      -2.176  11.563  18.110  0.00  0.00    +0.000 A 
ATOM     21  C   UNL     1      -3.271  11.944  18.898  0.00  0.00    +0.000 A 
ATOM     22  C   UNL     1      -4.570  11.739  18.439  0.00  0.00    +0.000 A 
ATOM     23  C   UNL     1      -4.784  11.144  17.197  0.00  0.00    +0.000 A 
ATOM     24  C   UNL     1      -3.704  10.744  16.402  0.00  0.00    +0.000 A 
ATOM     25  C   UNL     1      -2.404  10.955  16.860  0.00  0.00    +0.000 A 
BRANCH  24  26
ATOM     26  O   UNL     1      -4.056  10.163  15.217  0.00  0.00    +0.000 OA
ATOM     27  C   UNL     1      -3.059  10.114  14.204  0.00  0.00    +0.000 C 
ENDBRANCH  24  26
ENDBRANCH  19  20
ENDBRANCH  17  19
ENDBRANCH   4  15
BRANCH   3  28
ATOM     28  C   UNL     1       1.035   8.294  21.212  0.00  0.00    +0.000 C 
BRANCH  28  29
ATOM     29  O   UNL     1      -0.288   8.806  21.043  0.00  0.00    +0.000 OA
ATOM     30  H   UNL     1      -0.878   8.057  21.258  0.00  0.00    +0.000 HD
ENDBRANCH  28  29
ENDBRANCH   3  28
TORSDOF 9
ENDMDL
MODEL 5
REMARK VINA RESULT:      -7.4      5.569      8.722
REMARK  Name = 
REMARK  11 active torsions:
REMARK  status: ('A' for Active; 'I' for Inactive)
REMARK    1  A    between atoms: C_1  and  C_2
REMARK    2  A    between atoms: C_2  and  O_3
REMARK    3  A    between atoms: O_3  and  C_4
REMARK    4  A    between atoms: C_7  and  N_8
REMARK    5  A    between atoms: C_10  and  C_11
REMARK    6  A    between atoms: C_11  and  O_12
REMARK    7  A    between atoms: C_13  and  C_14
REMARK    8  A    between atoms: N_16  and  C_17
REMARK    9  A    between atoms: C_17  and  C_18
REMARK   10  A    between atoms: C_22  and  O_23
REMARK   11  A    between atoms: O_23  and  C_24
REMARK                            x       y       z     vdW  Elec       q    Type
REMARK                         _______ _______ _______ _____ _____    ______ ____
ROOT
ATOM      1  N   UNL     1       8.009   8.500  18.138  0.00  0.00    +0.000 N 
ATOM      2  N   UNL     1       8.524   7.413  18.777  0.00  0.00    +0.000 NA
ATOM      3  C   UNL     1       7.722   6.421  18.348  0.00  0.00    +0.000 A 
ATOM      4  C   UNL     1       6.759   6.936  17.440  0.00  0.00    +0.000 A 
ATOM      5  N   UNL     1       6.946   8.262  17.335  0.00  0.00    +0.000 NA
ENDROOT
BRANCH   1   9
ATOM      6  C   UNL     1       9.618  12.383  18.641  0.00  0.00    +0.000 A 
ATOM      7  C   UNL     1       8.656  12.141  17.656  0.00  0.00    +0.000 A 
ATOM      8  C   UNL     1       8.114  10.861  17.481  0.00  0.00    +0.000 A 
ATOM      9  C   UNL     1       8.545   9.807  18.294  0.00  0.00    +0.000 A 
ATOM     10  C   UNL     1       9.522  10.045  19.271  0.00  0.00    +0.000 A 
ATOM     11  C   UNL     1      10.062  11.326  19.437  0.00  0.00    +0.000 A 
BRANCH   6  12
ATOM     12  O   UNL     1      10.076  13.672  18.714  0.00  0.00    +0.000 OA
BRANCH  12  14
ATOM     13  C   UNL     1       8.610  15.341  19.604  0.00  0.00    +0.000 C 
ATOM     14  C   UNL     1       9.143  14.688  18.342  0.00  0.00    +0.000 C 
ENDBRANCH  12  14
ENDBRANCH   6  12
ENDBRANCH   1   9
BRANCH   4  15
ATOM     15  C   UNL     1       5.734   6.245  16.645  0.00  0.00    +0.000 C 
ATOM     16  O   UNL     1       5.415   6.618  15.518  0.00  0.00    +0.000 OA
ATOM     17  N   UNL     1       5.149   5.148  17.248  0.00  0.00    +0.000 N 
ATOM     18  H   UNL     1       5.162   5.102  18.256  0.00  0.00    +0.000 HD
BRANCH  17  19
ATOM     19  C   UNL     1       4.092   4.413  16.589  0.00  0.00    +0.000 C 
BRANCH  19  20
ATOM     20  C   UNL     1       3.077   3.921  17.585  0.00  0.00    +0.000 A 
ATOM     21  C   UNL     1       2.547   2.628  17.473  0.00  0.00    +0.000 A 
ATOM     22  C   UNL     1       1.584   2.184  18.374  0.00  0.00    +0.000 A 
ATOM     23  C   UNL     1       1.134   3.030  19.386  0.00  0.00    +0.000 A 
ATOM     24  C   UNL     1       1.639   4.329  19.507  0.00  0.00    +0.000 A 
ATOM     25  C   UNL     1       2.609   4.771  18.607  0.00  0.00    +0.000 A 
BRANCH  24  26
ATOM     26  O   UNL     1       1.103   5.055  20.533  0.00  0.00    +0.000 OA
ATOM     27  C   UNL     1       1.653   6.346  20.763  0.00  0.00    +0.000 C 
ENDBRANCH  24  26
ENDBRANCH  19  20
ENDBRANCH  17  19
ENDBRANCH   4  15
BRANCH   3  28
ATOM     28  C   UNL     1       7.977   5.016  18.783  0.00  0.00    +0.000 C 
BRANCH  28  29
ATOM     29  O   UNL     1       8.167   4.134  17.677  0.00  0.00    +0.000 OA
ATOM     30  H   UNL     1       9.001   4.427  17.259  0.00  0.00    +0.000 HD
ENDBRANCH  28  29
ENDBRANCH   3  28
TORSDOF 9
ENDMDL
MODEL 6
REMARK VINA RESULT:      -7.3      0.804      1.226
REMARK  Name = 
REMARK  11 active torsions:
REMARK  status: ('A' for Active; 'I' for Inactive)
REMARK    1  A    between atoms: C_1  and  C_2
REMARK    2  A    between atoms: C_2  and  O_3
REMARK    3  A    between atoms: O_3  and  C_4
REMARK    4  A    between atoms: C_7  and  N_8
REMARK    5  A    between atoms: C_10  and  C_11
REMARK    6  A    between atoms: C_11  and  O_12
REMARK    7  A    between atoms: C_13  and  C_14
REMARK    8  A    between atoms: N_16  and  C_17
REMARK    9  A    between atoms: C_17  and  C_18
REMARK   10  A    between atoms: C_22  and  O_23
REMARK   11  A    between atoms: O_23  and  C_24
REMARK                            x       y       z     vdW  Elec       q    Type
REMARK                         _______ _______ _______ _____ _____    ______ ____
ROOT
ATOM      1  N   UNL     1       3.163   6.896  18.169  0.00  0.00    +0.000 N 
ATOM      2  N   UNL     1       2.752   6.540  19.417  0.00  0.00    +0.000 NA
ATOM      3  C   UNL     1       2.056   7.622  19.810  0.00  0.00    +0.000 A 
ATOM      4  C   UNL     1       2.045   8.594  18.774  0.00  0.00    +0.000 A 
ATOM      5  N   UNL     1       2.771   8.121  17.747  0.00  0.00    +0.000 NA
ENDROOT
BRANCH   1   9
ATOM      6  C   UNL     1       5.505   4.330  15.751  0.00  0.00    +0.000 A 
ATOM      7  C   UNL     1       5.709   5.713  15.714  0.00  0.00    +0.000 A 
ATOM      8  C   UNL     1       4.943   6.573  16.512  0.00  0.00    +0.000 A 
ATOM      9  C   UNL     1       3.953   6.046  17.349  0.00  0.00    +0.000 A 
ATOM     10  C   UNL     1       3.737   4.660  17.373  0.00  0.00    +0.000 A 
ATOM     11  C   UNL     1       4.504   3.809  16.571  0.00  0.00    +0.000 A 
BRANCH   6  12
ATOM     12  O   UNL     1       6.312   3.593  14.925  0.00  0.00    +0.000 OA
BRANCH  12  14
ATOM     13  C   UNL     1       5.262   3.511  12.776  0.00  0.00    +0.000 C 
ATOM     14  C   UNL     1       6.425   4.063  13.580  0.00  0.00    +0.000 C 
ENDBRANCH  12  14
ENDBRANCH   6  12
ENDBRANCH   1   9
BRANCH   4  15
ATOM     15  C   UNL     1       1.354   9.887  18.688  0.00  0.00    +0.000 C 
ATOM     16  O   UNL     1       1.872  10.876  18.174  0.00  0.00    +0.000 OA
ATOM     17  N   UNL     1       0.082   9.921  19.226  0.00  0.00    +0.000 N 
ATOM     18  H   UNL     1      -0.149   9.240  19.934  0.00  0.00    +0.000 HD
BRANCH  17  19
ATOM     19  C   UNL     1      -0.684  11.149  19.248  0.00  0.00    +0.000 C 
BRANCH  19  20
ATOM     20  C   UNL     1      -1.936  11.018  18.424  0.00  0.00    +0.000 A 
ATOM     21  C   UNL     1      -1.940  10.219  17.271  0.00  0.00    +0.000 A 
ATOM     22  C   UNL     1      -3.087  10.122  16.489  0.00  0.00    +0.000 A 
ATOM     23  C   UNL     1      -4.234  10.830  16.845  0.00  0.00    +0.000 A 
ATOM     24  C   UNL     1      -4.245  11.644  17.983  0.00  0.00    +0.000 A 
ATOM     25  C   UNL     1      -3.097  11.735  18.769  0.00  0.00    +0.000 A 
BRANCH  24  26
ATOM     26  O   UNL     1      -5.428  12.290  18.207  0.00  0.00    +0.000 OA
ATOM     27  C   UNL     1      -6.154  12.719  17.061  0.00  0.00    +0.000 C 
ENDBRANCH  24  26
ENDBRANCH  19  20
ENDBRANCH  17  19
ENDBRANCH   4  15
BRANCH   3  28
ATOM     28  C   UNL     1       1.377   7.628  21.139  0.00  0.00    +0.000 C 
BRANCH  28  29
ATOM     29  O   UNL     1       1.760   8.749  21.937  0.00  0.00    +0.000 OA
ATOM     30  H   UNL     1       0.989   9.350  21.916  0.00  0.00    +0.000 HD
ENDBRANCH  28  29
ENDBRANCH   3  28
TORSDOF 9
ENDMDL
MODEL 7
REMARK VINA RESULT:      -7.2      5.395      8.724
REMARK  Name = 
REMARK  11 active torsions:
REMARK  status: ('A' for Active; 'I' for Inactive)
REMARK    1  A    between atoms: C_1  and  C_2
REMARK    2  A    between atoms: C_2  and  O_3
REMARK    3  A    between atoms: O_3  and  C_4
REMARK    4  A    between atoms: C_7  and  N_8
REMARK    5  A    between atoms: C_10  and  C_11
REMARK    6  A    between atoms: C_11  and  O_12
REMARK    7  A    between atoms: C_13  and  C_14
REMARK    8  A    between atoms: N_16  and  C_17
REMARK    9  A    between atoms: C_17  and  C_18
REMARK   10  A    between atoms: C_22  and  O_23
REMARK   11  A    between atoms: O_23  and  C_24
REMARK                            x       y       z     vdW  Elec       q    Type
REMARK                         _______ _______ _______ _____ _____    ______ ____
ROOT
ATOM      1  N   UNL     1       8.111   8.808  18.021  0.00  0.00    +0.000 N 
ATOM      2  N   UNL     1       8.567   7.807  18.824  0.00  0.00    +0.000 NA
ATOM      3  C   UNL     1       7.773   6.776  18.479  0.00  0.00    +0.000 A 
ATOM      4  C   UNL     1       6.875   7.180  17.456  0.00  0.00    +0.000 A 
ATOM      5  N   UNL     1       7.092   8.479  17.192  0.00  0.00    +0.000 NA
ENDROOT
BRANCH   1   9
ATOM      6  C   UNL     1       9.723  12.721  18.046  0.00  0.00    +0.000 A 
ATOM      7  C   UNL     1      10.452  11.656  18.580  0.00  0.00    +0.000 A 
ATOM      8  C   UNL     1       9.932  10.355  18.576  0.00  0.00    +0.000 A 
ATOM      9  C   UNL     1       8.661  10.118  18.040  0.00  0.00    +0.000 A 
ATOM     10  C   UNL     1       7.922  11.189  17.519  0.00  0.00    +0.000 A 
ATOM     11  C   UNL     1       8.448  12.486  17.530  0.00  0.00    +0.000 A 
BRANCH   6  12
ATOM     12  O   UNL     1      10.333  13.946  18.110  0.00  0.00    +0.000 OA
BRANCH  12  14
ATOM     13  C   UNL     1      12.159  15.374  17.513  0.00  0.00    +0.000 C 
ATOM     14  C   UNL     1      11.739  13.956  17.854  0.00  0.00    +0.000 C 
ENDBRANCH  12  14
ENDBRANCH   6  12
ENDBRANCH   1   9
BRANCH   4  15
ATOM     15  C   UNL     1       5.886   6.403  16.695  0.00  0.00    +0.000 C 
ATOM     16  O   UNL     1       5.507   6.739  15.576  0.00  0.00    +0.000 OA
ATOM     17  N   UNL     1       5.406   5.269  17.324  0.00  0.00    +0.000 N 
ATOM     18  H   UNL     1       5.451   5.234  18.331  0.00  0.00    +0.000 HD
BRANCH  17  19
ATOM     19  C   UNL     1       4.392   4.447  16.701  0.00  0.00    +0.000 C 
BRANCH  19  20
ATOM     20  C   UNL     1       3.286   4.131  17.671  0.00  0.00    +0.000 A 
ATOM     21  C   UNL     1       2.522   2.966  17.513  0.00  0.00    +0.000 A 
ATOM     22  C   UNL     1       1.477   2.688  18.390  0.00  0.00    +0.000 A 
ATOM     23  C   UNL     1       1.180   3.576  19.422  0.00  0.00    +0.000 A 
ATOM     24  C   UNL     1       1.921   4.751  19.588  0.00  0.00    +0.000 A 
ATOM     25  C   UNL     1       2.972   5.025  18.712  0.00  0.00    +0.000 A 
BRANCH  24  26
ATOM     26  O   UNL     1       1.516   5.537  20.630  0.00  0.00    +0.000 OA
ATOM     27  C   UNL     1       1.831   6.922  20.552  0.00  0.00    +0.000 C 
ENDBRANCH  24  26
ENDBRANCH  19  20
ENDBRANCH  17  19
ENDBRANCH   4  15
BRANCH   3  28
ATOM     28  C   UNL     1       7.976   5.437  19.106  0.00  0.00    +0.000 C 
BRANCH  28  29
ATOM     29  O   UNL     1       8.077   4.396  18.134  0.00  0.00    +0.000 OA
ATOM     30  H   UNL     1       9.035   4.213  18.057  0.00  0.00    +0.000 HD
ENDBRANCH  28  29
ENDBRANCH   3  28
TORSDOF 9
ENDMDL
MODEL 8
REMARK VINA RESULT:      -7.2      6.405      8.895
REMARK  Name = 
REMARK  11 active torsions:
REMARK  status: ('A' for Active; 'I' for Inactive)
REMARK    1  A    between atoms: C_1  and  C_2
REMARK    2  A    between atoms: C_2  and  O_3
REMARK    3  A    between atoms: O_3  and  C_4
REMARK    4  A    between atoms: C_7  and  N_8
REMARK    5  A    between atoms: C_10  and  C_11
REMARK    6  A    between atoms: C_11  and  O_12
REMARK    7  A    between atoms: C_13  and  C_14
REMARK    8  A    between atoms: N_16  and  C_17
REMARK    9  A    between atoms: C_17  and  C_18
REMARK   10  A    between atoms: C_22  and  O_23
REMARK   11  A    between atoms: O_23  and  C_24
REMARK                            x       y       z     vdW  Elec       q    Type
REMARK                         _______ _______ _______ _____ _____    ______ ____
ROOT
ATOM      1  N   UNL     1       8.242   8.871  18.192  0.00  0.00    +0.000 N 
ATOM      2  N   UNL     1       8.692   7.859  18.984  0.00  0.00    +0.000 NA
ATOM      3  C   UNL     1       7.917   6.827  18.602  0.00  0.00    +0.000 A 
ATOM      4  C   UNL     1       7.035   7.242  17.569  0.00  0.00    +0.000 A 
ATOM      5  N   UNL     1       7.244   8.548  17.336  0.00  0.00    +0.000 NA
ENDROOT
BRANCH   1   9
ATOM      6  C   UNL     1       9.816  12.797  18.322  0.00  0.00    +0.000 A 
ATOM      7  C   UNL     1      10.437  11.766  19.033  0.00  0.00    +0.000 A 
ATOM      8  C   UNL     1       9.927  10.461  18.996  0.00  0.00    +0.000 A 
ATOM      9  C   UNL     1       8.778  10.186  18.247  0.00  0.00    +0.000 A 
ATOM     10  C   UNL     1       8.145  11.223  17.548  0.00  0.00    +0.000 A 
ATOM     11  C   UNL     1       8.658  12.524  17.593  0.00  0.00    +0.000 A 
BRANCH   6  12
ATOM     12  O   UNL     1      10.403  14.030  18.438  0.00  0.00    +0.000 OA
BRANCH  12  14
ATOM     13  C   UNL     1      12.001  13.805  16.670  0.00  0.00    +0.000 C 
ATOM     14  C   UNL     1      11.802  14.084  18.149  0.00  0.00    +0.000 C 
ENDBRANCH  12  14
ENDBRANCH   6  12
ENDBRANCH   1   9
BRANCH   4  15
ATOM     15  C   UNL     1       6.070   6.471  16.773  0.00  0.00    +0.000 C 
ATOM     16  O   UNL     1       5.647   6.865  15.689  0.00  0.00    +0.000 OA
ATOM     17  N   UNL     1       5.665   5.270  17.326  0.00  0.00    +0.000 N 
ATOM     18  H   UNL     1       5.736   5.164  18.327  0.00  0.00    +0.000 HD
BRANCH  17  19
ATOM     19  C   UNL     1       4.680   4.442  16.664  0.00  0.00    +0.000 C 
BRANCH  19  20
ATOM     20  C   UNL     1       3.525   4.144  17.581  0.00  0.00    +0.000 A 
ATOM     21  C   UNL     1       2.282   3.771  17.050  0.00  0.00    +0.000 A 
ATOM     22  C   UNL     1       1.203   3.527  17.896  0.00  0.00    +0.000 A 
ATOM     23  C   UNL     1       1.354   3.664  19.275  0.00  0.00    +0.000 A 
ATOM     24  C   UNL     1       2.583   4.049  19.823  0.00  0.00    +0.000 A 
ATOM     25  C   UNL     1       3.664   4.287  18.975  0.00  0.00    +0.000 A 
BRANCH  24  26
ATOM     26  O   UNL     1       2.588   4.158  21.185  0.00  0.00    +0.000 OA
ATOM     27  C   UNL     1       2.077   3.052  21.920  0.00  0.00    +0.000 C 
ENDBRANCH  24  26
ENDBRANCH  19  20
ENDBRANCH  17  19
ENDBRANCH   4  15
BRANCH   3  28
ATOM     28  C   UNL     1       8.121   5.478  19.206  0.00  0.00    +0.000 C 
BRANCH  28  29
ATOM     29  O   UNL     1       6.998   5.057  19.982  0.00  0.00    +0.000 OA
ATOM     30  H   UNL     1       6.668   4.253  19.534  0.00  0.00    +0.000 HD
ENDBRANCH  28  29
ENDBRANCH   3  28
TORSDOF 9
ENDMDL
MODEL 9
REMARK VINA RESULT:      -7.2      1.011      1.429
REMARK  Name = 
REMARK  11 active torsions:
REMARK  status: ('A' for Active; 'I' for Inactive)
REMARK    1  A    between atoms: C_1  and  C_2
REMARK    2  A    between atoms: C_2  and  O_3
REMARK    3  A    between atoms: O_3  and  C_4
REMARK    4  A    between atoms: C_7  and  N_8
REMARK    5  A    between atoms: C_10  and  C_11
REMARK    6  A    between atoms: C_11  and  O_12
REMARK    7  A    between atoms: C_13  and  C_14
REMARK    8  A    between atoms: N_16  and  C_17
REMARK    9  A    between atoms: C_17  and  C_18
REMARK   10  A    between atoms: C_22  and  O_23
REMARK   11  A    between atoms: O_23  and  C_24
REMARK                            x       y       z     vdW  Elec       q    Type
REMARK                         _______ _______ _______ _____ _____    ______ ____
ROOT
ATOM      1  N   UNL     1       2.495   7.474  18.796  0.00  0.00    +0.000 N 
ATOM      2  N   UNL     1       2.078   7.264  20.075  0.00  0.00    +0.000 NA
ATOM      3  C   UNL     1       1.457   8.421  20.369  0.00  0.00    +0.000 A 
ATOM      4  C   UNL     1       1.495   9.289  19.246  0.00  0.00    +0.000 A 
ATOM      5  N   UNL     1       2.175   8.676  18.263  0.00  0.00    +0.000 NA
ENDROOT
BRANCH   1   9
ATOM      6  C   UNL     1       4.631   4.545  16.611  0.00  0.00    +0.000 A 
ATOM      7  C   UNL     1       5.056   5.876  16.606  0.00  0.00    +0.000 A 
ATOM      8  C   UNL     1       4.359   6.855  17.327  0.00  0.00    +0.000 A 
ATOM      9  C   UNL     1       3.218   6.500  18.055  0.00  0.00    +0.000 A 
ATOM     10  C   UNL     1       2.781   5.168  18.047  0.00  0.00    +0.000 A 
ATOM     11  C   UNL     1       3.481   4.197  17.321  0.00  0.00    +0.000 A 
BRANCH   6  12
ATOM     12  O   UNL     1       5.389   3.680  15.867  0.00  0.00    +0.000 OA
BRANCH  12  14
ATOM     13  C   UNL     1       6.107   3.905  13.595  0.00  0.00    +0.000 C 
ATOM     14  C   UNL     1       6.387   4.280  15.039  0.00  0.00    +0.000 C 
ENDBRANCH  12  14
ENDBRANCH   6  12
ENDBRANCH   1   9
BRANCH   4  15
ATOM     15  C   UNL     1       0.886  10.611  19.042  0.00  0.00    +0.000 C 
ATOM     16  O   UNL     1       1.313  11.624  19.592  0.00  0.00    +0.000 OA
ATOM     17  N   UNL     1      -0.202  10.642  18.191  0.00  0.00    +0.000 N 
ATOM     18  H   UNL     1      -0.727   9.789  18.065  0.00  0.00    +0.000 HD
BRANCH  17  19
ATOM     19  C   UNL     1      -0.921  11.874  17.947  0.00  0.00    +0.000 C 
BRANCH  19  20
ATOM     20  C   UNL     1      -2.388  11.610  17.741  0.00  0.00    +0.000 A 
ATOM     21  C   UNL     1      -2.861  11.202  16.486  0.00  0.00    +0.000 A 
ATOM     22  C   UNL     1      -4.222  10.989  16.285  0.00  0.00    +0.000 A 
ATOM     23  C   UNL     1      -5.120  11.192  17.331  0.00  0.00    +0.000 A 
ATOM     24  C   UNL     1      -4.670  11.612  18.587  0.00  0.00    +0.000 A 
ATOM     25  C   UNL     1      -3.305  11.819  18.789  0.00  0.00    +0.000 A 
BRANCH  24  26
ATOM     26  O   UNL     1      -5.656  11.785  19.517  0.00  0.00    +0.000 OA
ATOM     27  C   UNL     1      -6.968  11.380  19.144  0.00  0.00    +0.000 C 
ENDBRANCH  24  26
ENDBRANCH  19  20
ENDBRANCH  17  19
ENDBRANCH   4  15
BRANCH   3  28
ATOM     28  C   UNL     1       0.797   8.596  21.696  0.00  0.00    +0.000 C 
BRANCH  28  29
ATOM     29  O   UNL     1       1.150   9.833  22.317  0.00  0.00    +0.000 OA
ATOM     30  H   UNL     1       2.015   9.665  22.741  0.00  0.00    +0.000 HD
ENDBRANCH  28  29
ENDBRANCH   3  28
TORSDOF 9
ENDMDL
