MODEL 1
REMARK VINA RESULT:      -7.0      0.000      0.000
REMARK  Name = 
REMARK  7 active torsions:
REMARK  status: ('A' for Active; 'I' for Inactive)
REMARK    1  A    between atoms: C_1  and  N_2
REMARK    2  A    between atoms: N_2  and  C_3
REMARK    3  A    between atoms: N_2  and  C_19
REMARK    4  A    between atoms: C_3  and  C_4
REMARK    5  A    between atoms: C_10  and  C_11
REMARK    6  A    between atoms: C_14  and  C_15
REMARK    7  A    between atoms: C_19  and  C_20
REMARK                            x       y       z     vdW  Elec       q    Type
REMARK                         _______ _______ _______ _____ _____    ______ ____
ROOT
ATOM      1  C   UNL     1       5.252   4.163  17.935  0.00  0.00    +0.000 C 
ATOM      2  O   UNL     1       5.968   4.306  18.925  0.00  0.00    +0.000 OA
ATOM      3  N   UNL     1       5.758   4.369  16.671  0.00  0.00    +0.000 N 
ATOM      4  C   UNL     1       5.091   4.176  15.402  0.00  0.00    +0.000 C 
ATOM      5  C   UNL     1       6.228   3.863  14.451  0.00  0.00    +0.000 C 
ATOM      6  C   UNL     1       7.381   4.719  14.964  0.00  0.00    +0.000 C 
ATOM      7  C   UNL     1       7.116   4.892  16.472  0.00  0.00    +0.000 C 
ENDROOT
BRANCH   7   8
ATOM      8  C   UNL     1       7.198   6.339  16.868  0.00  0.00    +0.000 A 
ATOM      9  N   UNL     1       6.291   7.245  16.474  0.00  0.00    +0.000 NA
ATOM     10  O   UNL     1       6.705   8.412  17.118  0.00  0.00    +0.000 OA
ATOM     11  C   UNL     1       7.811   8.088  17.854  0.00  0.00    +0.000 A 
ATOM     12  N   UNL     1       8.143   6.821  17.749  0.00  0.00    +0.000 NA
BRANCH  11  13
ATOM     13  C   UNL     1       8.550   9.092  18.725  0.00  0.00    +0.000 C 
ATOM     14  C   UNL     1       9.551  10.015  18.057  0.00  0.00    +0.000 C 
ATOM     15  C   UNL     1       8.260  10.570  18.555  0.00  0.00    +0.000 C 
ENDBRANCH  11  13
ENDBRANCH   7   8
BRANCH   1  16
ATOM     16  C   UNL     1       3.784   3.698  18.057  0.00  0.00    +0.000 C 
BRANCH  16  18
ATOM     17  C   UNL     1       1.477   4.431  17.842  0.00  0.00    +0.000 C 
ATOM     18  N   UNL     1       2.807   4.770  18.348  0.00  0.00    +0.000 NA
BRANCH  18  19
ATOM     19  C   UNL     1       3.270   6.081  17.866  0.00  0.00    +0.000 C 
BRANCH  19  20
ATOM     20  C   UNL     1       2.575   7.236  18.557  0.00  0.00    +0.000 A 
ATOM     21  C   UNL     1       2.209   7.160  19.909  0.00  0.00    +0.000 A 
ATOM     22  C   UNL     1       1.478   8.192  20.499  0.00  0.00    +0.000 A 
ATOM     23  C   UNL     1       1.112   9.306  19.744  0.00  0.00    +0.000 A 
ATOM     24  C   UNL     1       1.491   9.402  18.406  0.00  0.00    +0.000 A 
ATOM     25  C   UNL     1       2.224   8.375  17.816  0.00  0.00    +0.000 A 
ENDBRANCH  19  20
ENDBRANCH  18  19
ENDBRANCH  16  18
ENDBRANCH   1  16
TORSDOF 6
ENDMDL
MODEL 2
REMARK VINA RESULT:      -6.9      2.319      4.955
REMARK  Name = 
REMARK  7 active torsions:
REMARK  status: ('A' for Active; 'I' for Inactive)
REMARK    1  A    between atoms: C_1  and  N_2
REMARK    2  A    between atoms: N_2  and  C_3
REMARK    3  A    between atoms: N_2  and  C_19
REMARK    4  A    between atoms: C_3  and  C_4
REMARK    5  A    between atoms: C_10  and  C_11
REMARK    6  A    between atoms: C_14  and  C_15
REMARK    7  A    between atoms: C_19  and  C_20
REMARK                            x       y       z     vdW  Elec       q    Type
REMARK                         _______ _______ _______ _____ _____    ______ ____
ROOT
ATOM      1  C   UNL     1       4.095   6.398  17.513  0.00  0.00    +0.000 C 
ATOM      2  O   UNL     1       4.084   7.270  16.645  0.00  0.00    +0.000 OA
ATOM      3  N   UNL     1       5.288   5.921  18.008  0.00  0.00    +0.000 N 
ATOM      4  C   UNL     1       5.491   4.962  19.072  0.00  0.00    +0.000 C 
ATOM      5  C   UNL     1       6.845   5.343  19.635  0.00  0.00    +0.000 C 
ATOM      6  C   UNL     1       7.631   5.809  18.415  0.00  0.00    +0.000 C 
ATOM      7  C   UNL     1       6.572   6.337  17.429  0.00  0.00    +0.000 C 
ENDROOT
BRANCH   7   8
ATOM      8  C   UNL     1       6.764   5.737  16.064  0.00  0.00    +0.000 A 
ATOM      9  N   UNL     1       7.765   6.107  15.251  0.00  0.00    +0.000 NA
ATOM     10  O   UNL     1       7.609   5.264  14.149  0.00  0.00    +0.000 OA
ATOM     11  C   UNL     1       6.541   4.454  14.417  0.00  0.00    +0.000 A 
ATOM     12  N   UNL     1       5.999   4.693  15.590  0.00  0.00    +0.000 NA
BRANCH  11  13
ATOM     13  C   UNL     1       6.060   3.372  13.463  0.00  0.00    +0.000 C 
ATOM     14  C   UNL     1       5.115   3.772  12.348  0.00  0.00    +0.000 C 
ATOM     15  C   UNL     1       6.521   3.404  12.020  0.00  0.00    +0.000 C 
ENDBRANCH  11  13
ENDBRANCH   7   8
BRANCH   1  16
ATOM     16  C   UNL     1       2.788   5.842  18.119  0.00  0.00    +0.000 C 
BRANCH  16  18
ATOM     17  C   UNL     1       2.423   8.191  18.623  0.00  0.00    +0.000 C 
ATOM     18  N   UNL     1       1.979   6.821  18.877  0.00  0.00    +0.000 NA
BRANCH  18  19
ATOM     19  C   UNL     1       1.938   6.505  20.314  0.00  0.00    +0.000 C 
BRANCH  19  20
ATOM     20  C   UNL     1       1.789   5.022  20.583  0.00  0.00    +0.000 A 
ATOM     21  C   UNL     1       2.679   4.344  21.428  0.00  0.00    +0.000 A 
ATOM     22  C   UNL     1       2.588   2.960  21.581  0.00  0.00    +0.000 A 
ATOM     23  C   UNL     1       1.605   2.247  20.895  0.00  0.00    +0.000 A 
ATOM     24  C   UNL     1       0.701   2.915  20.071  0.00  0.00    +0.000 A 
ATOM     25  C   UNL     1       0.787   4.296  19.919  0.00  0.00    +0.000 A 
ENDBRANCH  19  20
ENDBRANCH  18  19
ENDBRANCH  16  18
ENDBRANCH   1  16
TORSDOF 6
ENDMDL
MODEL 3
REMARK VINA RESULT:      -6.8      2.698      5.014
REMARK  Name = 
REMARK  7 active torsions:
REMARK  status: ('A' for Active; 'I' for Inactive)
REMARK    1  A    between atoms: C_1  and  N_2
REMARK    2  A    between atoms: N_2  and  C_3
REMARK    3  A    between atoms: N_2  and  C_19
REMARK    4  A    between atoms: C_3  and  C_4
REMARK    5  A    between atoms: C_10  and  C_11
REMARK    6  A    between atoms: C_14  and  C_15
REMARK    7  A    between atoms: C_19  and  C_20
REMARK                            x       y       z     vdW  Elec       q    Type
REMARK                         _______ _______ _______ _____ _____    ______ ____
ROOT
ATOM      1  C   UNL     1       4.154   6.286  17.617  0.00  0.00    +0.000 C 
ATOM      2  O   UNL     1       5.247   6.813  17.817  0.00  0.00    +0.000 OA
ATOM      3  N   UNL     1       4.062   4.930  17.397  0.00  0.00    +0.000 N 
ATOM      4  C   UNL     1       2.867   4.134  17.221  0.00  0.00    +0.000 C 
ATOM      5  C   UNL     1       3.279   2.764  17.717  0.00  0.00    +0.000 C 
ATOM      6  C   UNL     1       4.742   2.650  17.303  0.00  0.00    +0.000 C 
ATOM      7  C   UNL     1       5.266   4.098  17.264  0.00  0.00    +0.000 C 
ENDROOT
BRANCH   7   8
ATOM      8  C   UNL     1       5.971   4.379  15.967  0.00  0.00    +0.000 A 
ATOM      9  N   UNL     1       7.150   5.015  15.914  0.00  0.00    +0.000 NA
ATOM     10  O   UNL     1       7.464   4.993  14.553  0.00  0.00    +0.000 OA
ATOM     11  C   UNL     1       6.450   4.325  13.924  0.00  0.00    +0.000 A 
ATOM     12  N   UNL     1       5.518   3.910  14.752  0.00  0.00    +0.000 NA
BRANCH  11  13
ATOM     13  C   UNL     1       6.432   4.067  12.425  0.00  0.00    +0.000 C 
ATOM     14  C   UNL     1       6.465   2.628  11.949  0.00  0.00    +0.000 C 
ATOM     15  C   UNL     1       5.212   3.420  11.803  0.00  0.00    +0.000 C 
ENDBRANCH  11  13
ENDBRANCH   7   8
BRANCH   1  16
ATOM     16  C   UNL     1       2.842   7.101  17.654  0.00  0.00    +0.000 C 
BRANCH  16  18
ATOM     17  C   UNL     1       1.717   8.445  19.338  0.00  0.00    +0.000 C 
ATOM     18  N   UNL     1       2.135   7.097  18.953  0.00  0.00    +0.000 NA
BRANCH  18  19
ATOM     19  C   UNL     1       2.923   6.435  20.006  0.00  0.00    +0.000 C 
BRANCH  19  20
ATOM     20  C   UNL     1       2.339   5.101  20.420  0.00  0.00    +0.000 A 
ATOM     21  C   UNL     1       3.095   4.172  21.151  0.00  0.00    +0.000 A 
ATOM     22  C   UNL     1       2.575   2.909  21.433  0.00  0.00    +0.000 A 
ATOM     23  C   UNL     1       1.296   2.567  20.993  0.00  0.00    +0.000 A 
ATOM     24  C   UNL     1       0.528   3.491  20.287  0.00  0.00    +0.000 A 
ATOM     25  C   UNL     1       1.043   4.754  20.007  0.00  0.00    +0.000 A 
ENDBRANCH  19  20
ENDBRANCH  18  19
ENDBRANCH  16  18
ENDBRANCH   1  16
TORSDOF 6
ENDMDL
MODEL 4
REMARK VINA RESULT:      -6.8      2.400      5.218
REMARK  Name = 
REMARK  7 active torsions:
REMARK  status: ('A' for Active; 'I' for Inactive)
REMARK    1  A    between atoms: C_1  and  N_2
REMARK    2  A    between atoms: N_2  and  C_3
REMARK    3  A    between atoms: N_2  and  C_19
REMARK    4  A    between atoms: C_3  and  C_4
REMARK    5  A    between atoms: C_10  and  C_11
REMARK    6  A    between atoms: C_14  and  C_15
REMARK    7  A    between atoms: C_19  and  C_20
REMARK                            x       y       z     vdW  Elec       q    Type
REMARK                         _______ _______ _______ _____ _____    ______ ____
ROOT
ATOM      1  C   UNL     1       5.351   7.093  17.242  0.00  0.00    +0.000 C 
ATOM      2  O   UNL     1       5.586   7.601  16.147  0.00  0.00    +0.000 OA
ATOM      3  N   UNL     1       6.141   6.073  17.724  0.00  0.00    +0.000 N 
ATOM      4  C   UNL     1       6.061   5.415  19.010  0.00  0.00    +0.000 C 
ATOM      5  C   UNL     1       7.483   4.956  19.259  0.00  0.00    +0.000 C 
ATOM      6  C   UNL     1       7.998   4.591  17.871  0.00  0.00    +0.000 C 
ATOM      7  C   UNL     1       7.197   5.474  16.897  0.00  0.00    +0.000 C 
ENDROOT
BRANCH   7   8
ATOM      8  C   UNL     1       6.607   4.650  15.787  0.00  0.00    +0.000 A 
ATOM      9  N   UNL     1       5.663   3.723  16.004  0.00  0.00    +0.000 NA
ATOM     10  O   UNL     1       5.361   3.268  14.719  0.00  0.00    +0.000 OA
ATOM     11  C   UNL     1       6.139   3.984  13.852  0.00  0.00    +0.000 A 
ATOM     12  N   UNL     1       6.908   4.860  14.458  0.00  0.00    +0.000 NA
BRANCH  11  13
ATOM     13  C   UNL     1       6.086   3.798  12.343  0.00  0.00    +0.000 C 
ATOM     14  C   UNL     1       6.694   2.538  11.758  0.00  0.00    +0.000 C 
ATOM     15  C   UNL     1       5.212   2.703  11.766  0.00  0.00    +0.000 C 
ENDBRANCH  11  13
ENDBRANCH   7   8
BRANCH   1  16
ATOM     16  C   UNL     1       4.205   7.604  18.143  0.00  0.00    +0.000 C 
BRANCH  16  18
ATOM     17  C   UNL     1       1.860   7.742  17.518  0.00  0.00    +0.000 C 
ATOM     18  N   UNL     1       2.927   6.871  18.011  0.00  0.00    +0.000 NA
BRANCH  18  19
ATOM     19  C   UNL     1       2.555   6.186  19.259  0.00  0.00    +0.000 C 
BRANCH  19  20
ATOM     20  C   UNL     1       2.087   4.764  19.028  0.00  0.00    +0.000 A 
ATOM     21  C   UNL     1       1.242   4.119  19.942  0.00  0.00    +0.000 A 
ATOM     22  C   UNL     1       0.907   2.776  19.764  0.00  0.00    +0.000 A 
ATOM     23  C   UNL     1       1.409   2.072  18.670  0.00  0.00    +0.000 A 
ATOM     24  C   UNL     1       2.231   2.711  17.743  0.00  0.00    +0.000 A 
ATOM     25  C   UNL     1       2.564   4.052  17.916  0.00  0.00    +0.000 A 
ENDBRANCH  19  20
ENDBRANCH  18  19
ENDBRANCH  16  18
ENDBRANCH   1  16
TORSDOF 6
ENDMDL
MODEL 5
REMARK VINA RESULT:      -6.7      4.374      8.163
REMARK  Name = 
REMARK  7 active torsions:
REMARK  status: ('A' for Active; 'I' for Inactive)
REMARK    1  A    between atoms: C_1  and  N_2
REMARK    2  A    between atoms: N_2  and  C_3
REMARK    3  A    between atoms: N_2  and  C_19
REMARK    4  A    between atoms: C_3  and  C_4
REMARK    5  A    between atoms: C_10  and  C_11
REMARK    6  A    between atoms: C_14  and  C_15
REMARK    7  A    between atoms: C_19  and  C_20
REMARK                            x       y       z     vdW  Elec       q    Type
REMARK                         _______ _______ _______ _____ _____    ______ ____
ROOT
ATOM      1  C   UNL     1       1.741   9.105  18.843  0.00  0.00    +0.000 C 
ATOM      2  O   UNL     1       1.112   8.575  19.757  0.00  0.00    +0.000 OA
ATOM      3  N   UNL     1       1.690  10.468  18.658  0.00  0.00    +0.000 N 
ATOM      4  C   UNL     1       2.417  11.265  17.693  0.00  0.00    +0.000 C 
ATOM      5  C   UNL     1       2.534  12.616  18.367  0.00  0.00    +0.000 C 
ATOM      6  C   UNL     1       1.226  12.754  19.140  0.00  0.00    +0.000 C 
ATOM      7  C   UNL     1       0.788  11.311  19.455  0.00  0.00    +0.000 C 
ENDROOT
BRANCH   7   8
ATOM      8  C   UNL     1      -0.644  11.086  19.060  0.00  0.00    +0.000 A 
ATOM      9  N   UNL     1      -1.669  11.624  19.738  0.00  0.00    +0.000 NA
ATOM     10  O   UNL     1      -2.784  11.226  18.999  0.00  0.00    +0.000 OA
ATOM     11  C   UNL     1      -2.318  10.506  17.934  0.00  0.00    +0.000 A 
ATOM     12  N   UNL     1      -1.008  10.408  17.917  0.00  0.00    +0.000 NA
BRANCH  11  13
ATOM     13  C   UNL     1      -3.230   9.914  16.871  0.00  0.00    +0.000 C 
ATOM     14  C   UNL     1      -3.872  10.859  15.874  0.00  0.00    +0.000 C 
ATOM     15  C   UNL     1      -2.788   9.942  15.422  0.00  0.00    +0.000 C 
ENDBRANCH  11  13
ENDBRANCH   7   8
BRANCH   1  16
ATOM     16  C   UNL     1       2.649   8.283  17.901  0.00  0.00    +0.000 C 
BRANCH  16  18
ATOM     17  C   UNL     1       4.316   6.515  17.977  0.00  0.00    +0.000 C 
ATOM     18  N   UNL     1       2.963   6.915  18.368  0.00  0.00    +0.000 NA
BRANCH  18  19
ATOM     19  C   UNL     1       1.948   5.940  17.938  0.00  0.00    +0.000 C 
BRANCH  19  20
ATOM     20  C   UNL     1       1.841   4.756  18.877  0.00  0.00    +0.000 A 
ATOM     21  C   UNL     1       1.641   3.456  18.389  0.00  0.00    +0.000 A 
ATOM     22  C   UNL     1       1.442   2.396  19.273  0.00  0.00    +0.000 A 
ATOM     23  C   UNL     1       1.445   2.625  20.649  0.00  0.00    +0.000 A 
ATOM     24  C   UNL     1       1.666   3.909  21.144  0.00  0.00    +0.000 A 
ATOM     25  C   UNL     1       1.870   4.969  20.264  0.00  0.00    +0.000 A 
ENDBRANCH  19  20
ENDBRANCH  18  19
ENDBRANCH  16  18
ENDBRANCH   1  16
TORSDOF 6
ENDMDL
MODEL 6
REMARK VINA RESULT:      -6.7      2.277      6.762
REMARK  Name = 
REMARK  7 active torsions:
REMARK  status: ('A' for Active; 'I' for Inactive)
REMARK    1  A    between atoms: C_1  and  N_2
REMARK    2  A    between atoms: N_2  and  C_3
REMARK    3  A    between atoms: N_2  and  C_19
REMARK    4  A    between atoms: C_3  and  C_4
REMARK    5  A    between atoms: C_10  and  C_11
REMARK    6  A    between atoms: C_14  and  C_15
REMARK    7  A    between atoms: C_19  and  C_20
REMARK                            x       y       z     vdW  Elec       q    Type
REMARK                         _______ _______ _______ _____ _____    ______ ____
ROOT
ATOM      1  C   UNL     1       4.721   6.497  17.514  0.00  0.00    +0.000 C 
ATOM      2  O   UNL     1       4.194   7.260  16.705  0.00  0.00    +0.000 OA
ATOM      3  N   UNL     1       3.949   5.716  18.344  0.00  0.00    +0.000 N 
ATOM      4  C   UNL     1       4.389   4.718  19.294  0.00  0.00    +0.000 C 
ATOM      5  C   UNL     1       3.220   3.758  19.364  0.00  0.00    +0.000 C 
ATOM      6  C   UNL     1       1.998   4.656  19.205  0.00  0.00    +0.000 C 
ATOM      7  C   UNL     1       2.487   5.863  18.382  0.00  0.00    +0.000 C 
ENDROOT
BRANCH   7   8
ATOM      8  C   UNL     1       2.095   7.156  19.041  0.00  0.00    +0.000 A 
ATOM      9  N   UNL     1       1.850   8.273  18.341  0.00  0.00    +0.000 NA
ATOM     10  O   UNL     1       1.458   9.185  19.322  0.00  0.00    +0.000 OA
ATOM     11  C   UNL     1       1.484   8.519  20.516  0.00  0.00    +0.000 A 
ATOM     12  N   UNL     1       1.851   7.263  20.393  0.00  0.00    +0.000 NA
BRANCH  11  13
ATOM     13  C   UNL     1       1.095   9.167  21.836  0.00  0.00    +0.000 C 
ATOM     14  C   UNL     1       0.102  10.311  21.803  0.00  0.00    +0.000 C 
ATOM     15  C   UNL     1      -0.317   8.992  22.355  0.00  0.00    +0.000 C 
ENDBRANCH  11  13
ENDBRANCH   7   8
BRANCH   1  16
ATOM     16  C   UNL     1       6.256   6.343  17.601  0.00  0.00    +0.000 C 
BRANCH  16  18
ATOM     17  C   UNL     1       7.750   4.427  17.642  0.00  0.00    +0.000 C 
ATOM     18  N   UNL     1       6.819   5.213  16.832  0.00  0.00    +0.000 NA
BRANCH  18  19
ATOM     19  C   UNL     1       7.421   5.655  15.564  0.00  0.00    +0.000 C 
BRANCH  19  20
ATOM     20  C   UNL     1       6.848   4.933  14.362  0.00  0.00    +0.000 A 
ATOM     21  C   UNL     1       5.627   4.247  14.440  0.00  0.00    +0.000 A 
ATOM     22  C   UNL     1       5.168   3.502  13.353  0.00  0.00    +0.000 A 
ATOM     23  C   UNL     1       5.922   3.442  12.181  0.00  0.00    +0.000 A 
ATOM     24  C   UNL     1       7.125   4.140  12.086  0.00  0.00    +0.000 A 
ATOM     25  C   UNL     1       7.584   4.887  13.167  0.00  0.00    +0.000 A 
ENDBRANCH  19  20
ENDBRANCH  18  19
ENDBRANCH  16  18
ENDBRANCH   1  16
TORSDOF 6
ENDMDL
MODEL 7
REMARK VINA RESULT:      -6.7      2.380      4.408
REMARK  Name = 
REMARK  7 active torsions:
REMARK  status: ('A' for Active; 'I' for Inactive)
REMARK    1  A    between atoms: C_1  and  N_2
REMARK    2  A    between atoms: N_2  and  C_3
REMARK    3  A    between atoms: N_2  and  C_19
REMARK    4  A    between atoms: C_3  and  C_4
REMARK    5  A    between atoms: C_10  and  C_11
REMARK    6  A    between atoms: C_14  and  C_15
REMARK    7  A    between atoms: C_19  and  C_20
REMARK                            x       y       z     vdW  Elec       q    Type
REMARK                         _______ _______ _______ _____ _____    ______ ____
ROOT
ATOM      1  C   UNL     1       2.424   4.900  20.397  0.00  0.00    +0.000 C 
ATOM      2  O   UNL     1       3.491   5.035  20.994  0.00  0.00    +0.000 OA
ATOM      3  N   UNL     1       2.251   3.873  19.497  0.00  0.00    +0.000 N 
ATOM      4  C   UNL     1       1.053   3.518  18.767  0.00  0.00    +0.000 C 
ATOM      5  C   UNL     1       1.209   2.030  18.536  0.00  0.00    +0.000 C 
ATOM      6  C   UNL     1       2.709   1.845  18.335  0.00  0.00    +0.000 C 
ATOM      7  C   UNL     1       3.367   2.992  19.125  0.00  0.00    +0.000 C 
ENDROOT
BRANCH   7   8
ATOM      8  C   UNL     1       4.368   3.724  18.276  0.00  0.00    +0.000 A 
ATOM      9  N   UNL     1       4.091   4.130  17.028  0.00  0.00    +0.000 NA
ATOM     10  O   UNL     1       5.249   4.813  16.650  0.00  0.00    +0.000 OA
ATOM     11  C   UNL     1       6.102   4.768  17.719  0.00  0.00    +0.000 A 
ATOM     12  N   UNL     1       5.599   4.127  18.749  0.00  0.00    +0.000 NA
BRANCH  11  13
ATOM     13  C   UNL     1       7.473   5.425  17.712  0.00  0.00    +0.000 C 
ATOM     14  C   UNL     1       7.539   6.939  17.753  0.00  0.00    +0.000 C 
ATOM     15  C   UNL     1       7.946   6.155  18.953  0.00  0.00    +0.000 C 
ENDBRANCH  11  13
ENDBRANCH   7   8
BRANCH   1  16
ATOM     16  C   UNL     1       1.223   5.835  20.663  0.00  0.00    +0.000 C 
BRANCH  16  18
ATOM     17  C   UNL     1       2.392   7.356  19.171  0.00  0.00    +0.000 C 
ATOM     18  N   UNL     1       1.421   7.244  20.260  0.00  0.00    +0.000 NA
BRANCH  18  19
ATOM     19  C   UNL     1       1.767   8.101  21.405  0.00  0.00    +0.000 C 
BRANCH  19  20
ATOM     20  C   UNL     1       0.754   9.203  21.637  0.00  0.00    +0.000 A 
ATOM     21  C   UNL     1       0.587  10.243  20.711  0.00  0.00    +0.000 A 
ATOM     22  C   UNL     1      -0.276  11.302  20.993  0.00  0.00    +0.000 A 
ATOM     23  C   UNL     1      -0.981  11.327  22.196  0.00  0.00    +0.000 A 
ATOM     24  C   UNL     1      -0.839  10.286  23.112  0.00  0.00    +0.000 A 
ATOM     25  C   UNL     1       0.019   9.225  22.833  0.00  0.00    +0.000 A 
ENDBRANCH  19  20
ENDBRANCH  18  19
ENDBRANCH  16  18
ENDBRANCH   1  16
TORSDOF 6
ENDMDL
MODEL 8
REMARK VINA RESULT:      -6.6      1.231      1.658
REMARK  Name = 
REMARK  7 active torsions:
REMARK  status: ('A' for Active; 'I' for Inactive)
REMARK    1  A    between atoms: C_1  and  N_2
REMARK    2  A    between atoms: N_2  and  C_3
REMARK    3  A    between atoms: N_2  and  C_19
REMARK    4  A    between atoms: C_3  and  C_4
REMARK    5  A    between atoms: C_10  and  C_11
REMARK    6  A    between atoms: C_14  and  C_15
REMARK    7  A    between atoms: C_19  and  C_20
REMARK                            x       y       z     vdW  Elec       q    Type
REMARK                         _______ _______ _______ _____ _____    ______ ____
ROOT
ATOM      1  C   UNL     1       5.149   4.288  18.487  0.00  0.00    +0.000 C 
ATOM      2  O   UNL     1       5.951   4.018  19.380  0.00  0.00    +0.000 OA
ATOM      3  N   UNL     1       5.593   4.667  17.240  0.00  0.00    +0.000 N 
ATOM      4  C   UNL     1       4.804   4.946  16.060  0.00  0.00    +0.000 C 
ATOM      5  C   UNL     1       5.744   4.611  14.921  0.00  0.00    +0.000 C 
ATOM      6  C   UNL     1       7.115   5.023  15.445  0.00  0.00    +0.000 C 
ATOM      7  C   UNL     1       7.021   4.887  16.976  0.00  0.00    +0.000 C 
ENDROOT
BRANCH   7   8
ATOM      8  C   UNL     1       7.507   6.135  17.657  0.00  0.00    +0.000 A 
ATOM      9  N   UNL     1       8.197   6.105  18.807  0.00  0.00    +0.000 NA
ATOM     10  O   UNL     1       8.501   7.449  19.032  0.00  0.00    +0.000 OA
ATOM     11  C   UNL     1       7.982   8.154  17.982  0.00  0.00    +0.000 A 
ATOM     12  N   UNL     1       7.378   7.390  17.100  0.00  0.00    +0.000 NA
BRANCH  11  13
ATOM     13  C   UNL     1       8.125   9.662  17.844  0.00  0.00    +0.000 C 
ATOM     14  C   UNL     1       8.667  10.438  19.029  0.00  0.00    +0.000 C 
ATOM     15  C   UNL     1       9.512  10.271  17.813  0.00  0.00    +0.000 C 
ENDBRANCH  11  13
ENDBRANCH   7   8
BRANCH   1  16
ATOM     16  C   UNL     1       3.625   4.167  18.705  0.00  0.00    +0.000 C 
BRANCH  16  18
ATOM     17  C   UNL     1       3.187   2.860  20.706  0.00  0.00    +0.000 C 
ATOM     18  N   UNL     1       3.186   4.199  20.117  0.00  0.00    +0.000 NA
BRANCH  18  19
ATOM     19  C   UNL     1       1.889   4.877  20.275  0.00  0.00    +0.000 C 
BRANCH  19  20
ATOM     20  C   UNL     1       1.927   6.323  19.827  0.00  0.00    +0.000 A 
ATOM     21  C   UNL     1       1.484   7.356  20.666  0.00  0.00    +0.000 A 
ATOM     22  C   UNL     1       1.431   8.669  20.198  0.00  0.00    +0.000 A 
ATOM     23  C   UNL     1       1.824   8.959  18.892  0.00  0.00    +0.000 A 
ATOM     24  C   UNL     1       2.289   7.943  18.058  0.00  0.00    +0.000 A 
ATOM     25  C   UNL     1       2.347   6.633  18.524  0.00  0.00    +0.000 A 
ENDBRANCH  19  20
ENDBRANCH  18  19
ENDBRANCH  16  18
ENDBRANCH   1  16
TORSDOF 6
ENDMDL
MODEL 9
REMARK VINA RESULT:      -6.6      2.999      4.871
REMARK  Name = 
REMARK  7 active torsions:
REMARK  status: ('A' for Active; 'I' for Inactive)
REMARK    1  A    between atoms: C_1  and  N_2
REMARK    2  A    between atoms: N_2  and  C_3
REMARK    3  A    between atoms: N_2  and  C_19
REMARK    4  A    between atoms: C_3  and  C_4
REMARK    5  A    between atoms: C_10  and  C_11
REMARK    6  A    between atoms: C_14  and  C_15
REMARK    7  A    between atoms: C_19  and  C_20
REMARK                            x       y       z     vdW  Elec       q    Type
REMARK                         _______ _______ _______ _____ _____    ______ ____
ROOT
ATOM      1  C   UNL     1       2.470   4.949  20.349  0.00  0.00    +0.000 C 
ATOM      2  O   UNL     1       3.520   5.133  20.961  0.00  0.00    +0.000 OA
ATOM      3  N   UNL     1       2.346   3.891  19.476  0.00  0.00    +0.000 N 
ATOM      4  C   UNL     1       1.174   3.480  18.735  0.00  0.00    +0.000 C 
ATOM      5  C   UNL     1       1.379   1.990  18.549  0.00  0.00    +0.000 C 
ATOM      6  C   UNL     1       2.888   1.847  18.382  0.00  0.00    +0.000 C 
ATOM      7  C   UNL     1       3.495   3.036  19.151  0.00  0.00    +0.000 C 
ENDROOT
BRANCH   7   8
ATOM      8  C   UNL     1       4.490   3.774  18.299  0.00  0.00    +0.000 A 
ATOM      9  N   UNL     1       5.707   4.115  18.748  0.00  0.00    +0.000 NA
ATOM     10  O   UNL     1       6.306   4.702  17.632  0.00  0.00    +0.000 OA
ATOM     11  C   UNL     1       5.396   4.636  16.613  0.00  0.00    +0.000 A 
ATOM     12  N   UNL     1       4.271   4.057  16.968  0.00  0.00    +0.000 NA
BRANCH  11  13
ATOM     13  C   UNL     1       5.681   5.154  15.212  0.00  0.00    +0.000 C 
ATOM     14  C   UNL     1       6.979   4.737  14.549  0.00  0.00    +0.000 C 
ATOM     15  C   UNL     1       5.690   4.177  14.053  0.00  0.00    +0.000 C 
ENDBRANCH  11  13
ENDBRANCH   7   8
BRANCH   1  16
ATOM     16  C   UNL     1       1.236   5.853  20.566  0.00  0.00    +0.000 C 
BRANCH  16  18
ATOM     17  C   UNL     1       2.412   7.419  19.126  0.00  0.00    +0.000 C 
ATOM     18  N   UNL     1       1.424   7.272  20.194  0.00  0.00    +0.000 NA
BRANCH  18  19
ATOM     19  C   UNL     1       1.738   8.110  21.363  0.00  0.00    +0.000 C 
BRANCH  19  20
ATOM     20  C   UNL     1       0.704   9.191  21.602  0.00  0.00    +0.000 A 
ATOM     21  C   UNL     1       0.433  10.166  20.631  0.00  0.00    +0.000 A 
ATOM     22  C   UNL     1      -0.446  11.212  20.911  0.00  0.00    +0.000 A 
ATOM     23  C   UNL     1      -1.065  11.288  22.159  0.00  0.00    +0.000 A 
ATOM     24  C   UNL     1      -0.821  10.310  23.122  0.00  0.00    +0.000 A 
ATOM     25  C   UNL     1       0.054   9.263  22.844  0.00  0.00    +0.000 A 
ENDBRANCH  19  20
ENDBRANCH  18  19
ENDBRANCH  16  18
ENDBRANCH   1  16
TORSDOF 6
ENDMDL
