MODEL 1
REMARK VINA RESULT:      -6.8      0.000      0.000
REMARK  Name = 
REMARK  6 active torsions:
REMARK  status: ('A' for Active; 'I' for Inactive)
REMARK    1  A    between atoms: C_1  and  O_2
REMARK    2  A    between atoms: O_2  and  C_3
REMARK    3  A    between atoms: C_12  and  C_13
REMARK    4  A    between atoms: C_12  and  O_14
REMARK    5  A    between atoms: O_14  and  C_15
REMARK    6  A    between atoms: C_16  and  C_17
REMARK                            x       y       z     vdW  Elec       q    Type
REMARK                         _______ _______ _______ _____ _____    ______ ____
ROOT
ATOM      1  C   UNL     1       6.452   5.363  17.209  0.00  0.00    +0.000 A 
ATOM      2  C   UNL     1       6.556   5.084  15.900  0.00  0.00    +0.000 A 
ATOM      3  C   UNL     1       5.549   4.261  15.212  0.00  0.00    +0.000 A 
ATOM      4  O   UNL     1       5.668   4.018  14.014  0.00  0.00    +0.000 OA
ATOM      5  O   UNL     1       4.524   3.771  15.963  0.00  0.00    +0.000 OA
ATOM      6  C   UNL     1       4.415   4.089  17.339  0.00  0.00    +0.000 A 
ATOM      7  C   UNL     1       5.315   4.866  17.962  0.00  0.00    +0.000 A 
ATOM      8  C   UNL     1       5.180   5.222  19.423  0.00  0.00    +0.000 C 
ATOM      9  O   UNL     1       3.937   4.813  20.011  0.00  0.00    +0.000 OA
ATOM     10  C   UNL     1       3.486   3.503  19.627  0.00  0.00    +0.000 C 
ATOM     11  C   UNL     1       4.520   2.438  20.061  0.00  0.00    +0.000 C 
ATOM     12  C   UNL     1       3.239   3.482  18.071  0.00  0.00    +0.000 C 
ATOM     13  C   UNL     1       2.850   2.090  17.553  0.00  0.00    +0.000 C 
ATOM     14 BR   UNL     1       1.708   4.696  17.621  0.00  0.00    +0.000 Br
ENDROOT
BRANCH   1  16
ATOM     15  C   UNL     1       7.587   7.439  17.600  0.00  0.00    +0.000 C 
ATOM     16  O   UNL     1       7.351   6.082  17.962  0.00  0.00    +0.000 OA
ENDBRANCH   1  16
BRANCH  10  17
ATOM     17  O   UNL     1       2.233   3.198  20.277  0.00  0.00    +0.000 OA
ATOM     18  C   UNL     1       2.332   2.774  21.627  0.00  0.00    +0.000 C 
ENDBRANCH  10  17
TORSDOF 2
ENDMDL
MODEL 2
REMARK VINA RESULT:      -6.2      1.734      1.934
REMARK  Name = 
REMARK  6 active torsions:
REMARK  status: ('A' for Active; 'I' for Inactive)
REMARK    1  A    between atoms: C_1  and  O_2
REMARK    2  A    between atoms: O_2  and  C_3
REMARK    3  A    between atoms: C_12  and  C_13
REMARK    4  A    between atoms: C_12  and  O_14
REMARK    5  A    between atoms: O_14  and  C_15
REMARK    6  A    between atoms: C_16  and  C_17
REMARK                            x       y       z     vdW  Elec       q    Type
REMARK                         _______ _______ _______ _____ _____    ______ ____
ROOT
ATOM      1  C   UNL     1       6.295   4.964  17.975  0.00  0.00    +0.000 A 
ATOM      2  C   UNL     1       6.245   5.856  16.973  0.00  0.00    +0.000 A 
ATOM      3  C   UNL     1       4.960   6.341  16.446  0.00  0.00    +0.000 A 
ATOM      4  O   UNL     1       4.940   7.155  15.527  0.00  0.00    +0.000 OA
ATOM      5  O   UNL     1       3.825   5.826  16.996  0.00  0.00    +0.000 OA
ATOM      6  C   UNL     1       3.892   4.901  18.067  0.00  0.00    +0.000 A 
ATOM      7  C   UNL     1       5.063   4.481  18.571  0.00  0.00    +0.000 A 
ATOM      8  C   UNL     1       5.128   3.514  19.728  0.00  0.00    +0.000 C 
ATOM      9  O   UNL     1       3.856   3.242  20.333  0.00  0.00    +0.000 OA
ATOM     10  C   UNL     1       2.770   3.063  19.409  0.00  0.00    +0.000 C 
ATOM     11  C   UNL     1       3.054   1.856  18.484  0.00  0.00    +0.000 C 
ATOM     12  C   UNL     1       2.567   4.393  18.591  0.00  0.00    +0.000 C 
ATOM     13  C   UNL     1       1.490   4.264  17.506  0.00  0.00    +0.000 C 
ATOM     14 BR   UNL     1       1.946   5.848  19.825  0.00  0.00    +0.000 Br
ENDROOT
BRANCH   1  16
ATOM     15  C   UNL     1       8.278   5.254  19.292  0.00  0.00    +0.000 C 
ATOM     16  O   UNL     1       7.432   4.411  18.516  0.00  0.00    +0.000 OA
ENDBRANCH   1  16
BRANCH  10  17
ATOM     17  O   UNL     1       1.545   2.794  20.126  0.00  0.00    +0.000 OA
ATOM     18  C   UNL     1       1.684   2.605  21.525  0.00  0.00    +0.000 C 
ENDBRANCH  10  17
TORSDOF 2
ENDMDL
MODEL 3
REMARK VINA RESULT:      -6.2      1.872      3.378
REMARK  Name = 
REMARK  6 active torsions:
REMARK  status: ('A' for Active; 'I' for Inactive)
REMARK    1  A    between atoms: C_1  and  O_2
REMARK    2  A    between atoms: O_2  and  C_3
REMARK    3  A    between atoms: C_12  and  C_13
REMARK    4  A    between atoms: C_12  and  O_14
REMARK    5  A    between atoms: O_14  and  C_15
REMARK    6  A    between atoms: C_16  and  C_17
REMARK                            x       y       z     vdW  Elec       q    Type
REMARK                         _______ _______ _______ _____ _____    ______ ____
ROOT
ATOM      1  C   UNL     1       6.221   4.416  16.687  0.00  0.00    +0.000 A 
ATOM      2  C   UNL     1       7.208   5.022  17.364  0.00  0.00    +0.000 A 
ATOM      3  C   UNL     1       7.054   5.379  18.783  0.00  0.00    +0.000 A 
ATOM      4  O   UNL     1       7.971   5.935  19.381  0.00  0.00    +0.000 OA
ATOM      5  O   UNL     1       5.859   5.094  19.372  0.00  0.00    +0.000 OA
ATOM      6  C   UNL     1       4.833   4.436  18.652  0.00  0.00    +0.000 A 
ATOM      7  C   UNL     1       4.983   4.081  17.366  0.00  0.00    +0.000 A 
ATOM      8  C   UNL     1       3.894   3.357  16.610  0.00  0.00    +0.000 C 
ATOM      9  O   UNL     1       2.795   2.938  17.430  0.00  0.00    +0.000 OA
ATOM     10  C   UNL     1       2.364   3.900  18.408  0.00  0.00    +0.000 C 
ATOM     11  C   UNL     1       1.886   5.192  17.705  0.00  0.00    +0.000 C 
ATOM     12  C   UNL     1       3.548   4.179  19.408  0.00  0.00    +0.000 C 
ATOM     13  C   UNL     1       3.213   5.273  20.431  0.00  0.00    +0.000 C 
ATOM     14 BR   UNL     1       3.933   2.521  20.467  0.00  0.00    +0.000 Br
ENDROOT
BRANCH   1  16
ATOM     15  C   UNL     1       7.090   4.820  14.488  0.00  0.00    +0.000 C 
ATOM     16  O   UNL     1       6.237   4.077  15.354  0.00  0.00    +0.000 OA
ENDBRANCH   1  16
BRANCH  10  17
ATOM     17  O   UNL     1       1.257   3.374  19.170  0.00  0.00    +0.000 OA
ATOM     18  C   UNL     1       0.653   2.203  18.644  0.00  0.00    +0.000 C 
ENDBRANCH  10  17
TORSDOF 2
ENDMDL
MODEL 4
REMARK VINA RESULT:      -5.9      2.490      4.480
REMARK  Name = 
REMARK  6 active torsions:
REMARK  status: ('A' for Active; 'I' for Inactive)
REMARK    1  A    between atoms: C_1  and  O_2
REMARK    2  A    between atoms: O_2  and  C_3
REMARK    3  A    between atoms: C_12  and  C_13
REMARK    4  A    between atoms: C_12  and  O_14
REMARK    5  A    between atoms: O_14  and  C_15
REMARK    6  A    between atoms: C_16  and  C_17
REMARK                            x       y       z     vdW  Elec       q    Type
REMARK                         _______ _______ _______ _____ _____    ______ ____
ROOT
ATOM      1  C   UNL     1       5.991   4.147  13.731  0.00  0.00    +0.000 A 
ATOM      2  C   UNL     1       7.044   4.628  13.053  0.00  0.00    +0.000 A 
ATOM      3  C   UNL     1       8.023   5.519  13.696  0.00  0.00    +0.000 A 
ATOM      4  O   UNL     1       8.978   5.948  13.054  0.00  0.00    +0.000 OA
ATOM      5  O   UNL     1       7.800   5.858  14.996  0.00  0.00    +0.000 OA
ATOM      6  C   UNL     1       6.695   5.326  15.705  0.00  0.00    +0.000 A 
ATOM      7  C   UNL     1       5.818   4.488  15.130  0.00  0.00    +0.000 A 
ATOM      8  C   UNL     1       4.656   3.906  15.899  0.00  0.00    +0.000 C 
ATOM      9  O   UNL     1       4.689   4.184  17.306  0.00  0.00    +0.000 OA
ATOM     10  C   UNL     1       5.078   5.524  17.651  0.00  0.00    +0.000 C 
ATOM     11  C   UNL     1       4.074   6.537  17.053  0.00  0.00    +0.000 C 
ATOM     12  C   UNL     1       6.545   5.780  17.141  0.00  0.00    +0.000 C 
ATOM     13  C   UNL     1       7.011   7.223  17.377  0.00  0.00    +0.000 C 
ATOM     14 BR   UNL     1       7.819   4.608  18.153  0.00  0.00    +0.000 Br
ENDROOT
BRANCH   1  16
ATOM     15  C   UNL     1       4.854   3.272  11.808  0.00  0.00    +0.000 C 
ATOM     16  O   UNL     1       4.994   3.345  13.224  0.00  0.00    +0.000 OA
ENDBRANCH   1  16
BRANCH  10  17
ATOM     17  O   UNL     1       5.074   5.689  19.086  0.00  0.00    +0.000 OA
ATOM     18  C   UNL     1       3.888   5.277  19.746  0.00  0.00    +0.000 C 
ENDBRANCH  10  17
TORSDOF 2
ENDMDL
MODEL 5
REMARK VINA RESULT:      -5.8      2.094      2.772
REMARK  Name = 
REMARK  6 active torsions:
REMARK  status: ('A' for Active; 'I' for Inactive)
REMARK    1  A    between atoms: C_1  and  O_2
REMARK    2  A    between atoms: O_2  and  C_3
REMARK    3  A    between atoms: C_12  and  C_13
REMARK    4  A    between atoms: C_12  and  O_14
REMARK    5  A    between atoms: O_14  and  C_15
REMARK    6  A    between atoms: C_16  and  C_17
REMARK                            x       y       z     vdW  Elec       q    Type
REMARK                         _______ _______ _______ _____ _____    ______ ____
ROOT
ATOM      1  C   UNL     1       4.526   6.149  17.275  0.00  0.00    +0.000 A 
ATOM      2  C   UNL     1       5.854   6.008  17.140  0.00  0.00    +0.000 A 
ATOM      3  C   UNL     1       6.564   4.861  17.726  0.00  0.00    +0.000 A 
ATOM      4  O   UNL     1       7.780   4.756  17.590  0.00  0.00    +0.000 OA
ATOM      5  O   UNL     1       5.824   3.966  18.436  0.00  0.00    +0.000 OA
ATOM      6  C   UNL     1       4.421   4.115  18.554  0.00  0.00    +0.000 A 
ATOM      7  C   UNL     1       3.766   5.144  17.993  0.00  0.00    +0.000 A 
ATOM      8  C   UNL     1       2.266   5.284  18.102  0.00  0.00    +0.000 C 
ATOM      9  O   UNL     1       1.615   4.149  18.688  0.00  0.00    +0.000 OA
ATOM     10  C   UNL     1       2.289   3.580  19.824  0.00  0.00    +0.000 C 
ATOM     11  C   UNL     1       2.392   4.628  20.957  0.00  0.00    +0.000 C 
ATOM     12  C   UNL     1       3.706   3.062  19.372  0.00  0.00    +0.000 C 
ATOM     13  C   UNL     1       4.541   2.528  20.544  0.00  0.00    +0.000 C 
ATOM     14 BR   UNL     1       3.482   1.529  18.099  0.00  0.00    +0.000 Br
ENDROOT
BRANCH   1  16
ATOM     15  C   UNL     1       3.268   8.133  17.760  0.00  0.00    +0.000 C 
ATOM     16  O   UNL     1       3.767   7.197  16.809  0.00  0.00    +0.000 OA
ENDBRANCH   1  16
BRANCH  10  17
ATOM     17  O   UNL     1       1.546   2.451  20.330  0.00  0.00    +0.000 OA
ATOM     18  C   UNL     1       1.260   2.479  21.719  0.00  0.00    +0.000 C 
ENDBRANCH  10  17
TORSDOF 2
ENDMDL
MODEL 6
REMARK VINA RESULT:      -5.8      2.511      5.274
REMARK  Name = 
REMARK  6 active torsions:
REMARK  status: ('A' for Active; 'I' for Inactive)
REMARK    1  A    between atoms: C_1  and  O_2
REMARK    2  A    between atoms: O_2  and  C_3
REMARK    3  A    between atoms: C_12  and  C_13
REMARK    4  A    between atoms: C_12  and  O_14
REMARK    5  A    between atoms: O_14  and  C_15
REMARK    6  A    between atoms: C_16  and  C_17
REMARK                            x       y       z     vdW  Elec       q    Type
REMARK                         _______ _______ _______ _____ _____    ______ ____
ROOT
ATOM      1  C   UNL     1       3.183   4.635  19.385  0.00  0.00    +0.000 A 
ATOM      2  C   UNL     1       3.355   3.393  19.863  0.00  0.00    +0.000 A 
ATOM      3  C   UNL     1       4.647   2.700  19.743  0.00  0.00    +0.000 A 
ATOM      4  O   UNL     1       4.778   1.562  20.186  0.00  0.00    +0.000 OA
ATOM      5  O   UNL     1       5.651   3.359  19.101  0.00  0.00    +0.000 OA
ATOM      6  C   UNL     1       5.463   4.677  18.620  0.00  0.00    +0.000 A 
ATOM      7  C   UNL     1       4.295   5.324  18.756  0.00  0.00    +0.000 A 
ATOM      8  C   UNL     1       4.108   6.738  18.263  0.00  0.00    +0.000 C 
ATOM      9  O   UNL     1       5.318   7.365  17.815  0.00  0.00    +0.000 OA
ATOM     10  C   UNL     1       6.184   6.523  17.035  0.00  0.00    +0.000 C 
ATOM     11  C   UNL     1       5.458   6.061  15.750  0.00  0.00    +0.000 C 
ATOM     12  C   UNL     1       6.647   5.305  17.918  0.00  0.00    +0.000 C 
ATOM     13  C   UNL     1       7.498   4.295  17.135  0.00  0.00    +0.000 C 
ATOM     14 BR   UNL     1       7.802   5.967  19.418  0.00  0.00    +0.000 Br
ENDROOT
BRANCH   1  16
ATOM     15  C   UNL     1       1.539   5.825  20.663  0.00  0.00    +0.000 C 
ATOM     16  O   UNL     1       2.014   5.360  19.403  0.00  0.00    +0.000 OA
ENDBRANCH   1  16
BRANCH  10  17
ATOM     17  O   UNL     1       7.364   7.255  16.639  0.00  0.00    +0.000 OA
ATOM     18  C   UNL     1       7.652   8.414  17.405  0.00  0.00    +0.000 C 
ENDBRANCH  10  17
TORSDOF 2
ENDMDL
MODEL 7
REMARK VINA RESULT:      -5.7      2.172      2.564
REMARK  Name = 
REMARK  6 active torsions:
REMARK  status: ('A' for Active; 'I' for Inactive)
REMARK    1  A    between atoms: C_1  and  O_2
REMARK    2  A    between atoms: O_2  and  C_3
REMARK    3  A    between atoms: C_12  and  C_13
REMARK    4  A    between atoms: C_12  and  O_14
REMARK    5  A    between atoms: O_14  and  C_15
REMARK    6  A    between atoms: C_16  and  C_17
REMARK                            x       y       z     vdW  Elec       q    Type
REMARK                         _______ _______ _______ _____ _____    ______ ____
ROOT
ATOM      1  C   UNL     1       6.491   6.743  17.554  0.00  0.00    +0.000 A 
ATOM      2  C   UNL     1       7.625   6.027  17.591  0.00  0.00    +0.000 A 
ATOM      3  C   UNL     1       7.615   4.595  17.929  0.00  0.00    +0.000 A 
ATOM      4  O   UNL     1       8.666   3.963  17.959  0.00  0.00    +0.000 OA
ATOM      5  O   UNL     1       6.411   4.034  18.230  0.00  0.00    +0.000 OA
ATOM      6  C   UNL     1       5.218   4.795  18.166  0.00  0.00    +0.000 A 
ATOM      7  C   UNL     1       5.222   6.095  17.828  0.00  0.00    +0.000 A 
ATOM      8  C   UNL     1       3.945   6.895  17.739  0.00  0.00    +0.000 C 
ATOM      9  O   UNL     1       2.753   6.108  17.867  0.00  0.00    +0.000 OA
ATOM     10  C   UNL     1       2.802   5.092  18.884  0.00  0.00    +0.000 C 
ATOM     11  C   UNL     1       3.021   5.741  20.271  0.00  0.00    +0.000 C 
ATOM     12  C   UNL     1       3.943   4.067  18.529  0.00  0.00    +0.000 C 
ATOM     13  C   UNL     1       4.138   2.999  19.614  0.00  0.00    +0.000 C 
ATOM     14 BR   UNL     1       3.457   3.080  16.852  0.00  0.00    +0.000 Br
ENDROOT
BRANCH   1  16
ATOM     15  C   UNL     1       7.524   8.908  17.549  0.00  0.00    +0.000 C 
ATOM     16  O   UNL     1       6.386   8.090  17.294  0.00  0.00    +0.000 OA
ENDBRANCH   1  16
BRANCH  10  17
ATOM     17  O   UNL     1       1.554   4.368  18.924  0.00  0.00    +0.000 OA
ATOM     18  C   UNL     1       0.954   4.252  20.205  0.00  0.00    +0.000 C 
ENDBRANCH  10  17
TORSDOF 2
ENDMDL
MODEL 8
REMARK VINA RESULT:      -5.7      2.033      5.467
REMARK  Name = 
REMARK  6 active torsions:
REMARK  status: ('A' for Active; 'I' for Inactive)
REMARK    1  A    between atoms: C_1  and  O_2
REMARK    2  A    between atoms: O_2  and  C_3
REMARK    3  A    between atoms: C_12  and  C_13
REMARK    4  A    between atoms: C_12  and  O_14
REMARK    5  A    between atoms: O_14  and  C_15
REMARK    6  A    between atoms: C_16  and  C_17
REMARK                            x       y       z     vdW  Elec       q    Type
REMARK                         _______ _______ _______ _____ _____    ______ ____
ROOT
ATOM      1  C   UNL     1       3.090   4.037  18.572  0.00  0.00    +0.000 A 
ATOM      2  C   UNL     1       2.456   4.971  19.297  0.00  0.00    +0.000 A 
ATOM      3  C   UNL     1       2.847   6.388  19.226  0.00  0.00    +0.000 A 
ATOM      4  O   UNL     1       2.254   7.224  19.901  0.00  0.00    +0.000 OA
ATOM      5  O   UNL     1       3.896   6.706  18.417  0.00  0.00    +0.000 OA
ATOM      6  C   UNL     1       4.542   5.714  17.642  0.00  0.00    +0.000 A 
ATOM      7  C   UNL     1       4.167   4.425  17.681  0.00  0.00    +0.000 A 
ATOM      8  C   UNL     1       4.845   3.375  16.833  0.00  0.00    +0.000 C 
ATOM      9  O   UNL     1       5.774   3.906  15.878  0.00  0.00    +0.000 OA
ATOM     10  C   UNL     1       6.608   4.969  16.369  0.00  0.00    +0.000 C 
ATOM     11  C   UNL     1       7.471   4.463  17.549  0.00  0.00    +0.000 C 
ATOM     12  C   UNL     1       5.698   6.184  16.787  0.00  0.00    +0.000 C 
ATOM     13  C   UNL     1       6.497   7.333  17.419  0.00  0.00    +0.000 C 
ATOM     14 BR   UNL     1       4.814   6.948  15.157  0.00  0.00    +0.000 Br
ENDROOT
BRANCH   1  16
ATOM     15  C   UNL     1       1.539   2.253  18.977  0.00  0.00    +0.000 C 
ATOM     16  O   UNL     1       2.840   2.684  18.590  0.00  0.00    +0.000 OA
ENDBRANCH   1  16
BRANCH  10  17
ATOM     17  O   UNL     1       7.501   5.423  15.329  0.00  0.00    +0.000 OA
ATOM     18  C   UNL     1       7.333   4.801  14.065  0.00  0.00    +0.000 C 
ENDBRANCH  10  17
TORSDOF 2
ENDMDL
MODEL 9
REMARK VINA RESULT:      -5.5      8.928     11.203
REMARK  Name = 
REMARK  6 active torsions:
REMARK  status: ('A' for Active; 'I' for Inactive)
REMARK    1  A    between atoms: C_1  and  O_2
REMARK    2  A    between atoms: O_2  and  C_3
REMARK    3  A    between atoms: C_12  and  C_13
REMARK    4  A    between atoms: C_12  and  O_14
REMARK    5  A    between atoms: O_14  and  C_15
REMARK    6  A    between atoms: C_16  and  C_17
REMARK                            x       y       z     vdW  Elec       q    Type
REMARK                         _______ _______ _______ _____ _____    ______ ____
ROOT
ATOM      1  C   UNL     1       7.946  14.138  21.800  0.00  0.00    +0.000 A 
ATOM      2  C   UNL     1       7.705  13.273  22.798  0.00  0.00    +0.000 A 
ATOM      3  C   UNL     1       8.190  11.886  22.741  0.00  0.00    +0.000 A 
ATOM      4  O   UNL     1       7.954  11.113  23.665  0.00  0.00    +0.000 OA
ATOM      5  O   UNL     1       8.869  11.508  21.622  0.00  0.00    +0.000 OA
ATOM      6  C   UNL     1       9.135  12.436  20.585  0.00  0.00    +0.000 A 
ATOM      7  C   UNL     1       8.720  13.711  20.650  0.00  0.00    +0.000 A 
ATOM      8  C   UNL     1       9.027  14.702  19.553  0.00  0.00    +0.000 C 
ATOM      9  O   UNL     1       9.934  14.208  18.557  0.00  0.00    +0.000 OA
ATOM     10  C   UNL     1       9.704  12.849  18.147  0.00  0.00    +0.000 C 
ATOM     11  C   UNL     1       8.294  12.715  17.525  0.00  0.00    +0.000 C 
ATOM     12  C   UNL     1       9.890  11.900  19.389  0.00  0.00    +0.000 C 
ATOM     13  C   UNL     1       9.564  10.434  19.069  0.00  0.00    +0.000 C 
ATOM     14 BR   UNL     1      11.808  11.932  19.974  0.00  0.00    +0.000 Br
ENDROOT
BRANCH   1  16
ATOM     15  C   UNL     1       6.153  15.706  22.080  0.00  0.00    +0.000 C 
ATOM     16  O   UNL     1       7.507  15.440  21.727  0.00  0.00    +0.000 OA
ENDBRANCH   1  16
BRANCH  10  17
ATOM     17  O   UNL     1      10.669  12.461  17.146  0.00  0.00    +0.000 OA
ATOM     18  C   UNL     1      11.434  13.519  16.590  0.00  0.00    +0.000 C 
ENDBRANCH  10  17
TORSDOF 2
ENDMDL
