MODEL 1
REMARK VINA RESULT:      -7.7      0.000      0.000
REMARK  Name = 
REMARK  5 active torsions:
REMARK  status: ('A' for Active; 'I' for Inactive)
REMARK    1  A    between atoms: C_2  and  O_14
REMARK    2  A    between atoms: C_4  and  C_6
REMARK    3  A    between atoms: O_14  and  C_15
REMARK    4  A    between atoms: C_15  and  C_16
REMARK    5  A    between atoms: C_19  and  C_20
REMARK                            x       y       z     vdW  Elec       q    Type
REMARK                         _______ _______ _______ _____ _____    ______ ____
ROOT
ATOM      1  O   UNL     1       3.926   0.614  18.645  0.00  0.00    +0.000 OA
ATOM      2  C   UNL     1       3.540   1.655  18.121  0.00  0.00    +0.000 C 
ATOM      3  N   UNL     1       4.436   2.632  17.736  0.00  0.00    +0.000 N 
ATOM      4  C   UNL     1       4.148   3.825  17.094  0.00  0.00    +0.000 C 
ATOM      5  O   UNL     1       3.035   4.146  16.697  0.00  0.00    +0.000 OA
ATOM      6  H   UNL     1       5.383   2.432  18.023  0.00  0.00    +0.000 HD
ENDROOT
BRANCH   4   7
ATOM      7  C   UNL     1       5.269   4.783  16.866  0.00  0.00    +0.000 A 
ATOM      8  C   UNL     1       5.829   5.466  17.966  0.00  0.00    +0.000 A 
ATOM      9 CL   UNL     1       5.121   5.487  19.548  0.00  0.00    +0.000 Cl
ATOM     10  C   UNL     1       6.996   6.230  17.819  0.00  0.00    +0.000 A 
ATOM     11  C   UNL     1       7.609   6.347  16.578  0.00  0.00    +0.000 A 
ATOM     12  C   UNL     1       7.044   5.717  15.475  0.00  0.00    +0.000 A 
ATOM     13  C   UNL     1       5.884   4.936  15.611  0.00  0.00    +0.000 A 
ATOM     14 CL   UNL     1       5.315   4.175  14.165  0.00  0.00    +0.000 Cl
ENDBRANCH   4   7
BRANCH   2  15
ATOM     15  O   UNL     1       2.251   1.963  17.861  0.00  0.00    +0.000 OA
BRANCH  15  16
ATOM     16  C   UNL     1       1.319   1.962  18.949  0.00  0.00    +0.000 C 
BRANCH  16  17
ATOM     17  C   UNL     1       1.658   3.104  19.838  0.00  0.00    +0.000 A 
ATOM     18  C   UNL     1       2.129   3.172  21.133  0.00  0.00    +0.000 A 
ATOM     19  C   UNL     1       2.227   4.547  21.450  0.00  0.00    +0.000 A 
ATOM     20  C   UNL     1       1.835   5.250  20.326  0.00  0.00    +0.000 A 
ATOM     21  O   UNL     1       1.474   4.367  19.344  0.00  0.00    +0.000 OA
BRANCH  20  22
ATOM     22  C   UNL     1       1.759   6.674  20.006  0.00  0.00    +0.000 A 
ATOM     23  C   UNL     1       1.219   7.597  20.914  0.00  0.00    +0.000 A 
ATOM     24  C   UNL     1       1.076   8.946  20.567  0.00  0.00    +0.000 A 
ATOM     25  C   UNL     1       1.482   9.385  19.309  0.00  0.00    +0.000 A 
ATOM     26 BR   UNL     1       1.258  11.198  18.824  0.00  0.00    +0.000 Br
ATOM     27  C   UNL     1       2.042   8.491  18.401  0.00  0.00    +0.000 A 
ATOM     28  C   UNL     1       2.177   7.143  18.749  0.00  0.00    +0.000 A 
ENDBRANCH  20  22
ENDBRANCH  16  17
ENDBRANCH  15  16
ENDBRANCH   2  15
TORSDOF 5
ENDMDL
MODEL 2
REMARK VINA RESULT:      -7.7      4.122      6.947
REMARK  Name = 
REMARK  5 active torsions:
REMARK  status: ('A' for Active; 'I' for Inactive)
REMARK    1  A    between atoms: C_2  and  O_14
REMARK    2  A    between atoms: C_4  and  C_6
REMARK    3  A    between atoms: O_14  and  C_15
REMARK    4  A    between atoms: C_15  and  C_16
REMARK    5  A    between atoms: C_19  and  C_20
REMARK                            x       y       z     vdW  Elec       q    Type
REMARK                         _______ _______ _______ _____ _____    ______ ____
ROOT
ATOM      1  O   UNL     1       5.161   4.420  14.874  0.00  0.00    +0.000 OA
ATOM      2  C   UNL     1       5.248   4.689  16.068  0.00  0.00    +0.000 C 
ATOM      3  N   UNL     1       4.273   4.289  16.961  0.00  0.00    +0.000 N 
ATOM      4  C   UNL     1       4.266   4.477  18.333  0.00  0.00    +0.000 C 
ATOM      5  O   UNL     1       5.190   4.970  18.968  0.00  0.00    +0.000 OA
ATOM      6  H   UNL     1       3.477   3.862  16.508  0.00  0.00    +0.000 HD
ENDROOT
BRANCH   4   7
ATOM      7  C   UNL     1       3.054   4.050  19.090  0.00  0.00    +0.000 A 
ATOM      8  C   UNL     1       2.790   2.673  19.252  0.00  0.00    +0.000 A 
ATOM      9 CL   UNL     1       3.626   1.424  18.388  0.00  0.00    +0.000 Cl
ATOM     10  C   UNL     1       1.769   2.233  20.107  0.00  0.00    +0.000 A 
ATOM     11  C   UNL     1       0.983   3.150  20.795  0.00  0.00    +0.000 A 
ATOM     12  C   UNL     1       1.201   4.511  20.611  0.00  0.00    +0.000 A 
ATOM     13  C   UNL     1       2.230   4.965  19.769  0.00  0.00    +0.000 A 
ATOM     14 CL   UNL     1       2.416   6.682  19.667  0.00  0.00    +0.000 Cl
ENDBRANCH   4   7
BRANCH   2  15
ATOM     15  O   UNL     1       6.261   5.377  16.640  0.00  0.00    +0.000 OA
BRANCH  15  16
ATOM     16  C   UNL     1       6.380   6.775  16.353  0.00  0.00    +0.000 C 
BRANCH  16  17
ATOM     17  C   UNL     1       7.296   7.369  17.362  0.00  0.00    +0.000 A 
ATOM     18  C   UNL     1       7.929   6.847  18.471  0.00  0.00    +0.000 A 
ATOM     19  C   UNL     1       8.648   7.914  19.058  0.00  0.00    +0.000 A 
ATOM     20  C   UNL     1       8.438   9.028  18.267  0.00  0.00    +0.000 A 
ATOM     21  O   UNL     1       7.599   8.697  17.236  0.00  0.00    +0.000 OA
BRANCH  20  22
ATOM     22  C   UNL     1       8.931  10.403  18.313  0.00  0.00    +0.000 A 
ATOM     23  C   UNL     1      10.061  10.747  19.069  0.00  0.00    +0.000 A 
ATOM     24  C   UNL     1      10.479  12.079  19.173  0.00  0.00    +0.000 A 
ATOM     25  C   UNL     1       9.771  13.080  18.511  0.00  0.00    +0.000 A 
ATOM     26 BR   UNL     1      10.310  14.884  18.676  0.00  0.00    +0.000 Br
ATOM     27  C   UNL     1       8.660  12.759  17.736  0.00  0.00    +0.000 A 
ATOM     28  C   UNL     1       8.243  11.427  17.641  0.00  0.00    +0.000 A 
ENDBRANCH  20  22
ENDBRANCH  16  17
ENDBRANCH  15  16
ENDBRANCH   2  15
TORSDOF 5
ENDMDL
MODEL 3
REMARK VINA RESULT:      -7.3      0.285      2.015
REMARK  Name = 
REMARK  5 active torsions:
REMARK  status: ('A' for Active; 'I' for Inactive)
REMARK    1  A    between atoms: C_2  and  O_14
REMARK    2  A    between atoms: C_4  and  C_6
REMARK    3  A    between atoms: O_14  and  C_15
REMARK    4  A    between atoms: C_15  and  C_16
REMARK    5  A    between atoms: C_19  and  C_20
REMARK                            x       y       z     vdW  Elec       q    Type
REMARK                         _______ _______ _______ _____ _____    ______ ____
ROOT
ATOM      1  O   UNL     1       3.825   0.606  18.816  0.00  0.00    +0.000 OA
ATOM      2  C   UNL     1       3.516   1.625  18.206  0.00  0.00    +0.000 C 
ATOM      3  N   UNL     1       4.469   2.560  17.854  0.00  0.00    +0.000 N 
ATOM      4  C   UNL     1       4.272   3.722  17.127  0.00  0.00    +0.000 C 
ATOM      5  O   UNL     1       3.208   4.046  16.616  0.00  0.00    +0.000 OA
ATOM      6  H   UNL     1       5.381   2.354  18.235  0.00  0.00    +0.000 HD
ENDROOT
BRANCH   4   7
ATOM      7  C   UNL     1       5.435   4.641  16.952  0.00  0.00    +0.000 A 
ATOM      8  C   UNL     1       6.044   4.751  15.684  0.00  0.00    +0.000 A 
ATOM      9 CL   UNL     1       5.720   3.677  14.363  0.00  0.00    +0.000 Cl
ATOM     10  C   UNL     1       7.014   5.733  15.436  0.00  0.00    +0.000 A 
ATOM     11  C   UNL     1       7.408   6.604  16.445  0.00  0.00    +0.000 A 
ATOM     12  C   UNL     1       6.850   6.479  17.712  0.00  0.00    +0.000 A 
ATOM     13  C   UNL     1       5.867   5.509  17.970  0.00  0.00    +0.000 A 
ATOM     14 CL   UNL     1       5.228   5.494  19.579  0.00  0.00    +0.000 Cl
ENDBRANCH   4   7
BRANCH   2  15
ATOM     15  O   UNL     1       2.264   1.948  17.816  0.00  0.00    +0.000 OA
BRANCH  15  16
ATOM     16  C   UNL     1       1.252   2.081  18.820  0.00  0.00    +0.000 C 
BRANCH  16  17
ATOM     17  C   UNL     1       1.603   3.251  19.667  0.00  0.00    +0.000 A 
ATOM     18  C   UNL     1       2.097   3.361  20.951  0.00  0.00    +0.000 A 
ATOM     19  C   UNL     1       2.197   4.745  21.222  0.00  0.00    +0.000 A 
ATOM     20  C   UNL     1       1.783   5.411  20.084  0.00  0.00    +0.000 A 
ATOM     21  O   UNL     1       1.407   4.497  19.137  0.00  0.00    +0.000 OA
BRANCH  20  22
ATOM     22  C   UNL     1       1.698   6.825  19.721  0.00  0.00    +0.000 A 
ATOM     23  C   UNL     1       2.198   7.295  18.498  0.00  0.00    +0.000 A 
ATOM     24  C   UNL     1       2.185   8.662  18.194  0.00  0.00    +0.000 A 
ATOM     25  C   UNL     1       1.661   9.570  19.111  0.00  0.00    +0.000 A 
ATOM     26 BR   UNL     1       1.672  11.419  18.719  0.00  0.00    +0.000 Br
ATOM     27  C   UNL     1       1.137   9.124  20.320  0.00  0.00    +0.000 A 
ATOM     28  C   UNL     1       1.158   7.758  20.623  0.00  0.00    +0.000 A 
ENDBRANCH  20  22
ENDBRANCH  16  17
ENDBRANCH  15  16
ENDBRANCH   2  15
TORSDOF 5
ENDMDL
MODEL 4
REMARK VINA RESULT:      -7.3      3.759      6.598
REMARK  Name = 
REMARK  5 active torsions:
REMARK  status: ('A' for Active; 'I' for Inactive)
REMARK    1  A    between atoms: C_2  and  O_14
REMARK    2  A    between atoms: C_4  and  C_6
REMARK    3  A    between atoms: O_14  and  C_15
REMARK    4  A    between atoms: C_15  and  C_16
REMARK    5  A    between atoms: C_19  and  C_20
REMARK                            x       y       z     vdW  Elec       q    Type
REMARK                         _______ _______ _______ _____ _____    ______ ____
ROOT
ATOM      1  O   UNL     1       5.062   4.373  14.359  0.00  0.00    +0.000 OA
ATOM      2  C   UNL     1       5.289   4.384  15.565  0.00  0.00    +0.000 C 
ATOM      3  N   UNL     1       4.287   4.130  16.480  0.00  0.00    +0.000 N 
ATOM      4  C   UNL     1       4.409   4.061  17.858  0.00  0.00    +0.000 C 
ATOM      5  O   UNL     1       5.472   4.140  18.463  0.00  0.00    +0.000 OA
ATOM      6  H   UNL     1       3.376   4.044  16.052  0.00  0.00    +0.000 HD
ENDROOT
BRANCH   4   7
ATOM      7  C   UNL     1       3.166   3.875  18.661  0.00  0.00    +0.000 A 
ATOM      8  C   UNL     1       2.829   2.586  19.126  0.00  0.00    +0.000 A 
ATOM      9 CL   UNL     1       3.612   1.135  18.592  0.00  0.00    +0.000 Cl
ATOM     10  C   UNL     1       1.775   2.402  20.032  0.00  0.00    +0.000 A 
ATOM     11  C   UNL     1       1.027   3.488  20.472  0.00  0.00    +0.000 A 
ATOM     12  C   UNL     1       1.317   4.758  19.989  0.00  0.00    +0.000 A 
ATOM     13  C   UNL     1       2.380   4.959  19.092  0.00  0.00    +0.000 A 
ATOM     14 CL   UNL     1       2.656   6.596  18.606  0.00  0.00    +0.000 Cl
ENDBRANCH   4   7
BRANCH   2  15
ATOM     15  O   UNL     1       6.492   4.631  16.128  0.00  0.00    +0.000 OA
BRANCH  15  16
ATOM     16  C   UNL     1       7.179   5.834  15.763  0.00  0.00    +0.000 C 
BRANCH  16  17
ATOM     17  C   UNL     1       7.596   6.516  17.016  0.00  0.00    +0.000 A 
ATOM     18  C   UNL     1       7.780   6.069  18.308  0.00  0.00    +0.000 A 
ATOM     19  C   UNL     1       8.151   7.199  19.073  0.00  0.00    +0.000 A 
ATOM     20  C   UNL     1       8.199   8.275  18.206  0.00  0.00    +0.000 A 
ATOM     21  O   UNL     1       7.846   7.861  16.950  0.00  0.00    +0.000 OA
BRANCH  20  22
ATOM     22  C   UNL     1       8.554   9.684  18.371  0.00  0.00    +0.000 A 
ATOM     23  C   UNL     1       7.967  10.681  17.578  0.00  0.00    +0.000 A 
ATOM     24  C   UNL     1       8.373  12.017  17.687  0.00  0.00    +0.000 A 
ATOM     25  C   UNL     1       9.365  12.367  18.599  0.00  0.00    +0.000 A 
ATOM     26 BR   UNL     1       9.939  14.164  18.725  0.00  0.00    +0.000 Br
ATOM     27  C   UNL     1       9.944  11.398  19.413  0.00  0.00    +0.000 A 
ATOM     28  C   UNL     1       9.541  10.064  19.296  0.00  0.00    +0.000 A 
ENDBRANCH  20  22
ENDBRANCH  16  17
ENDBRANCH  15  16
ENDBRANCH   2  15
TORSDOF 5
ENDMDL
MODEL 5
REMARK VINA RESULT:      -7.3      4.472      6.545
REMARK  Name = 
REMARK  5 active torsions:
REMARK  status: ('A' for Active; 'I' for Inactive)
REMARK    1  A    between atoms: C_2  and  O_14
REMARK    2  A    between atoms: C_4  and  C_6
REMARK    3  A    between atoms: O_14  and  C_15
REMARK    4  A    between atoms: C_15  and  C_16
REMARK    5  A    between atoms: C_19  and  C_20
REMARK                            x       y       z     vdW  Elec       q    Type
REMARK                         _______ _______ _______ _____ _____    ______ ____
ROOT
ATOM      1  O   UNL     1       2.208   9.301  17.334  0.00  0.00    +0.000 OA
ATOM      2  C   UNL     1       2.053   8.521  18.268  0.00  0.00    +0.000 C 
ATOM      3  N   UNL     1       2.495   7.216  18.187  0.00  0.00    +0.000 N 
ATOM      4  C   UNL     1       2.432   6.247  19.175  0.00  0.00    +0.000 C 
ATOM      5  O   UNL     1       2.036   6.449  20.316  0.00  0.00    +0.000 OA
ATOM      6  H   UNL     1       2.846   6.976  17.271  0.00  0.00    +0.000 HD
ENDROOT
BRANCH   4   7
ATOM      7  C   UNL     1       2.879   4.867  18.829  0.00  0.00    +0.000 A 
ATOM      8  C   UNL     1       2.052   3.771  19.155  0.00  0.00    +0.000 A 
ATOM      9 CL   UNL     1       0.667   3.884  20.190  0.00  0.00    +0.000 Cl
ATOM     10  C   UNL     1       2.349   2.483  18.686  0.00  0.00    +0.000 A 
ATOM     11  C   UNL     1       3.479   2.260  17.909  0.00  0.00    +0.000 A 
ATOM     12  C   UNL     1       4.328   3.321  17.616  0.00  0.00    +0.000 A 
ATOM     13  C   UNL     1       4.035   4.619  18.067  0.00  0.00    +0.000 A 
ATOM     14 CL   UNL     1       5.154   5.851  17.595  0.00  0.00    +0.000 Cl
ENDBRANCH   4   7
BRANCH   2  15
ATOM     15  O   UNL     1       1.461   8.824  19.445  0.00  0.00    +0.000 OA
BRANCH  15  16
ATOM     16  C   UNL     1       0.570   9.945  19.489  0.00  0.00    +0.000 C 
BRANCH  16  17
ATOM     17  C   UNL     1       0.052  10.059  20.877  0.00  0.00    +0.000 A 
ATOM     18  C   UNL     1       0.064   9.196  21.953  0.00  0.00    +0.000 A 
ATOM     19  C   UNL     1      -0.616   9.856  23.002  0.00  0.00    +0.000 A 
ATOM     20  C   UNL     1      -0.989  11.098  22.524  0.00  0.00    +0.000 A 
ATOM     21  O   UNL     1      -0.592  11.217  21.219  0.00  0.00    +0.000 OA
BRANCH  20  22
ATOM     22  C   UNL     1      -1.669  12.245  23.123  0.00  0.00    +0.000 A 
ATOM     23  C   UNL     1      -2.987  12.146  23.593  0.00  0.00    +0.000 A 
ATOM     24  C   UNL     1      -3.658  13.270  24.091  0.00  0.00    +0.000 A 
ATOM     25  C   UNL     1      -3.010  14.502  24.132  0.00  0.00    +0.000 A 
ATOM     26 BR   UNL     1      -3.924  16.028  24.771  0.00  0.00    +0.000 Br
ATOM     27  C   UNL     1      -1.694  14.618  23.693  0.00  0.00    +0.000 A 
ATOM     28  C   UNL     1      -1.030  13.494  23.190  0.00  0.00    +0.000 A 
ENDBRANCH  20  22
ENDBRANCH  16  17
ENDBRANCH  15  16
ENDBRANCH   2  15
TORSDOF 5
ENDMDL
MODEL 6
REMARK VINA RESULT:      -6.9      4.905      6.956
REMARK  Name = 
REMARK  5 active torsions:
REMARK  status: ('A' for Active; 'I' for Inactive)
REMARK    1  A    between atoms: C_2  and  O_14
REMARK    2  A    between atoms: C_4  and  C_6
REMARK    3  A    between atoms: O_14  and  C_15
REMARK    4  A    between atoms: C_15  and  C_16
REMARK    5  A    between atoms: C_19  and  C_20
REMARK                            x       y       z     vdW  Elec       q    Type
REMARK                         _______ _______ _______ _____ _____    ______ ____
ROOT
ATOM      1  O   UNL     1       1.204   8.740  21.804  0.00  0.00    +0.000 OA
ATOM      2  C   UNL     1       1.479   8.334  20.679  0.00  0.00    +0.000 C 
ATOM      3  N   UNL     1       2.020   7.077  20.489  0.00  0.00    +0.000 N 
ATOM      4  C   UNL     1       2.331   6.474  19.282  0.00  0.00    +0.000 C 
ATOM      5  O   UNL     1       2.087   6.958  18.184  0.00  0.00    +0.000 OA
ATOM      6  H   UNL     1       2.241   6.610  21.356  0.00  0.00    +0.000 HD
ENDROOT
BRANCH   4   7
ATOM      7  C   UNL     1       3.006   5.144  19.320  0.00  0.00    +0.000 A 
ATOM      8  C   UNL     1       4.345   5.037  18.887  0.00  0.00    +0.000 A 
ATOM      9 CL   UNL     1       5.188   6.293  18.041  0.00  0.00    +0.000 Cl
ATOM     10  C   UNL     1       5.068   3.850  19.078  0.00  0.00    +0.000 A 
ATOM     11  C   UNL     1       4.469   2.749  19.678  0.00  0.00    +0.000 A 
ATOM     12  C   UNL     1       3.137   2.825  20.069  0.00  0.00    +0.000 A 
ATOM     13  C   UNL     1       2.406   4.012  19.897  0.00  0.00    +0.000 A 
ATOM     14 CL   UNL     1       0.772   3.979  20.467  0.00  0.00    +0.000 Cl
ENDBRANCH   4   7
BRANCH   2  15
ATOM     15  O   UNL     1       1.296   9.027  19.534  0.00  0.00    +0.000 OA
BRANCH  15  16
ATOM     16  C   UNL     1       0.724  10.338  19.618  0.00  0.00    +0.000 C 
BRANCH  16  17
ATOM     17  C   UNL     1      -0.483  10.363  18.751  0.00  0.00    +0.000 A 
ATOM     18  C   UNL     1      -0.786   9.750  17.553  0.00  0.00    +0.000 A 
ATOM     19  C   UNL     1      -2.085  10.187  17.199  0.00  0.00    +0.000 A 
ATOM     20  C   UNL     1      -2.519  11.024  18.209  0.00  0.00    +0.000 A 
ATOM     21  O   UNL     1      -1.534  11.143  19.153  0.00  0.00    +0.000 OA
BRANCH  20  22
ATOM     22  C   UNL     1      -3.767  11.745  18.451  0.00  0.00    +0.000 A 
ATOM     23  C   UNL     1      -3.956  12.508  19.613  0.00  0.00    +0.000 A 
ATOM     24  C   UNL     1      -5.183  13.129  19.873  0.00  0.00    +0.000 A 
ATOM     25  C   UNL     1      -6.232  12.998  18.966  0.00  0.00    +0.000 A 
ATOM     26 BR   UNL     1      -7.901  13.806  19.332  0.00  0.00    +0.000 Br
ATOM     27  C   UNL     1      -6.061  12.266  17.795  0.00  0.00    +0.000 A 
ATOM     28  C   UNL     1      -4.834  11.641  17.542  0.00  0.00    +0.000 A 
ENDBRANCH  20  22
ENDBRANCH  16  17
ENDBRANCH  15  16
ENDBRANCH   2  15
TORSDOF 5
ENDMDL
MODEL 7
REMARK VINA RESULT:      -6.8      4.124      7.186
REMARK  Name = 
REMARK  5 active torsions:
REMARK  status: ('A' for Active; 'I' for Inactive)
REMARK    1  A    between atoms: C_2  and  O_14
REMARK    2  A    between atoms: C_4  and  C_6
REMARK    3  A    between atoms: O_14  and  C_15
REMARK    4  A    between atoms: C_15  and  C_16
REMARK    5  A    between atoms: C_19  and  C_20
REMARK                            x       y       z     vdW  Elec       q    Type
REMARK                         _______ _______ _______ _____ _____    ______ ____
ROOT
ATOM      1  O   UNL     1       8.396   4.025  17.906  0.00  0.00    +0.000 OA
ATOM      2  C   UNL     1       7.477   4.633  18.446  0.00  0.00    +0.000 C 
ATOM      3  N   UNL     1       6.220   4.071  18.554  0.00  0.00    +0.000 N 
ATOM      4  C   UNL     1       5.111   4.617  19.179  0.00  0.00    +0.000 C 
ATOM      5  O   UNL     1       5.118   5.669  19.806  0.00  0.00    +0.000 OA
ATOM      6  H   UNL     1       6.139   3.192  18.065  0.00  0.00    +0.000 HD
ENDROOT
BRANCH   4   7
ATOM      7  C   UNL     1       3.820   3.875  19.083  0.00  0.00    +0.000 A 
ATOM      8  C   UNL     1       2.720   4.480  18.440  0.00  0.00    +0.000 A 
ATOM      9 CL   UNL     1       2.669   6.154  17.991  0.00  0.00    +0.000 Cl
ATOM     10  C   UNL     1       1.554   3.749  18.170  0.00  0.00    +0.000 A 
ATOM     11  C   UNL     1       1.454   2.417  18.552  0.00  0.00    +0.000 A 
ATOM     12  C   UNL     1       2.512   1.819  19.227  0.00  0.00    +0.000 A 
ATOM     13  C   UNL     1       3.691   2.535  19.491  0.00  0.00    +0.000 A 
ATOM     14 CL   UNL     1       4.942   1.655  20.300  0.00  0.00    +0.000 Cl
ENDBRANCH   4   7
BRANCH   2  15
ATOM     15  O   UNL     1       7.570   5.869  18.983  0.00  0.00    +0.000 OA
BRANCH  15  16
ATOM     16  C   UNL     1       7.684   6.988  18.096  0.00  0.00    +0.000 C 
BRANCH  16  17
ATOM     17  C   UNL     1       6.737   6.774  16.971  0.00  0.00    +0.000 A 
ATOM     18  C   UNL     1       5.518   7.336  16.655  0.00  0.00    +0.000 A 
ATOM     19  C   UNL     1       5.079   6.699  15.471  0.00  0.00    +0.000 A 
ATOM     20  C   UNL     1       6.062   5.797  15.110  0.00  0.00    +0.000 A 
ATOM     21  O   UNL     1       7.070   5.832  16.035  0.00  0.00    +0.000 OA
BRANCH  20  22
ATOM     22  C   UNL     1       6.221   4.882  13.981  0.00  0.00    +0.000 A 
ATOM     23  C   UNL     1       5.273   3.885  13.711  0.00  0.00    +0.000 A 
ATOM     24  C   UNL     1       5.475   2.963  12.677  0.00  0.00    +0.000 A 
ATOM     25  C   UNL     1       6.627   3.038  11.896  0.00  0.00    +0.000 A 
ATOM     26 BR   UNL     1       6.919   1.773  10.522  0.00  0.00    +0.000 Br
ATOM     27  C   UNL     1       7.570   4.034  12.131  0.00  0.00    +0.000 A 
ATOM     28  C   UNL     1       7.367   4.949  13.170  0.00  0.00    +0.000 A 
ENDBRANCH  20  22
ENDBRANCH  16  17
ENDBRANCH  15  16
ENDBRANCH   2  15
TORSDOF 5
ENDMDL
MODEL 8
REMARK VINA RESULT:      -6.6      4.820      6.908
REMARK  Name = 
REMARK  5 active torsions:
REMARK  status: ('A' for Active; 'I' for Inactive)
REMARK    1  A    between atoms: C_2  and  O_14
REMARK    2  A    between atoms: C_4  and  C_6
REMARK    3  A    between atoms: O_14  and  C_15
REMARK    4  A    between atoms: C_15  and  C_16
REMARK    5  A    between atoms: C_19  and  C_20
REMARK                            x       y       z     vdW  Elec       q    Type
REMARK                         _______ _______ _______ _____ _____    ______ ____
ROOT
ATOM      1  O   UNL     1       1.649   9.921  17.455  0.00  0.00    +0.000 OA
ATOM      2  C   UNL     1       1.663   9.097  18.365  0.00  0.00    +0.000 C 
ATOM      3  N   UNL     1       2.201   7.840  18.177  0.00  0.00    +0.000 N 
ATOM      4  C   UNL     1       2.330   6.835  19.121  0.00  0.00    +0.000 C 
ATOM      5  O   UNL     1       2.047   6.959  20.306  0.00  0.00    +0.000 OA
ATOM      6  H   UNL     1       2.468   7.666  17.219  0.00  0.00    +0.000 HD
ENDROOT
BRANCH   4   7
ATOM      7  C   UNL     1       2.850   5.512  18.667  0.00  0.00    +0.000 A 
ATOM      8  C   UNL     1       2.162   4.336  19.034  0.00  0.00    +0.000 A 
ATOM      9 CL   UNL     1       0.899   4.289  20.221  0.00  0.00    +0.000 Cl
ATOM     10  C   UNL     1       2.511   3.097  18.479  0.00  0.00    +0.000 A 
ATOM     11  C   UNL     1       3.560   3.003  17.571  0.00  0.00    +0.000 A 
ATOM     12  C   UNL     1       4.276   4.145  17.234  0.00  0.00    +0.000 A 
ATOM     13  C   UNL     1       3.927   5.395  17.771  0.00  0.00    +0.000 A 
ATOM     14 CL   UNL     1       4.876   6.738  17.233  0.00  0.00    +0.000 Cl
ENDBRANCH   4   7
BRANCH   2  15
ATOM     15  O   UNL     1       1.182   9.304  19.610  0.00  0.00    +0.000 OA
BRANCH  15  16
ATOM     16  C   UNL     1       1.110  10.650  20.096  0.00  0.00    +0.000 C 
BRANCH  16  17
ATOM     17  C   UNL     1       0.206  10.659  21.276  0.00  0.00    +0.000 A 
ATOM     18  C   UNL     1       0.152   9.887  22.418  0.00  0.00    +0.000 A 
ATOM     19  C   UNL     1      -0.958  10.352  23.161  0.00  0.00    +0.000 A 
ATOM     20  C   UNL     1      -1.511  11.399  22.450  0.00  0.00    +0.000 A 
ATOM     21  O   UNL     1      -0.808  11.578  21.289  0.00  0.00    +0.000 OA
BRANCH  20  22
ATOM     22  C   UNL     1      -2.629  12.307  22.702  0.00  0.00    +0.000 A 
ATOM     23  C   UNL     1      -2.973  13.311  21.786  0.00  0.00    +0.000 A 
ATOM     24  C   UNL     1      -3.993  14.227  22.073  0.00  0.00    +0.000 A 
ATOM     25  C   UNL     1      -4.684  14.139  23.279  0.00  0.00    +0.000 A 
ATOM     26 BR   UNL     1      -6.037  15.394  23.686  0.00  0.00    +0.000 Br
ATOM     27  C   UNL     1      -4.375  13.136  24.193  0.00  0.00    +0.000 A 
ATOM     28  C   UNL     1      -3.351  12.227  23.905  0.00  0.00    +0.000 A 
ENDBRANCH  20  22
ENDBRANCH  16  17
ENDBRANCH  15  16
ENDBRANCH   2  15
TORSDOF 5
ENDMDL
MODEL 9
REMARK VINA RESULT:      -6.5      3.744      5.437
REMARK  Name = 
REMARK  5 active torsions:
REMARK  status: ('A' for Active; 'I' for Inactive)
REMARK    1  A    between atoms: C_2  and  O_14
REMARK    2  A    between atoms: C_4  and  C_6
REMARK    3  A    between atoms: O_14  and  C_15
REMARK    4  A    between atoms: C_15  and  C_16
REMARK    5  A    between atoms: C_19  and  C_20
REMARK                            x       y       z     vdW  Elec       q    Type
REMARK                         _______ _______ _______ _____ _____    ______ ____
ROOT
ATOM      1  O   UNL     1       1.909   5.491  20.833  0.00  0.00    +0.000 OA
ATOM      2  C   UNL     1       2.395   6.184  19.944  0.00  0.00    +0.000 C 
ATOM      3  N   UNL     1       3.293   5.654  19.039  0.00  0.00    +0.000 N 
ATOM      4  C   UNL     1       3.877   6.301  17.963  0.00  0.00    +0.000 C 
ATOM      5  O   UNL     1       3.606   7.443  17.612  0.00  0.00    +0.000 OA
ATOM      6  H   UNL     1       3.559   4.705  19.259  0.00  0.00    +0.000 HD
ENDROOT
BRANCH   4   7
ATOM      7  C   UNL     1       4.904   5.559  17.175  0.00  0.00    +0.000 A 
ATOM      8  C   UNL     1       4.562   4.324  16.584  0.00  0.00    +0.000 A 
ATOM      9 CL   UNL     1       3.104   3.456  16.941  0.00  0.00    +0.000 Cl
ATOM     10  C   UNL     1       5.436   3.689  15.690  0.00  0.00    +0.000 A 
ATOM     11  C   UNL     1       6.667   4.257  15.387  0.00  0.00    +0.000 A 
ATOM     12  C   UNL     1       7.038   5.451  15.995  0.00  0.00    +0.000 A 
ATOM     13  C   UNL     1       6.166   6.105  16.882  0.00  0.00    +0.000 A 
ATOM     14 CL   UNL     1       6.738   7.602  17.533  0.00  0.00    +0.000 Cl
ENDBRANCH   4   7
BRANCH   2  15
ATOM     15  O   UNL     1       2.124   7.492  19.742  0.00  0.00    +0.000 OA
BRANCH  15  16
ATOM     16  C   UNL     1       1.617   8.259  20.840  0.00  0.00    +0.000 C 
BRANCH  16  17
ATOM     17  C   UNL     1       0.782   9.354  20.282  0.00  0.00    +0.000 A 
ATOM     18  C   UNL     1       0.623   9.850  19.004  0.00  0.00    +0.000 A 
ATOM     19  C   UNL     1      -0.290  10.926  19.105  0.00  0.00    +0.000 A 
ATOM     20  C   UNL     1      -0.661  11.019  20.433  0.00  0.00    +0.000 A 
ATOM     21  O   UNL     1       0.005  10.066  21.156  0.00  0.00    +0.000 OA
BRANCH  20  22
ATOM     22  C   UNL     1      -1.591  11.882  21.160  0.00  0.00    +0.000 A 
ATOM     23  C   UNL     1      -1.734  11.790  22.552  0.00  0.00    +0.000 A 
ATOM     24  C   UNL     1      -2.685  12.563  23.229  0.00  0.00    +0.000 A 
ATOM     25  C   UNL     1      -3.496  13.444  22.516  0.00  0.00    +0.000 A 
ATOM     26 BR   UNL     1      -4.804  14.464  23.422  0.00  0.00    +0.000 Br
ATOM     27  C   UNL     1      -3.355  13.569  21.137  0.00  0.00    +0.000 A 
ATOM     28  C   UNL     1      -2.408  12.789  20.464  0.00  0.00    +0.000 A 
ENDBRANCH  20  22
ENDBRANCH  16  17
ENDBRANCH  15  16
ENDBRANCH   2  15
TORSDOF 5
ENDMDL
