MODEL 1
REMARK VINA RESULT:      -8.7      0.000      0.000
REMARK  Name = 
REMARK  4 active torsions:
REMARK  status: ('A' for Active; 'I' for Inactive)
REMARK    1  A    between atoms: C_1  and  C_2
REMARK    2  A    between atoms: N_7  and  S_8
REMARK    3  A    between atoms: S_8  and  C_11
REMARK    4  A    between atoms: C_14  and  N_15
REMARK                            x       y       z     vdW  Elec       q    Type
REMARK                         _______ _______ _______ _____ _____    ______ ____
ROOT
ATOM      1  C   UNL     1       3.175   5.029  19.140  0.00  0.00    +0.000 A 
ATOM      2  C   UNL     1       3.173   6.104  18.243  0.00  0.00    +0.000 A 
ATOM      3  C   UNL     1       2.520   7.317  18.581  0.00  0.00    +0.000 A 
ATOM      4  C   UNL     1       1.854   7.461  19.808  0.00  0.00    +0.000 A 
ATOM      5  C   UNL     1       1.841   6.329  20.654  0.00  0.00    +0.000 A 
ATOM      6  C   UNL     1       2.486   5.134  20.337  0.00  0.00    +0.000 A 
ENDROOT
BRANCH   4   7
ATOM      7  N   UNL     1       1.193   8.666  20.235  0.00  0.00    +0.000 N 
ATOM      8  S   UNL     1       0.848   8.876  21.923  0.00  0.00    +0.000 S 
ATOM      9  C   UNL     1       0.036  10.392  21.643  0.00  0.00    +0.000 A 
ATOM     10  C   UNL     1      -0.590  11.152  22.617  0.00  0.00    +0.000 A 
ATOM     11  C   UNL     1      -1.214  12.336  22.233  0.00  0.00    +0.000 A 
ATOM     12  C   UNL     1      -1.192  12.735  20.890  0.00  0.00    +0.000 A 
ATOM     13  C   UNL     1      -0.550  11.953  19.914  0.00  0.00    +0.000 A 
ATOM     14  C   UNL     1       0.063  10.768  20.308  0.00  0.00    +0.000 A 
ATOM     15  C   UNL     1       0.772   9.760  19.452  0.00  0.00    +0.000 A 
ATOM     16  O   UNL     1       0.907   9.944  18.251  0.00  0.00    +0.000 OA
ENDBRANCH   4   7
BRANCH   1  17
ATOM     17  S   UNL     1       3.913   3.455  18.737  0.00  0.00    +0.000 S 
ATOM     18  O   UNL     1       3.513   3.118  17.387  0.00  0.00    +0.000 OA
ATOM     19  O   UNL     1       3.590   2.561  19.838  0.00  0.00    +0.000 OA
BRANCH  17  26
ATOM     20  C   UNL     1       7.288   7.918  17.616  0.00  0.00    +0.000 C 
ATOM     21  C   UNL     1       6.987   6.497  17.246  0.00  0.00    +0.000 A 
ATOM     22  C   UNL     1       7.317   6.003  15.997  0.00  0.00    +0.000 A 
ATOM     23  C   UNL     1       6.979   4.691  15.754  0.00  0.00    +0.000 A 
ATOM     24  N   UNL     1       6.360   3.908  16.651  0.00  0.00    +0.000 NA
ATOM     25  C   UNL     1       6.110   4.481  17.825  0.00  0.00    +0.000 A 
ATOM     26  N   UNL     1       5.558   3.700  18.831  0.00  0.00    +0.000 N 
ATOM     27  N   UNL     1       6.388   5.736  18.187  0.00  0.00    +0.000 NA
ATOM     28  H   UNL     1       5.846   4.015  19.749  0.00  0.00    +0.000 HD
ENDBRANCH  17  26
ENDBRANCH   1  17
TORSDOF 3
ENDMDL
MODEL 2
REMARK VINA RESULT:      -8.6      2.127      3.049
REMARK  Name = 
REMARK  4 active torsions:
REMARK  status: ('A' for Active; 'I' for Inactive)
REMARK    1  A    between atoms: C_1  and  C_2
REMARK    2  A    between atoms: N_7  and  S_8
REMARK    3  A    between atoms: S_8  and  C_11
REMARK    4  A    between atoms: C_14  and  N_15
REMARK                            x       y       z     vdW  Elec       q    Type
REMARK                         _______ _______ _______ _____ _____    ______ ____
ROOT
ATOM      1  C   UNL     1       2.249   7.534  19.150  0.00  0.00    +0.000 A 
ATOM      2  C   UNL     1       1.896   8.594  18.307  0.00  0.00    +0.000 A 
ATOM      3  C   UNL     1       1.081   9.650  18.786  0.00  0.00    +0.000 A 
ATOM      4  C   UNL     1       0.600   9.649  20.106  0.00  0.00    +0.000 A 
ATOM      5  C   UNL     1       0.941   8.531  20.899  0.00  0.00    +0.000 A 
ATOM      6  C   UNL     1       1.749   7.490  20.442  0.00  0.00    +0.000 A 
ENDROOT
BRANCH   4   7
ATOM      7  N   UNL     1      -0.208  10.695  20.674  0.00  0.00    +0.000 N 
ATOM      8  S   UNL     1      -1.160  11.685  19.610  0.00  0.00    +0.000 S 
ATOM      9  C   UNL     1      -1.727  12.679  20.925  0.00  0.00    +0.000 A 
ATOM     10  C   UNL     1      -2.544  13.789  20.789  0.00  0.00    +0.000 A 
ATOM     11  C   UNL     1      -2.897  14.495  21.936  0.00  0.00    +0.000 A 
ATOM     12  C   UNL     1      -2.432  14.073  23.189  0.00  0.00    +0.000 A 
ATOM     13  C   UNL     1      -1.605  12.942  23.310  0.00  0.00    +0.000 A 
ATOM     14  C   UNL     1      -1.252  12.249  22.156  0.00  0.00    +0.000 A 
ATOM     15  C   UNL     1      -0.361  11.049  22.030  0.00  0.00    +0.000 A 
ATOM     16  O   UNL     1       0.127  10.526  23.021  0.00  0.00    +0.000 OA
ENDBRANCH   4   7
BRANCH   1  17
ATOM     17  S   UNL     1       3.207   6.140  18.579  0.00  0.00    +0.000 S 
ATOM     18  O   UNL     1       2.310   5.257  17.866  0.00  0.00    +0.000 OA
ATOM     19  O   UNL     1       3.944   5.654  19.734  0.00  0.00    +0.000 OA
BRANCH  17  26
ATOM     20  C   UNL     1       5.986   4.111  14.026  0.00  0.00    +0.000 C 
ATOM     21  C   UNL     1       6.155   4.650  15.415  0.00  0.00    +0.000 A 
ATOM     22  C   UNL     1       7.269   4.330  16.170  0.00  0.00    +0.000 A 
ATOM     23  C   UNL     1       7.317   4.862  17.438  0.00  0.00    +0.000 A 
ATOM     24  N   UNL     1       6.353   5.645  17.949  0.00  0.00    +0.000 NA
ATOM     25  C   UNL     1       5.339   5.903  17.127  0.00  0.00    +0.000 A 
ATOM     26  N   UNL     1       4.356   6.782  17.557  0.00  0.00    +0.000 N 
ATOM     27  N   UNL     1       5.176   5.454  15.880  0.00  0.00    +0.000 NA
ATOM     28  H   UNL     1       3.940   7.286  16.783  0.00  0.00    +0.000 HD
ENDBRANCH  17  26
ENDBRANCH   1  17
TORSDOF 3
ENDMDL
MODEL 3
REMARK VINA RESULT:      -8.4      1.861      2.674
REMARK  Name = 
REMARK  4 active torsions:
REMARK  status: ('A' for Active; 'I' for Inactive)
REMARK    1  A    between atoms: C_1  and  C_2
REMARK    2  A    between atoms: N_7  and  S_8
REMARK    3  A    between atoms: S_8  and  C_11
REMARK    4  A    between atoms: C_14  and  N_15
REMARK                            x       y       z     vdW  Elec       q    Type
REMARK                         _______ _______ _______ _____ _____    ______ ____
ROOT
ATOM      1  C   UNL     1       2.264   7.449  19.170  0.00  0.00    +0.000 A 
ATOM      2  C   UNL     1       1.943   8.529  18.339  0.00  0.00    +0.000 A 
ATOM      3  C   UNL     1       1.097   9.566  18.807  0.00  0.00    +0.000 A 
ATOM      4  C   UNL     1       0.553   9.526  20.101  0.00  0.00    +0.000 A 
ATOM      5  C   UNL     1       0.865   8.389  20.880  0.00  0.00    +0.000 A 
ATOM      6  C   UNL     1       1.702   7.367  20.435  0.00  0.00    +0.000 A 
ENDROOT
BRANCH   4   7
ATOM      7  N   UNL     1      -0.291  10.550  20.657  0.00  0.00    +0.000 N 
ATOM      8  S   UNL     1      -0.473  10.636  22.382  0.00  0.00    +0.000 S 
ATOM      9  C   UNL     1      -1.610  11.952  22.269  0.00  0.00    +0.000 A 
ATOM     10  C   UNL     1      -2.263  12.535  23.342  0.00  0.00    +0.000 A 
ATOM     11  C   UNL     1      -3.160  13.568  23.089  0.00  0.00    +0.000 A 
ATOM     12  C   UNL     1      -3.379  13.999  21.774  0.00  0.00    +0.000 A 
ATOM     13  C   UNL     1      -2.706  13.399  20.695  0.00  0.00    +0.000 A 
ATOM     14  C   UNL     1      -1.817  12.361  20.959  0.00  0.00    +0.000 A 
ATOM     15  C   UNL     1      -1.018  11.550  19.981  0.00  0.00    +0.000 A 
ATOM     16  O   UNL     1      -1.066  11.792  18.784  0.00  0.00    +0.000 OA
ENDBRANCH   4   7
BRANCH   1  17
ATOM     17  S   UNL     1       3.260   6.079  18.609  0.00  0.00    +0.000 S 
ATOM     18  O   UNL     1       2.387   5.163  17.908  0.00  0.00    +0.000 OA
ATOM     19  O   UNL     1       4.016   5.625  19.766  0.00  0.00    +0.000 OA
BRANCH  17  26
ATOM     20  C   UNL     1       5.968   4.137  13.976  0.00  0.00    +0.000 C 
ATOM     21  C   UNL     1       6.160   4.656  15.369  0.00  0.00    +0.000 A 
ATOM     22  C   UNL     1       7.289   4.333  16.099  0.00  0.00    +0.000 A 
ATOM     23  C   UNL     1       7.357   4.846  17.374  0.00  0.00    +0.000 A 
ATOM     24  N   UNL     1       6.398   5.615  17.914  0.00  0.00    +0.000 NA
ATOM     25  C   UNL     1       5.367   5.878  17.115  0.00  0.00    +0.000 A 
ATOM     26  N   UNL     1       4.386   6.744  17.576  0.00  0.00    +0.000 N 
ATOM     27  N   UNL     1       5.183   5.447  15.864  0.00  0.00    +0.000 NA
ATOM     28  H   UNL     1       3.953   7.256  16.818  0.00  0.00    +0.000 HD
ENDBRANCH  17  26
ENDBRANCH   1  17
TORSDOF 3
ENDMDL
MODEL 4
REMARK VINA RESULT:      -8.3      1.278      1.646
REMARK  Name = 
REMARK  4 active torsions:
REMARK  status: ('A' for Active; 'I' for Inactive)
REMARK    1  A    between atoms: C_1  and  C_2
REMARK    2  A    between atoms: N_7  and  S_8
REMARK    3  A    between atoms: S_8  and  C_11
REMARK    4  A    between atoms: C_14  and  N_15
REMARK                            x       y       z     vdW  Elec       q    Type
REMARK                         _______ _______ _______ _____ _____    ______ ____
ROOT
ATOM      1  C   UNL     1       3.310   5.051  18.962  0.00  0.00    +0.000 A 
ATOM      2  C   UNL     1       3.150   5.843  17.819  0.00  0.00    +0.000 A 
ATOM      3  C   UNL     1       2.554   7.125  17.914  0.00  0.00    +0.000 A 
ATOM      4  C   UNL     1       2.099   7.621  19.147  0.00  0.00    +0.000 A 
ATOM      5  C   UNL     1       2.236   6.761  20.259  0.00  0.00    +0.000 A 
ATOM      6  C   UNL     1       2.828   5.502  20.181  0.00  0.00    +0.000 A 
ENDROOT
BRANCH   4   7
ATOM      7  N   UNL     1       1.508   8.920  19.329  0.00  0.00    +0.000 N 
ATOM      8  S   UNL     1       1.826  10.154  18.149  0.00  0.00    +0.000 S 
ATOM      9  C   UNL     1       0.919  11.344  19.043  0.00  0.00    +0.000 A 
ATOM     10  C   UNL     1       0.786  12.676  18.688  0.00  0.00    +0.000 A 
ATOM     11  C   UNL     1       0.042  13.511  19.517  0.00  0.00    +0.000 A 
ATOM     12  C   UNL     1      -0.555  12.995  20.675  0.00  0.00    +0.000 A 
ATOM     13  C   UNL     1      -0.412  11.640  21.021  0.00  0.00    +0.000 A 
ATOM     14  C   UNL     1       0.340  10.817  20.188  0.00  0.00    +0.000 A 
ATOM     15  C   UNL     1       0.661   9.361  20.365  0.00  0.00    +0.000 A 
ATOM     16  O   UNL     1       0.212   8.733  21.313  0.00  0.00    +0.000 OA
ENDBRANCH   4   7
BRANCH   1  17
ATOM     17  S   UNL     1       3.983   3.399  18.890  0.00  0.00    +0.000 S 
ATOM     18  O   UNL     1       3.510   2.788  17.666  0.00  0.00    +0.000 OA
ATOM     19  O   UNL     1       3.687   2.784  20.174  0.00  0.00    +0.000 OA
BRANCH  17  26
ATOM     20  C   UNL     1       7.393   7.793  17.609  0.00  0.00    +0.000 C 
ATOM     21  C   UNL     1       7.022   6.390  17.232  0.00  0.00    +0.000 A 
ATOM     22  C   UNL     1       7.240   5.917  15.951  0.00  0.00    +0.000 A 
ATOM     23  C   UNL     1       6.846   4.621  15.706  0.00  0.00    +0.000 A 
ATOM     24  N   UNL     1       6.275   3.834  16.632  0.00  0.00    +0.000 NA
ATOM     25  C   UNL     1       6.133   4.386  17.834  0.00  0.00    +0.000 A 
ATOM     26  N   UNL     1       5.637   3.596  18.862  0.00  0.00    +0.000 N 
ATOM     27  N   UNL     1       6.475   5.624  18.201  0.00  0.00    +0.000 NA
ATOM     28  H   UNL     1       6.004   3.881  19.762  0.00  0.00    +0.000 HD
ENDBRANCH  17  26
ENDBRANCH   1  17
TORSDOF 3
ENDMDL
MODEL 5
REMARK VINA RESULT:      -8.3      1.427      1.754
REMARK  Name = 
REMARK  4 active torsions:
REMARK  status: ('A' for Active; 'I' for Inactive)
REMARK    1  A    between atoms: C_1  and  C_2
REMARK    2  A    between atoms: N_7  and  S_8
REMARK    3  A    between atoms: S_8  and  C_11
REMARK    4  A    between atoms: C_14  and  N_15
REMARK                            x       y       z     vdW  Elec       q    Type
REMARK                         _______ _______ _______ _____ _____    ______ ____
ROOT
ATOM      1  C   UNL     1       2.518   5.907  19.251  0.00  0.00    +0.000 A 
ATOM      2  C   UNL     1       2.532   7.042  18.432  0.00  0.00    +0.000 A 
ATOM      3  C   UNL     1       1.964   8.259  18.884  0.00  0.00    +0.000 A 
ATOM      4  C   UNL     1       1.364   8.350  20.152  0.00  0.00    +0.000 A 
ATOM      5  C   UNL     1       1.330   7.162  20.917  0.00  0.00    +0.000 A 
ATOM      6  C   UNL     1       1.892   5.962  20.487  0.00  0.00    +0.000 A 
ENDROOT
BRANCH   4   7
ATOM      7  N   UNL     1       0.791   9.554  20.692  0.00  0.00    +0.000 N 
ATOM      8  S   UNL     1       1.240  11.079  19.993  0.00  0.00    +0.000 S 
ATOM      9  C   UNL     1       0.287  11.971  21.149  0.00  0.00    +0.000 A 
ATOM     10  C   UNL     1       0.218  13.351  21.226  0.00  0.00    +0.000 A 
ATOM     11  C   UNL     1      -0.576  13.919  22.219  0.00  0.00    +0.000 A 
ATOM     12  C   UNL     1      -1.284  13.096  23.105  0.00  0.00    +0.000 A 
ATOM     13  C   UNL     1      -1.204  11.695  23.011  0.00  0.00    +0.000 A 
ATOM     14  C   UNL     1      -0.402  11.139  22.020  0.00  0.00    +0.000 A 
ATOM     15  C   UNL     1      -0.133   9.688  21.748  0.00  0.00    +0.000 A 
ATOM     16  O   UNL     1      -0.677   8.817  22.410  0.00  0.00    +0.000 OA
ENDBRANCH   4   7
BRANCH   1  17
ATOM     17  S   UNL     1       3.148   4.329  18.704  0.00  0.00    +0.000 S 
ATOM     18  O   UNL     1       2.948   4.252  17.273  0.00  0.00    +0.000 OA
ATOM     19  O   UNL     1       2.555   3.330  19.578  0.00  0.00    +0.000 OA
BRANCH  17  26
ATOM     20  C   UNL     1       7.424   7.913  17.503  0.00  0.00    +0.000 C 
ATOM     21  C   UNL     1       6.935   6.505  17.342  0.00  0.00    +0.000 A 
ATOM     22  C   UNL     1       7.374   5.716  16.295  0.00  0.00    +0.000 A 
ATOM     23  C   UNL     1       6.847   4.445  16.228  0.00  0.00    +0.000 A 
ATOM     24  N   UNL     1       5.953   3.969  17.109  0.00  0.00    +0.000 NA
ATOM     25  C   UNL     1       5.618   4.808  18.085  0.00  0.00    +0.000 A 
ATOM     26  N   UNL     1       4.770   4.346  19.083  0.00  0.00    +0.000 N 
ATOM     27  N   UNL     1       6.056   6.057  18.264  0.00  0.00    +0.000 NA
ATOM     28  H   UNL     1       4.951   4.802  19.968  0.00  0.00    +0.000 HD
ENDBRANCH  17  26
ENDBRANCH   1  17
TORSDOF 3
ENDMDL
MODEL 6
REMARK VINA RESULT:      -8.3      2.715      3.947
REMARK  Name = 
REMARK  4 active torsions:
REMARK  status: ('A' for Active; 'I' for Inactive)
REMARK    1  A    between atoms: C_1  and  C_2
REMARK    2  A    between atoms: N_7  and  S_8
REMARK    3  A    between atoms: S_8  and  C_11
REMARK    4  A    between atoms: C_14  and  N_15
REMARK                            x       y       z     vdW  Elec       q    Type
REMARK                         _______ _______ _______ _____ _____    ______ ____
ROOT
ATOM      1  C   UNL     1       3.058   7.177  18.402  0.00  0.00    +0.000 A 
ATOM      2  C   UNL     1       2.593   7.012  19.711  0.00  0.00    +0.000 A 
ATOM      3  C   UNL     1       1.680   7.941  20.270  0.00  0.00    +0.000 A 
ATOM      4  C   UNL     1       1.237   9.052  19.532  0.00  0.00    +0.000 A 
ATOM      5  C   UNL     1       1.778   9.201  18.235  0.00  0.00    +0.000 A 
ATOM      6  C   UNL     1       2.669   8.289  17.671  0.00  0.00    +0.000 A 
ENDROOT
BRANCH   4   7
ATOM      7  N   UNL     1       0.294  10.023  20.018  0.00  0.00    +0.000 N 
ATOM      8  S   UNL     1      -0.902  10.646  18.924  0.00  0.00    +0.000 S 
ATOM      9  C   UNL     1      -1.543  11.732  20.127  0.00  0.00    +0.000 A 
ATOM     10  C   UNL     1      -2.559  12.647  19.913  0.00  0.00    +0.000 A 
ATOM     11  C   UNL     1      -2.950  13.461  20.972  0.00  0.00    +0.000 A 
ATOM     12  C   UNL     1      -2.323  13.338  22.218  0.00  0.00    +0.000 A 
ATOM     13  C   UNL     1      -1.293  12.402  22.420  0.00  0.00    +0.000 A 
ATOM     14  C   UNL     1      -0.906  11.599  21.353  0.00  0.00    +0.000 A 
ATOM     15  C   UNL     1       0.181  10.564  21.315  0.00  0.00    +0.000 A 
ATOM     16  O   UNL     1       0.830  10.303  22.317  0.00  0.00    +0.000 OA
ENDBRANCH   4   7
BRANCH   1  17
ATOM     17  S   UNL     1       4.266   6.082  17.674  0.00  0.00    +0.000 S 
ATOM     18  O   UNL     1       5.382   5.994  18.590  0.00  0.00    +0.000 OA
ATOM     19  O   UNL     1       4.473   6.553  16.314  0.00  0.00    +0.000 OA
BRANCH  17  26
ATOM     20  C   UNL     1       1.142   2.903  21.239  0.00  0.00    +0.000 C 
ATOM     21  C   UNL     1       2.391   2.932  20.410  0.00  0.00    +0.000 A 
ATOM     22  C   UNL     1       3.471   2.128  20.726  0.00  0.00    +0.000 A 
ATOM     23  C   UNL     1       4.575   2.245  19.912  0.00  0.00    +0.000 A 
ATOM     24  N   UNL     1       4.637   3.085  18.867  0.00  0.00    +0.000 NA
ATOM     25  C   UNL     1       3.533   3.794  18.645  0.00  0.00    +0.000 A 
ATOM     26  N   UNL     1       3.496   4.612  17.524  0.00  0.00    +0.000 N 
ATOM     27  N   UNL     1       2.401   3.772  19.353  0.00  0.00    +0.000 NA
ATOM     28  H   UNL     1       2.555   4.709  17.163  0.00  0.00    +0.000 HD
ENDBRANCH  17  26
ENDBRANCH   1  17
TORSDOF 3
ENDMDL
MODEL 7
REMARK VINA RESULT:      -8.2      1.413      1.966
REMARK  Name = 
REMARK  4 active torsions:
REMARK  status: ('A' for Active; 'I' for Inactive)
REMARK    1  A    between atoms: C_1  and  C_2
REMARK    2  A    between atoms: N_7  and  S_8
REMARK    3  A    between atoms: S_8  and  C_11
REMARK    4  A    between atoms: C_14  and  N_15
REMARK                            x       y       z     vdW  Elec       q    Type
REMARK                         _______ _______ _______ _____ _____    ______ ____
ROOT
ATOM      1  C   UNL     1       2.712   4.877  18.916  0.00  0.00    +0.000 A 
ATOM      2  C   UNL     1       2.503   5.328  20.225  0.00  0.00    +0.000 A 
ATOM      3  C   UNL     1       2.099   6.665  20.466  0.00  0.00    +0.000 A 
ATOM      4  C   UNL     1       1.915   7.567  19.405  0.00  0.00    +0.000 A 
ATOM      5  C   UNL     1       2.190   7.077  18.109  0.00  0.00    +0.000 A 
ATOM      6  C   UNL     1       2.579   5.762  17.857  0.00  0.00    +0.000 A 
ENDROOT
BRANCH   4   7
ATOM      7  N   UNL     1       1.482   8.929  19.566  0.00  0.00    +0.000 N 
ATOM      8  S   UNL     1       1.678  10.030  18.237  0.00  0.00    +0.000 S 
ATOM      9  C   UNL     1       1.058  11.371  19.162  0.00  0.00    +0.000 A 
ATOM     10  C   UNL     1       0.976  12.678  18.712  0.00  0.00    +0.000 A 
ATOM     11  C   UNL     1       0.473  13.645  19.578  0.00  0.00    +0.000 A 
ATOM     12  C   UNL     1       0.060  13.284  20.868  0.00  0.00    +0.000 A 
ATOM     13  C   UNL     1       0.149  11.952  21.308  0.00  0.00    +0.000 A 
ATOM     14  C   UNL     1       0.660  10.995  20.437  0.00  0.00    +0.000 A 
ATOM     15  C   UNL     1       0.883   9.533  20.690  0.00  0.00    +0.000 A 
ATOM     16  O   UNL     1       0.566   9.028  21.758  0.00  0.00    +0.000 OA
ENDBRANCH   4   7
BRANCH   1  17
ATOM     17  S   UNL     1       3.295   3.229  18.558  0.00  0.00    +0.000 S 
ATOM     18  O   UNL     1       2.839   2.884  17.228  0.00  0.00    +0.000 OA
ATOM     19  O   UNL     1       2.914   2.407  19.695  0.00  0.00    +0.000 OA
BRANCH  17  26
ATOM     20  C   UNL     1       7.026   7.403  17.453  0.00  0.00    +0.000 C 
ATOM     21  C   UNL     1       6.591   6.024  17.058  0.00  0.00    +0.000 A 
ATOM     22  C   UNL     1       6.846   5.534  15.790  0.00  0.00    +0.000 A 
ATOM     23  C   UNL     1       6.388   4.263  15.526  0.00  0.00    +0.000 A 
ATOM     24  N   UNL     1       5.723   3.516  16.421  0.00  0.00    +0.000 NA
ATOM     25  C   UNL     1       5.553   4.080  17.614  0.00  0.00    +0.000 A 
ATOM     26  N   UNL     1       4.957   3.325  18.615  0.00  0.00    +0.000 N 
ATOM     27  N   UNL     1       5.949   5.296  17.997  0.00  0.00    +0.000 NA
ATOM     28  H   UNL     1       5.293   3.591  19.533  0.00  0.00    +0.000 HD
ENDBRANCH  17  26
ENDBRANCH   1  17
TORSDOF 3
ENDMDL
MODEL 8
REMARK VINA RESULT:      -8.2      1.564      1.924
REMARK  Name = 
REMARK  4 active torsions:
REMARK  status: ('A' for Active; 'I' for Inactive)
REMARK    1  A    between atoms: C_1  and  C_2
REMARK    2  A    between atoms: N_7  and  S_8
REMARK    3  A    between atoms: S_8  and  C_11
REMARK    4  A    between atoms: C_14  and  N_15
REMARK                            x       y       z     vdW  Elec       q    Type
REMARK                         _______ _______ _______ _____ _____    ______ ____
ROOT
ATOM      1  C   UNL     1       2.527   6.344  19.025  0.00  0.00    +0.000 A 
ATOM      2  C   UNL     1       2.499   7.141  17.874  0.00  0.00    +0.000 A 
ATOM      3  C   UNL     1       2.031   8.478  17.940  0.00  0.00    +0.000 A 
ATOM      4  C   UNL     1       1.573   9.024  19.151  0.00  0.00    +0.000 A 
ATOM      5  C   UNL     1       1.573   8.161  20.270  0.00  0.00    +0.000 A 
ATOM      6  C   UNL     1       2.038   6.848  20.220  0.00  0.00    +0.000 A 
ENDROOT
BRANCH   4   7
ATOM      7  N   UNL     1       1.109  10.377  19.304  0.00  0.00    +0.000 N 
ATOM      8  S   UNL     1      -0.262  10.678  20.326  0.00  0.00    +0.000 S 
ATOM      9  C   UNL     1      -0.259  12.381  19.952  0.00  0.00    +0.000 A 
ATOM     10  C   UNL     1      -1.188  13.298  20.411  0.00  0.00    +0.000 A 
ATOM     11  C   UNL     1      -1.062  14.625  20.009  0.00  0.00    +0.000 A 
ATOM     12  C   UNL     1      -0.010  15.004  19.165  0.00  0.00    +0.000 A 
ATOM     13  C   UNL     1       0.927  14.060  18.709  0.00  0.00    +0.000 A 
ATOM     14  C   UNL     1       0.787  12.735  19.112  0.00  0.00    +0.000 A 
ATOM     15  C   UNL     1       1.631  11.555  18.731  0.00  0.00    +0.000 A 
ATOM     16  O   UNL     1       2.610  11.692  18.012  0.00  0.00    +0.000 OA
ENDBRANCH   4   7
BRANCH   1  17
ATOM     17  S   UNL     1       3.032   4.633  18.986  0.00  0.00    +0.000 S 
ATOM     18  O   UNL     1       2.809   4.142  17.643  0.00  0.00    +0.000 OA
ATOM     19  O   UNL     1       2.379   3.990  20.115  0.00  0.00    +0.000 OA
BRANCH  17  26
ATOM     20  C   UNL     1       7.390   7.992  17.468  0.00  0.00    +0.000 C 
ATOM     21  C   UNL     1       6.865   6.588  17.432  0.00  0.00    +0.000 A 
ATOM     22  C   UNL     1       7.281   5.699  16.457  0.00  0.00    +0.000 A 
ATOM     23  C   UNL     1       6.724   4.441  16.503  0.00  0.00    +0.000 A 
ATOM     24  N   UNL     1       5.821   4.065  17.424  0.00  0.00    +0.000 NA
ATOM     25  C   UNL     1       5.511   4.995  18.324  0.00  0.00    +0.000 A 
ATOM     26  N   UNL     1       4.656   4.643  19.359  0.00  0.00    +0.000 N 
ATOM     27  N   UNL     1       5.979   6.243  18.391  0.00  0.00    +0.000 NA
ATOM     28  H   UNL     1       4.852   5.171  20.200  0.00  0.00    +0.000 HD
ENDBRANCH  17  26
ENDBRANCH   1  17
TORSDOF 3
ENDMDL
MODEL 9
REMARK VINA RESULT:      -8.1      3.288     10.090
REMARK  Name = 
REMARK  4 active torsions:
REMARK  status: ('A' for Active; 'I' for Inactive)
REMARK    1  A    between atoms: C_1  and  C_2
REMARK    2  A    between atoms: N_7  and  S_8
REMARK    3  A    between atoms: S_8  and  C_11
REMARK    4  A    between atoms: C_14  and  N_15
REMARK                            x       y       z     vdW  Elec       q    Type
REMARK                         _______ _______ _______ _____ _____    ______ ____
ROOT
ATOM      1  C   UNL     1       0.341  10.713  20.866  0.00  0.00    +0.000 A 
ATOM      2  C   UNL     1       0.627   9.669  21.754  0.00  0.00    +0.000 A 
ATOM      3  C   UNL     1       1.257   8.487  21.291  0.00  0.00    +0.000 A 
ATOM      4  C   UNL     1       1.594   8.331  19.936  0.00  0.00    +0.000 A 
ATOM      5  C   UNL     1       1.236   9.391  19.073  0.00  0.00    +0.000 A 
ATOM      6  C   UNL     1       0.624  10.562  19.518  0.00  0.00    +0.000 A 
ENDROOT
BRANCH   4   7
ATOM      7  N   UNL     1       2.258   7.176  19.395  0.00  0.00    +0.000 N 
ATOM      8  S   UNL     1       3.240   7.366  17.976  0.00  0.00    +0.000 S 
ATOM      9  C   UNL     1       3.590   5.660  17.900  0.00  0.00    +0.000 A 
ATOM     10  C   UNL     1       4.332   5.043  16.908  0.00  0.00    +0.000 A 
ATOM     11  C   UNL     1       4.510   3.664  16.975  0.00  0.00    +0.000 A 
ATOM     12  C   UNL     1       3.948   2.937  18.033  0.00  0.00    +0.000 A 
ATOM     13  C   UNL     1       3.199   3.579  19.035  0.00  0.00    +0.000 A 
ATOM     14  C   UNL     1       3.022   4.957  18.953  0.00  0.00    +0.000 A 
ATOM     15  C   UNL     1       2.241   5.849  19.872  0.00  0.00    +0.000 A 
ATOM     16  O   UNL     1       1.691   5.396  20.865  0.00  0.00    +0.000 OA
ENDBRANCH   4   7
BRANCH   1  17
ATOM     17  S   UNL     1      -0.521  12.190  21.378  0.00  0.00    +0.000 S 
ATOM     18  O   UNL     1      -1.394  12.583  20.293  0.00  0.00    +0.000 OA
ATOM     19  O   UNL     1       0.498  13.107  21.863  0.00  0.00    +0.000 OA
BRANCH  17  26
ATOM     20  C   UNL     1      -5.992  12.811  22.879  0.00  0.00    +0.000 C 
ATOM     21  C   UNL     1      -4.580  13.148  23.256  0.00  0.00    +0.000 A 
ATOM     22  C   UNL     1      -4.298  14.258  24.031  0.00  0.00    +0.000 A 
ATOM     23  C   UNL     1      -2.968  14.487  24.304  0.00  0.00    +0.000 A 
ATOM     24  N   UNL     1      -1.975  13.702  23.856  0.00  0.00    +0.000 NA
ATOM     25  C   UNL     1      -2.365  12.652  23.138  0.00  0.00    +0.000 A 
ATOM     26  N   UNL     1      -1.397  11.747  22.724  0.00  0.00    +0.000 N 
ATOM     27  N   UNL     1      -3.615  12.317  22.807  0.00  0.00    +0.000 NA
ATOM     28  H   UNL     1      -1.772  10.810  22.644  0.00  0.00    +0.000 HD
ENDBRANCH  17  26
ENDBRANCH   1  17
TORSDOF 3
ENDMDL
