MODEL 1
REMARK VINA RESULT:      -7.0      0.000      0.000
REMARK  Name = 
REMARK  9 active torsions:
REMARK  status: ('A' for Active; 'I' for Inactive)
REMARK    1  A    between atoms: C_1  and  C_2
REMARK    2  A    between atoms: C_2  and  N_3
REMARK    3  A    between atoms: C_7  and  C_8
REMARK    4  A    between atoms: C_10  and  C_11
REMARK    5  A    between atoms: C_12  and  N_13
REMARK    6  A    between atoms: C_14  and  C_16
REMARK    7  A    between atoms: C_16  and  C_17
REMARK    8  A    between atoms: C_16  and  C_18
REMARK    9  A    between atoms: C_16  and  C_19
REMARK                            x       y       z     vdW  Elec       q    Type
REMARK                         _______ _______ _______ _____ _____    ______ ____
ROOT
ATOM      1  N   UNL     1       2.816   6.426  18.998  0.00  0.00    +0.000 N 
ATOM      2  C   UNL     1       2.017   6.952  20.117  0.00  0.00    +0.000 C 
ATOM      3  C   UNL     1       1.579   5.792  20.991  0.00  0.00    +0.000 C 
ATOM      4  C   UNL     1       2.080   4.617  20.221  0.00  0.00    +0.000 A 
ATOM      5  C   UNL     1       1.895   3.290  20.576  0.00  0.00    +0.000 A 
ATOM      6  C   UNL     1       1.186   2.854  21.821  0.00  0.00    +0.000 C 
ATOM      7  C   UNL     1       2.432   2.334  19.723  0.00  0.00    +0.000 A 
ATOM      8  C   UNL     1       3.164   2.673  18.557  0.00  0.00    +0.000 A 
ATOM      9  C   UNL     1       3.737   1.479  17.838  0.00  0.00    +0.000 C 
ATOM     10  C   UNL     1       3.339   4.039  18.195  0.00  0.00    +0.000 A 
ATOM     11  C   UNL     1       2.783   5.027  19.056  0.00  0.00    +0.000 A 
ENDROOT
BRANCH  10  12
ATOM     12  N   UNL     1       4.101   4.487  17.071  0.00  0.00    +0.000 N 
ATOM     13  C   UNL     1       5.469   4.623  16.896  0.00  0.00    +0.000 C 
ATOM     14  O   UNL     1       6.331   4.341  17.725  0.00  0.00    +0.000 OA
ATOM     15  H   UNL     1       3.532   4.622  16.252  0.00  0.00    +0.000 HD
BRANCH  13  16
ATOM     16  C   UNL     1       5.919   5.068  15.477  0.00  0.00    +0.000 C 
ATOM     17  C   UNL     1       5.394   4.126  14.387  0.00  0.00    +0.000 C 
ATOM     18  C   UNL     1       5.375   6.485  15.185  0.00  0.00    +0.000 C 
ATOM     19  C   UNL     1       7.451   5.142  15.432  0.00  0.00    +0.000 C 
ENDBRANCH  13  16
ENDBRANCH  10  12
BRANCH   1  21
ATOM     20  C   UNL     1       2.011   8.464  17.969  0.00  0.00    +0.000 C 
ATOM     21  C   UNL     1       3.011   7.323  17.876  0.00  0.00    +0.000 C 
ENDBRANCH   1  21
TORSDOF 3
ENDMDL
MODEL 2
REMARK VINA RESULT:      -6.0      0.971      1.359
REMARK  Name = 
REMARK  9 active torsions:
REMARK  status: ('A' for Active; 'I' for Inactive)
REMARK    1  A    between atoms: C_1  and  C_2
REMARK    2  A    between atoms: C_2  and  N_3
REMARK    3  A    between atoms: C_7  and  C_8
REMARK    4  A    between atoms: C_10  and  C_11
REMARK    5  A    between atoms: C_12  and  N_13
REMARK    6  A    between atoms: C_14  and  C_16
REMARK    7  A    between atoms: C_16  and  C_17
REMARK    8  A    between atoms: C_16  and  C_18
REMARK    9  A    between atoms: C_16  and  C_19
REMARK                            x       y       z     vdW  Elec       q    Type
REMARK                         _______ _______ _______ _____ _____    ______ ____
ROOT
ATOM      1  N   UNL     1       3.132   6.215  19.168  0.00  0.00    +0.000 N 
ATOM      2  C   UNL     1       2.136   6.790  20.086  0.00  0.00    +0.000 C 
ATOM      3  C   UNL     1       1.564   5.676  20.943  0.00  0.00    +0.000 C 
ATOM      4  C   UNL     1       2.214   4.469  20.357  0.00  0.00    +0.000 A 
ATOM      5  C   UNL     1       1.987   3.163  20.762  0.00  0.00    +0.000 A 
ATOM      6  C   UNL     1       1.071   2.788  21.885  0.00  0.00    +0.000 C 
ATOM      7  C   UNL     1       2.685   2.169  20.087  0.00  0.00    +0.000 A 
ATOM      8  C   UNL     1       3.612   2.453  19.052  0.00  0.00    +0.000 A 
ATOM      9  C   UNL     1       4.324   1.232  18.530  0.00  0.00    +0.000 C 
ATOM     10  C   UNL     1       3.829   3.798  18.635  0.00  0.00    +0.000 A 
ATOM     11  C   UNL     1       3.111   4.823  19.313  0.00  0.00    +0.000 A 
ENDROOT
BRANCH  10  12
ATOM     12  N   UNL     1       4.776   4.194  17.640  0.00  0.00    +0.000 N 
ATOM     13  C   UNL     1       4.753   4.063  16.260  0.00  0.00    +0.000 C 
ATOM     14  O   UNL     1       3.841   3.572  15.600  0.00  0.00    +0.000 OA
ATOM     15  H   UNL     1       5.524   4.747  18.023  0.00  0.00    +0.000 HD
BRANCH  13  16
ATOM     16  C   UNL     1       5.951   4.708  15.510  0.00  0.00    +0.000 C 
ATOM     17  C   UNL     1       7.245   4.640  16.330  0.00  0.00    +0.000 C 
ATOM     18  C   UNL     1       6.190   3.958  14.180  0.00  0.00    +0.000 C 
ATOM     19  C   UNL     1       5.608   6.164  15.166  0.00  0.00    +0.000 C 
ENDBRANCH  13  16
ENDBRANCH  10  12
BRANCH   1  21
ATOM     20  C   UNL     1       2.507   8.171  17.886  0.00  0.00    +0.000 C 
ATOM     21  C   UNL     1       3.515   7.044  18.042  0.00  0.00    +0.000 C 
ENDBRANCH   1  21
TORSDOF 3
ENDMDL
MODEL 3
REMARK VINA RESULT:      -5.7      8.154     11.638
REMARK  Name = 
REMARK  9 active torsions:
REMARK  status: ('A' for Active; 'I' for Inactive)
REMARK    1  A    between atoms: C_1  and  C_2
REMARK    2  A    between atoms: C_2  and  N_3
REMARK    3  A    between atoms: C_7  and  C_8
REMARK    4  A    between atoms: C_10  and  C_11
REMARK    5  A    between atoms: C_12  and  N_13
REMARK    6  A    between atoms: C_14  and  C_16
REMARK    7  A    between atoms: C_16  and  C_17
REMARK    8  A    between atoms: C_16  and  C_18
REMARK    9  A    between atoms: C_16  and  C_19
REMARK                            x       y       z     vdW  Elec       q    Type
REMARK                         _______ _______ _______ _____ _____    ______ ____
ROOT
ATOM      1  N   UNL     1      -1.503  11.353  19.562  0.00  0.00    +0.000 N 
ATOM      2  C   UNL     1      -0.496  10.461  18.964  0.00  0.00    +0.000 C 
ATOM      3  C   UNL     1      -0.974  10.041  17.586  0.00  0.00    +0.000 C 
ATOM      4  C   UNL     1      -2.332  10.654  17.529  0.00  0.00    +0.000 A 
ATOM      5  C   UNL     1      -3.224  10.526  16.475  0.00  0.00    +0.000 A 
ATOM      6  C   UNL     1      -2.920   9.773  15.217  0.00  0.00    +0.000 C 
ATOM      7  C   UNL     1      -4.448  11.167  16.610  0.00  0.00    +0.000 A 
ATOM      8  C   UNL     1      -4.783  11.945  17.748  0.00  0.00    +0.000 A 
ATOM      9  C   UNL     1      -6.122  12.629  17.637  0.00  0.00    +0.000 C 
ATOM     10  C   UNL     1      -3.865  12.061  18.831  0.00  0.00    +0.000 A 
ATOM     11  C   UNL     1      -2.611  11.398  18.707  0.00  0.00    +0.000 A 
ENDROOT
BRANCH  10  12
ATOM     12  N   UNL     1      -4.085  12.860  19.996  0.00  0.00    +0.000 N 
ATOM     13  C   UNL     1      -4.996  12.727  21.031  0.00  0.00    +0.000 C 
ATOM     14  O   UNL     1      -5.819  11.823  21.152  0.00  0.00    +0.000 OA
ATOM     15  H   UNL     1      -3.381  13.569  20.111  0.00  0.00    +0.000 HD
BRANCH  13  16
ATOM     16  C   UNL     1      -4.860  13.768  22.176  0.00  0.00    +0.000 C 
ATOM     17  C   UNL     1      -4.112  15.027  21.723  0.00  0.00    +0.000 C 
ATOM     18  C   UNL     1      -6.267  14.195  22.654  0.00  0.00    +0.000 C 
ATOM     19  C   UNL     1      -4.145  13.117  23.368  0.00  0.00    +0.000 C 
ENDBRANCH  13  16
ENDBRANCH  10  12
BRANCH   1  21
ATOM     20  C   UNL     1      -0.697  12.881  21.257  0.00  0.00    +0.000 C 
ATOM     21  C   UNL     1      -1.402  11.561  20.992  0.00  0.00    +0.000 C 
ENDBRANCH   1  21
TORSDOF 3
ENDMDL
MODEL 4
REMARK VINA RESULT:      -5.6      8.253     11.715
REMARK  Name = 
REMARK  9 active torsions:
REMARK  status: ('A' for Active; 'I' for Inactive)
REMARK    1  A    between atoms: C_1  and  C_2
REMARK    2  A    between atoms: C_2  and  N_3
REMARK    3  A    between atoms: C_7  and  C_8
REMARK    4  A    between atoms: C_10  and  C_11
REMARK    5  A    between atoms: C_12  and  N_13
REMARK    6  A    between atoms: C_14  and  C_16
REMARK    7  A    between atoms: C_16  and  C_17
REMARK    8  A    between atoms: C_16  and  C_18
REMARK    9  A    between atoms: C_16  and  C_19
REMARK                            x       y       z     vdW  Elec       q    Type
REMARK                         _______ _______ _______ _____ _____    ______ ____
ROOT
ATOM      1  N   UNL     1      -1.581  11.541  19.647  0.00  0.00    +0.000 N 
ATOM      2  C   UNL     1      -0.546  10.647  19.101  0.00  0.00    +0.000 C 
ATOM      3  C   UNL     1      -1.001  10.150  17.741  0.00  0.00    +0.000 C 
ATOM      4  C   UNL     1      -2.373  10.726  17.644  0.00  0.00    +0.000 A 
ATOM      5  C   UNL     1      -3.251  10.526  16.589  0.00  0.00    +0.000 A 
ATOM      6  C   UNL     1      -2.917   9.722  15.371  0.00  0.00    +0.000 C 
ATOM      7  C   UNL     1      -4.492  11.142  16.684  0.00  0.00    +0.000 A 
ATOM      8  C   UNL     1      -4.857  11.964  17.781  0.00  0.00    +0.000 A 
ATOM      9  C   UNL     1      -6.211  12.607  17.626  0.00  0.00    +0.000 C 
ATOM     10  C   UNL     1      -3.952  12.153  18.864  0.00  0.00    +0.000 A 
ATOM     11  C   UNL     1      -2.681  11.518  18.782  0.00  0.00    +0.000 A 
ENDROOT
BRANCH  10  12
ATOM     12  N   UNL     1      -4.202  13.001  19.988  0.00  0.00    +0.000 N 
ATOM     13  C   UNL     1      -5.072  12.860  21.058  0.00  0.00    +0.000 C 
ATOM     14  O   UNL     1      -5.817  11.903  21.257  0.00  0.00    +0.000 OA
ATOM     15  H   UNL     1      -3.554  13.768  20.040  0.00  0.00    +0.000 HD
BRANCH  13  16
ATOM     16  C   UNL     1      -4.988  13.974  22.137  0.00  0.00    +0.000 C 
ATOM     17  C   UNL     1      -6.355  14.273  22.763  0.00  0.00    +0.000 C 
ATOM     18  C   UNL     1      -4.033  13.525  23.268  0.00  0.00    +0.000 C 
ATOM     19  C   UNL     1      -4.395  15.242  21.508  0.00  0.00    +0.000 C 
ENDBRANCH  13  16
ENDBRANCH  10  12
BRANCH   1  21
ATOM     20  C   UNL     1      -0.581  10.799  21.724  0.00  0.00    +0.000 C 
ATOM     21  C   UNL     1      -1.498  11.818  21.068  0.00  0.00    +0.000 C 
ENDBRANCH   1  21
TORSDOF 3
ENDMDL
MODEL 5
REMARK VINA RESULT:      -5.6      1.242      3.503
REMARK  Name = 
REMARK  9 active torsions:
REMARK  status: ('A' for Active; 'I' for Inactive)
REMARK    1  A    between atoms: C_1  and  C_2
REMARK    2  A    between atoms: C_2  and  N_3
REMARK    3  A    between atoms: C_7  and  C_8
REMARK    4  A    between atoms: C_10  and  C_11
REMARK    5  A    between atoms: C_12  and  N_13
REMARK    6  A    between atoms: C_14  and  C_16
REMARK    7  A    between atoms: C_16  and  C_17
REMARK    8  A    between atoms: C_16  and  C_18
REMARK    9  A    between atoms: C_16  and  C_19
REMARK                            x       y       z     vdW  Elec       q    Type
REMARK                         _______ _______ _______ _____ _____    ______ ____
ROOT
ATOM      1  N   UNL     1       3.118   3.683  19.522  0.00  0.00    +0.000 N 
ATOM      2  C   UNL     1       2.463   3.276  20.776  0.00  0.00    +0.000 C 
ATOM      3  C   UNL     1       1.682   4.457  21.323  0.00  0.00    +0.000 C 
ATOM      4  C   UNL     1       2.048   5.541  20.366  0.00  0.00    +0.000 A 
ATOM      5  C   UNL     1       1.626   6.859  20.451  0.00  0.00    +0.000 A 
ATOM      6  C   UNL     1       0.700   7.368  21.511  0.00  0.00    +0.000 C 
ATOM      7  C   UNL     1       2.082   7.726  19.466  0.00  0.00    +0.000 A 
ATOM      8  C   UNL     1       2.915   7.302  18.399  0.00  0.00    +0.000 A 
ATOM      9  C   UNL     1       3.205   8.388  17.395  0.00  0.00    +0.000 C 
ATOM     10  C   UNL     1       3.353   5.949  18.328  0.00  0.00    +0.000 A 
ATOM     11  C   UNL     1       2.900   5.054  19.339  0.00  0.00    +0.000 A 
ENDROOT
BRANCH  10  12
ATOM     12  N   UNL     1       4.149   5.411  17.269  0.00  0.00    +0.000 N 
ATOM     13  C   UNL     1       5.461   5.662  16.900  0.00  0.00    +0.000 C 
ATOM     14  O   UNL     1       6.234   6.427  17.471  0.00  0.00    +0.000 OA
ATOM     15  H   UNL     1       3.690   4.652  16.794  0.00  0.00    +0.000 HD
BRANCH  13  16
ATOM     16  C   UNL     1       6.000   4.799  15.726  0.00  0.00    +0.000 C 
ATOM     17  C   UNL     1       5.484   3.357  15.790  0.00  0.00    +0.000 C 
ATOM     18  C   UNL     1       5.541   5.411  14.383  0.00  0.00    +0.000 C 
ATOM     19  C   UNL     1       7.535   4.823  15.745  0.00  0.00    +0.000 C 
ENDBRANCH  13  16
ENDBRANCH  10  12
BRANCH   1  21
ATOM     20  C   UNL     1       3.581   1.571  18.434  0.00  0.00    +0.000 C 
ATOM     21  C   UNL     1       4.184   2.822  19.051  0.00  0.00    +0.000 C 
ENDBRANCH   1  21
TORSDOF 3
ENDMDL
MODEL 6
REMARK VINA RESULT:      -5.6      7.699     11.071
REMARK  Name = 
REMARK  9 active torsions:
REMARK  status: ('A' for Active; 'I' for Inactive)
REMARK    1  A    between atoms: C_1  and  C_2
REMARK    2  A    between atoms: C_2  and  N_3
REMARK    3  A    between atoms: C_7  and  C_8
REMARK    4  A    between atoms: C_10  and  C_11
REMARK    5  A    between atoms: C_12  and  N_13
REMARK    6  A    between atoms: C_14  and  C_16
REMARK    7  A    between atoms: C_16  and  C_17
REMARK    8  A    between atoms: C_16  and  C_18
REMARK    9  A    between atoms: C_16  and  C_19
REMARK                            x       y       z     vdW  Elec       q    Type
REMARK                         _______ _______ _______ _____ _____    ______ ____
ROOT
ATOM      1  N   UNL     1      -2.073  12.370  20.808  0.00  0.00    +0.000 N 
ATOM      2  C   UNL     1      -0.802  12.087  21.494  0.00  0.00    +0.000 C 
ATOM      3  C   UNL     1       0.076  11.263  20.571  0.00  0.00    +0.000 C 
ATOM      4  C   UNL     1      -0.831  11.022  19.413  0.00  0.00    +0.000 A 
ATOM      5  C   UNL     1      -0.516  10.266  18.294  0.00  0.00    +0.000 A 
ATOM      6  C   UNL     1       0.813   9.611  18.082  0.00  0.00    +0.000 C 
ATOM      7  C   UNL     1      -1.500  10.151  17.321  0.00  0.00    +0.000 A 
ATOM      8  C   UNL     1      -2.761  10.790  17.427  0.00  0.00    +0.000 A 
ATOM      9  C   UNL     1      -3.632  10.609  16.211  0.00  0.00    +0.000 C 
ATOM     10  C   UNL     1      -3.079  11.556  18.586  0.00  0.00    +0.000 A 
ATOM     11  C   UNL     1      -2.082  11.671  19.595  0.00  0.00    +0.000 A 
ENDROOT
BRANCH  10  12
ATOM     12  N   UNL     1      -4.298  12.280  18.767  0.00  0.00    +0.000 N 
ATOM     13  C   UNL     1      -5.606  11.840  18.901  0.00  0.00    +0.000 C 
ATOM     14  O   UNL     1      -5.972  10.667  18.912  0.00  0.00    +0.000 OA
ATOM     15  H   UNL     1      -4.140  13.261  18.923  0.00  0.00    +0.000 HD
BRANCH  13  16
ATOM     16  C   UNL     1      -6.658  12.951  19.171  0.00  0.00    +0.000 C 
ATOM     17  C   UNL     1      -7.581  13.173  17.968  0.00  0.00    +0.000 C 
ATOM     18  C   UNL     1      -7.537  12.545  20.377  0.00  0.00    +0.000 C 
ATOM     19  C   UNL     1      -5.934  14.252  19.543  0.00  0.00    +0.000 C 
ENDBRANCH  13  16
ENDBRANCH  10  12
BRANCH   1  21
ATOM     20  C   UNL     1      -2.976  12.273  23.052  0.00  0.00    +0.000 C 
ATOM     21  C   UNL     1      -3.165  12.823  21.647  0.00  0.00    +0.000 C 
ENDBRANCH   1  21
TORSDOF 3
ENDMDL
MODEL 7
REMARK VINA RESULT:      -5.6      9.203     12.401
REMARK  Name = 
REMARK  9 active torsions:
REMARK  status: ('A' for Active; 'I' for Inactive)
REMARK    1  A    between atoms: C_1  and  C_2
REMARK    2  A    between atoms: C_2  and  N_3
REMARK    3  A    between atoms: C_7  and  C_8
REMARK    4  A    between atoms: C_10  and  C_11
REMARK    5  A    between atoms: C_12  and  N_13
REMARK    6  A    between atoms: C_14  and  C_16
REMARK    7  A    between atoms: C_16  and  C_17
REMARK    8  A    between atoms: C_16  and  C_18
REMARK    9  A    between atoms: C_16  and  C_19
REMARK                            x       y       z     vdW  Elec       q    Type
REMARK                         _______ _______ _______ _____ _____    ______ ____
ROOT
ATOM      1  N   UNL     1      -2.357  12.301  20.184  0.00  0.00    +0.000 N 
ATOM      2  C   UNL     1      -1.065  11.776  19.712  0.00  0.00    +0.000 C 
ATOM      3  C   UNL     1      -1.234  11.275  18.290  0.00  0.00    +0.000 C 
ATOM      4  C   UNL     1      -2.698  11.449  18.071  0.00  0.00    +0.000 A 
ATOM      5  C   UNL     1      -3.383  11.090  16.920  0.00  0.00    +0.000 A 
ATOM      6  C   UNL     1      -2.724  10.505  15.709  0.00  0.00    +0.000 C 
ATOM      7  C   UNL     1      -4.752  11.325  16.908  0.00  0.00    +0.000 A 
ATOM      8  C   UNL     1      -5.434  11.928  17.996  0.00  0.00    +0.000 A 
ATOM      9  C   UNL     1      -6.896  12.176  17.725  0.00  0.00    +0.000 C 
ATOM     10  C   UNL     1      -4.724  12.282  19.178  0.00  0.00    +0.000 A 
ATOM     11  C   UNL     1      -3.322  12.035  19.205  0.00  0.00    +0.000 A 
ENDROOT
BRANCH  10  12
ATOM     12  N   UNL     1      -5.307  12.939  20.306  0.00  0.00    +0.000 N 
ATOM     13  C   UNL     1      -6.181  12.476  21.277  0.00  0.00    +0.000 C 
ATOM     14  O   UNL     1      -6.622  11.332  21.360  0.00  0.00    +0.000 OA
ATOM     15  H   UNL     1      -4.922  13.856  20.455  0.00  0.00    +0.000 HD
BRANCH  13  16
ATOM     16  C   UNL     1      -6.521  13.488  22.405  0.00  0.00    +0.000 C 
ATOM     17  C   UNL     1      -7.903  14.123  22.210  0.00  0.00    +0.000 C 
ATOM     18  C   UNL     1      -6.519  12.760  23.769  0.00  0.00    +0.000 C 
ATOM     19  C   UNL     1      -5.435  14.571  22.457  0.00  0.00    +0.000 C 
ENDBRANCH  13  16
ENDBRANCH  10  12
BRANCH   1  21
ATOM     20  C   UNL     1      -1.254  11.921  22.305  0.00  0.00    +0.000 C 
ATOM     21  C   UNL     1      -2.487  12.483  21.616  0.00  0.00    +0.000 C 
ENDBRANCH   1  21
TORSDOF 3
ENDMDL
MODEL 8
REMARK VINA RESULT:      -5.6      8.209     11.809
REMARK  Name = 
REMARK  9 active torsions:
REMARK  status: ('A' for Active; 'I' for Inactive)
REMARK    1  A    between atoms: C_1  and  C_2
REMARK    2  A    between atoms: C_2  and  N_3
REMARK    3  A    between atoms: C_7  and  C_8
REMARK    4  A    between atoms: C_10  and  C_11
REMARK    5  A    between atoms: C_12  and  N_13
REMARK    6  A    between atoms: C_14  and  C_16
REMARK    7  A    between atoms: C_16  and  C_17
REMARK    8  A    between atoms: C_16  and  C_18
REMARK    9  A    between atoms: C_16  and  C_19
REMARK                            x       y       z     vdW  Elec       q    Type
REMARK                         _______ _______ _______ _____ _____    ______ ____
ROOT
ATOM      1  N   UNL     1      -4.021  11.243  17.623  0.00  0.00    +0.000 N 
ATOM      2  C   UNL     1      -3.499  10.288  16.632  0.00  0.00    +0.000 C 
ATOM      3  C   UNL     1      -2.097   9.878  17.044  0.00  0.00    +0.000 C 
ATOM      4  C   UNL     1      -1.855  10.747  18.231  0.00  0.00    +0.000 A 
ATOM      5  C   UNL     1      -0.679  10.792  18.963  0.00  0.00    +0.000 A 
ATOM      6  C   UNL     1       0.512   9.932  18.675  0.00  0.00    +0.000 C 
ATOM      7  C   UNL     1      -0.643  11.675  20.035  0.00  0.00    +0.000 A 
ATOM      8  C   UNL     1      -1.752  12.480  20.401  0.00  0.00    +0.000 A 
ATOM      9  C   UNL     1      -1.522  13.287  21.653  0.00  0.00    +0.000 C 
ATOM     10  C   UNL     1      -2.952  12.435  19.636  0.00  0.00    +0.000 A 
ATOM     11  C   UNL     1      -2.996  11.541  18.528  0.00  0.00    +0.000 A 
ENDROOT
BRANCH  10  12
ATOM     12  N   UNL     1      -4.140  13.165  19.950  0.00  0.00    +0.000 N 
ATOM     13  C   UNL     1      -5.049  13.020  20.987  0.00  0.00    +0.000 C 
ATOM     14  O   UNL     1      -4.976  12.197  21.896  0.00  0.00    +0.000 OA
ATOM     15  H   UNL     1      -4.256  13.976  19.366  0.00  0.00    +0.000 HD
BRANCH  13  16
ATOM     16  C   UNL     1      -6.182  14.081  21.032  0.00  0.00    +0.000 C 
ATOM     17  C   UNL     1      -5.981  15.089  22.169  0.00  0.00    +0.000 C 
ATOM     18  C   UNL     1      -6.208  14.864  19.699  0.00  0.00    +0.000 C 
ATOM     19  C   UNL     1      -7.535  13.370  21.177  0.00  0.00    +0.000 C 
ENDBRANCH  13  16
ENDBRANCH  10  12
BRANCH   1  21
ATOM     20  C   UNL     1      -6.417  11.454  17.897  0.00  0.00    +0.000 C 
ATOM     21  C   UNL     1      -5.179  12.014  17.217  0.00  0.00    +0.000 C 
ENDBRANCH   1  21
TORSDOF 3
ENDMDL
MODEL 9
REMARK VINA RESULT:      -5.6      8.243     11.825
REMARK  Name = 
REMARK  9 active torsions:
REMARK  status: ('A' for Active; 'I' for Inactive)
REMARK    1  A    between atoms: C_1  and  C_2
REMARK    2  A    between atoms: C_2  and  N_3
REMARK    3  A    between atoms: C_7  and  C_8
REMARK    4  A    between atoms: C_10  and  C_11
REMARK    5  A    between atoms: C_12  and  N_13
REMARK    6  A    between atoms: C_14  and  C_16
REMARK    7  A    between atoms: C_16  and  C_17
REMARK    8  A    between atoms: C_16  and  C_18
REMARK    9  A    between atoms: C_16  and  C_19
REMARK                            x       y       z     vdW  Elec       q    Type
REMARK                         _______ _______ _______ _____ _____    ______ ____
ROOT
ATOM      1  N   UNL     1      -4.171  11.280  17.611  0.00  0.00    +0.000 N 
ATOM      2  C   UNL     1      -3.705  10.340  16.578  0.00  0.00    +0.000 C 
ATOM      3  C   UNL     1      -2.289   9.910  16.915  0.00  0.00    +0.000 C 
ATOM      4  C   UNL     1      -1.983  10.755  18.105  0.00  0.00    +0.000 A 
ATOM      5  C   UNL     1      -0.773  10.776  18.781  0.00  0.00    +0.000 A 
ATOM      6  C   UNL     1       0.395   9.912  18.422  0.00  0.00    +0.000 C 
ATOM      7  C   UNL     1      -0.678  11.638  19.866  0.00  0.00    +0.000 A 
ATOM      8  C   UNL     1      -1.762  12.445  20.300  0.00  0.00    +0.000 A 
ATOM      9  C   UNL     1      -1.465  13.226  21.555  0.00  0.00    +0.000 C 
ATOM     10  C   UNL     1      -2.997  12.424  19.592  0.00  0.00    +0.000 A 
ATOM     11  C   UNL     1      -3.101  11.552  18.471  0.00  0.00    +0.000 A 
ENDROOT
BRANCH  10  12
ATOM     12  N   UNL     1      -4.162  13.158  19.976  0.00  0.00    +0.000 N 
ATOM     13  C   UNL     1      -5.004  13.020  21.068  0.00  0.00    +0.000 C 
ATOM     14  O   UNL     1      -4.876  12.202  21.976  0.00  0.00    +0.000 OA
ATOM     15  H   UNL     1      -4.314  13.966  19.396  0.00  0.00    +0.000 HD
BRANCH  13  16
ATOM     16  C   UNL     1      -6.132  14.083  21.179  0.00  0.00    +0.000 C 
ATOM     17  C   UNL     1      -7.526  13.456  21.066  0.00  0.00    +0.000 C 
ATOM     18  C   UNL     1      -6.038  14.793  22.549  0.00  0.00    +0.000 C 
ATOM     19  C   UNL     1      -5.930  15.147  20.091  0.00  0.00    +0.000 C 
ENDBRANCH  13  16
ENDBRANCH  10  12
BRANCH   1  21
ATOM     20  C   UNL     1      -6.555  11.486  17.978  0.00  0.00    +0.000 C 
ATOM     21  C   UNL     1      -5.340  12.068  17.274  0.00  0.00    +0.000 C 
ENDBRANCH   1  21
TORSDOF 3
ENDMDL
