MODEL 1
REMARK VINA RESULT:      -7.4      0.000      0.000
REMARK  Name = 
REMARK  2 active torsions:
REMARK  status: ('A' for Active; 'I' for Inactive)
REMARK    1  A    between atoms: C_5  and  N_6
REMARK    2  A    between atoms: N_15  and  C_16
REMARK                            x       y       z     vdW  Elec       q    Type
REMARK                         _______ _______ _______ _____ _____    ______ ____
ROOT
ATOM      1  O   UNL     1       5.177   6.856  15.437  0.00  0.00    +0.000 OA
ATOM      2  C   UNL     1       5.083   5.740  15.958  0.00  0.00    +0.000 A 
ATOM      3  C   UNL     1       4.304   5.609  17.239  0.00  0.00    +0.000 A 
ATOM      4 BR   UNL     1       3.532   7.218  17.857  0.00  0.00    +0.000 Br
ATOM      5  C   UNL     1       4.146   4.426  17.861  0.00  0.00    +0.000 A 
ATOM      6  C   UNL     1       4.799   3.299  17.137  0.00  0.00    +0.000 A 
ATOM      7  N   UNL     1       5.443   3.337  16.022  0.00  0.00    +0.000 NA
ATOM      8  N   UNL     1       5.604   4.559  15.421  0.00  0.00    +0.000 N 
ENDROOT
BRANCH   5   9
ATOM      9  N   UNL     1       3.445   4.102  19.006  0.00  0.00    +0.000 N 
ATOM     10  C   UNL     1       2.473   4.808  19.798  0.00  0.00    +0.000 C 
ATOM     11  C   UNL     1       2.392   3.566  20.613  0.00  0.00    +0.000 C 
ATOM     12  C   UNL     1       2.197   3.571  22.085  0.00  0.00    +0.000 C 
ATOM     13  O   UNL     1       1.214   2.494  21.956  0.00  0.00    +0.000 OA
ATOM     14  C   UNL     1       1.179   2.698  20.509  0.00  0.00    +0.000 C 
ATOM     15  C   UNL     1       3.661   3.079  19.996  0.00  0.00    +0.000 C 
ENDBRANCH   5   9
BRANCH   8  16
ATOM     16  C   UNL     1       6.316   4.507  14.175  0.00  0.00    +0.000 A 
ATOM     17  C   UNL     1       7.403   5.349  13.897  0.00  0.00    +0.000 A 
ATOM     18  C   UNL     1       8.037   5.335  12.651  0.00  0.00    +0.000 A 
ATOM     19  C   UNL     1       7.598   4.472  11.654  0.00  0.00    +0.000 A 
ATOM     20  C   UNL     1       6.546   3.600  11.915  0.00  0.00    +0.000 A 
ATOM     21  C   UNL     1       5.921   3.606  13.168  0.00  0.00    +0.000 A 
ENDBRANCH   8  16
TORSDOF 2
ENDMDL
MODEL 2
REMARK VINA RESULT:      -7.2      1.378      1.393
REMARK  Name = 
REMARK  2 active torsions:
REMARK  status: ('A' for Active; 'I' for Inactive)
REMARK    1  A    between atoms: C_5  and  N_6
REMARK    2  A    between atoms: N_15  and  C_16
REMARK                            x       y       z     vdW  Elec       q    Type
REMARK                         _______ _______ _______ _____ _____    ______ ____
ROOT
ATOM      1  O   UNL     1       7.793   5.236  16.741  0.00  0.00    +0.000 OA
ATOM      2  C   UNL     1       6.683   4.694  16.727  0.00  0.00    +0.000 A 
ATOM      3  C   UNL     1       5.941   4.543  18.027  0.00  0.00    +0.000 A 
ATOM      4 BR   UNL     1       6.832   5.262  19.529  0.00  0.00    +0.000 Br
ATOM      5  C   UNL     1       4.723   3.975  18.092  0.00  0.00    +0.000 A 
ATOM      6  C   UNL     1       4.211   3.547  16.760  0.00  0.00    +0.000 A 
ATOM      7  N   UNL     1       4.776   3.682  15.610  0.00  0.00    +0.000 NA
ATOM      8  N   UNL     1       6.025   4.248  15.577  0.00  0.00    +0.000 N 
ENDROOT
BRANCH   5   9
ATOM      9  N   UNL     1       3.879   3.784  19.169  0.00  0.00    +0.000 N 
ATOM     10  C   UNL     1       3.006   4.661  19.903  0.00  0.00    +0.000 C 
ATOM     11  C   UNL     1       2.612   3.450  20.673  0.00  0.00    +0.000 C 
ATOM     12  C   UNL     1       2.301   3.475  22.125  0.00  0.00    +0.000 C 
ATOM     13  O   UNL     1       1.138   2.620  21.889  0.00  0.00    +0.000 OA
ATOM     14  C   UNL     1       1.263   2.845  20.450  0.00  0.00    +0.000 C 
ATOM     15  C   UNL     1       3.805   2.726  20.143  0.00  0.00    +0.000 C 
ENDBRANCH   5   9
BRANCH   8  16
ATOM     16  C   UNL     1       6.571   4.378  14.255  0.00  0.00    +0.000 A 
ATOM     17  C   UNL     1       7.519   5.361  13.930  0.00  0.00    +0.000 A 
ATOM     18  C   UNL     1       7.985   5.521  12.622  0.00  0.00    +0.000 A 
ATOM     19  C   UNL     1       7.514   4.695  11.608  0.00  0.00    +0.000 A 
ATOM     20  C   UNL     1       6.602   3.689  11.909  0.00  0.00    +0.000 A 
ATOM     21  C   UNL     1       6.148   3.521  13.223  0.00  0.00    +0.000 A 
ENDBRANCH   8  16
TORSDOF 2
ENDMDL
MODEL 3
REMARK VINA RESULT:      -7.2      0.118      1.054
REMARK  Name = 
REMARK  2 active torsions:
REMARK  status: ('A' for Active; 'I' for Inactive)
REMARK    1  A    between atoms: C_5  and  N_6
REMARK    2  A    between atoms: N_15  and  C_16
REMARK                            x       y       z     vdW  Elec       q    Type
REMARK                         _______ _______ _______ _____ _____    ______ ____
ROOT
ATOM      1  O   UNL     1       5.069   6.865  15.456  0.00  0.00    +0.000 OA
ATOM      2  C   UNL     1       4.979   5.748  15.974  0.00  0.00    +0.000 A 
ATOM      3  C   UNL     1       4.229   5.615  17.271  0.00  0.00    +0.000 A 
ATOM      4 BR   UNL     1       3.482   7.227  17.915  0.00  0.00    +0.000 Br
ATOM      5  C   UNL     1       4.077   4.430  17.891  0.00  0.00    +0.000 A 
ATOM      6  C   UNL     1       4.705   3.303  17.147  0.00  0.00    +0.000 A 
ATOM      7  N   UNL     1       5.324   3.342  16.018  0.00  0.00    +0.000 NA
ATOM      8  N   UNL     1       5.480   4.566  15.419  0.00  0.00    +0.000 N 
ENDROOT
BRANCH   5   9
ATOM      9  N   UNL     1       3.399   4.106  19.049  0.00  0.00    +0.000 N 
ATOM     10  C   UNL     1       2.520   4.844  19.916  0.00  0.00    +0.000 C 
ATOM     11  C   UNL     1       2.374   3.573  20.675  0.00  0.00    +0.000 C 
ATOM     12  C   UNL     1       2.240   3.520  22.154  0.00  0.00    +0.000 C 
ATOM     13  O   UNL     1       1.171   2.531  22.019  0.00  0.00    +0.000 OA
ATOM     14  C   UNL     1       1.092   2.808  20.586  0.00  0.00    +0.000 C 
ATOM     15  C   UNL     1       3.573   3.021  19.981  0.00  0.00    +0.000 C 
ENDBRANCH   5   9
BRANCH   8  16
ATOM     16  C   UNL     1       6.162   4.515  14.156  0.00  0.00    +0.000 A 
ATOM     17  C   UNL     1       5.747   3.674  13.114  0.00  0.00    +0.000 A 
ATOM     18  C   UNL     1       6.466   3.583  11.918  0.00  0.00    +0.000 A 
ATOM     19  C   UNL     1       7.619   4.338  11.738  0.00  0.00    +0.000 A 
ATOM     20  C   UNL     1       8.033   5.208  12.741  0.00  0.00    +0.000 A 
ATOM     21  C   UNL     1       7.303   5.308  13.932  0.00  0.00    +0.000 A 
ENDBRANCH   8  16
TORSDOF 2
ENDMDL
MODEL 4
REMARK VINA RESULT:      -7.1      1.330      1.700
REMARK  Name = 
REMARK  2 active torsions:
REMARK  status: ('A' for Active; 'I' for Inactive)
REMARK    1  A    between atoms: C_5  and  N_6
REMARK    2  A    between atoms: N_15  and  C_16
REMARK                            x       y       z     vdW  Elec       q    Type
REMARK                         _______ _______ _______ _____ _____    ______ ____
ROOT
ATOM      1  O   UNL     1       7.664   5.285  16.646  0.00  0.00    +0.000 OA
ATOM      2  C   UNL     1       6.570   4.712  16.661  0.00  0.00    +0.000 A 
ATOM      3  C   UNL     1       5.856   4.562  17.977  0.00  0.00    +0.000 A 
ATOM      4 BR   UNL     1       6.755   5.330  19.451  0.00  0.00    +0.000 Br
ATOM      5  C   UNL     1       4.656   3.960  18.075  0.00  0.00    +0.000 A 
ATOM      6  C   UNL     1       4.132   3.497  16.760  0.00  0.00    +0.000 A 
ATOM      7  N   UNL     1       4.672   3.629  15.597  0.00  0.00    +0.000 NA
ATOM      8  N   UNL     1       5.904   4.228  15.532  0.00  0.00    +0.000 N 
ENDROOT
BRANCH   5   9
ATOM      9  N   UNL     1       3.839   3.764  19.170  0.00  0.00    +0.000 N 
ATOM     10  C   UNL     1       2.978   4.635  19.926  0.00  0.00    +0.000 C 
ATOM     11  C   UNL     1       2.608   3.421  20.702  0.00  0.00    +0.000 C 
ATOM     12  C   UNL     1       2.330   3.442  22.161  0.00  0.00    +0.000 C 
ATOM     13  O   UNL     1       1.166   2.582  21.950  0.00  0.00    +0.000 OA
ATOM     14  C   UNL     1       1.257   2.810  20.509  0.00  0.00    +0.000 C 
ATOM     15  C   UNL     1       3.791   2.704  20.144  0.00  0.00    +0.000 C 
ENDBRANCH   5   9
BRANCH   8  16
ATOM     16  C   UNL     1       6.421   4.353  14.198  0.00  0.00    +0.000 A 
ATOM     17  C   UNL     1       6.002   3.519  13.151  0.00  0.00    +0.000 A 
ATOM     18  C   UNL     1       6.569   3.605  11.876  0.00  0.00    +0.000 A 
ATOM     19  C   UNL     1       7.571   4.534  11.620  0.00  0.00    +0.000 A 
ATOM     20  C   UNL     1       7.980   5.398  12.630  0.00  0.00    +0.000 A 
ATOM     21  C   UNL     1       7.400   5.320  13.902  0.00  0.00    +0.000 A 
ENDBRANCH   8  16
TORSDOF 2
ENDMDL
MODEL 5
REMARK VINA RESULT:      -7.1      4.660      6.639
REMARK  Name = 
REMARK  2 active torsions:
REMARK  status: ('A' for Active; 'I' for Inactive)
REMARK    1  A    between atoms: C_5  and  N_6
REMARK    2  A    between atoms: N_15  and  C_16
REMARK                            x       y       z     vdW  Elec       q    Type
REMARK                         _______ _______ _______ _____ _____    ______ ____
ROOT
ATOM      1  O   UNL     1       3.172   6.474  17.480  0.00  0.00    +0.000 OA
ATOM      2  C   UNL     1       2.622   6.506  18.586  0.00  0.00    +0.000 A 
ATOM      3  C   UNL     1       2.065   7.815  19.073  0.00  0.00    +0.000 A 
ATOM      4 BR   UNL     1       2.264   9.253  17.863  0.00  0.00    +0.000 Br
ATOM      5  C   UNL     1       1.441   7.929  20.260  0.00  0.00    +0.000 A 
ATOM      6  C   UNL     1       1.358   6.637  20.997  0.00  0.00    +0.000 A 
ATOM      7  N   UNL     1       1.777   5.479  20.621  0.00  0.00    +0.000 NA
ATOM      8  N   UNL     1       2.425   5.397  19.415  0.00  0.00    +0.000 N 
ENDROOT
BRANCH   5   9
ATOM      9  N   UNL     1       0.838   9.020  20.854  0.00  0.00    +0.000 N 
ATOM     10  C   UNL     1      -0.389   9.728  20.599  0.00  0.00    +0.000 C 
ATOM     11  C   UNL     1      -0.040  10.547  21.791  0.00  0.00    +0.000 C 
ATOM     12  C   UNL     1      -0.331  12.000  21.892  0.00  0.00    +0.000 C 
ATOM     13  O   UNL     1      -0.804  11.808  23.263  0.00  0.00    +0.000 OA
ATOM     14  C   UNL     1      -0.807  10.360  23.060  0.00  0.00    +0.000 C 
ATOM     15  C   UNL     1       1.360  10.036  21.732  0.00  0.00    +0.000 C 
ENDBRANCH   5   9
BRANCH   8  16
ATOM     16  C   UNL     1       2.841   4.067  19.065  0.00  0.00    +0.000 A 
ATOM     17  C   UNL     1       2.236   3.342  18.027  0.00  0.00    +0.000 A 
ATOM     18  C   UNL     1       2.603   2.023  17.748  0.00  0.00    +0.000 A 
ATOM     19  C   UNL     1       3.590   1.399  18.502  0.00  0.00    +0.000 A 
ATOM     20  C   UNL     1       4.232   2.107  19.513  0.00  0.00    +0.000 A 
ATOM     21  C   UNL     1       3.873   3.434  19.781  0.00  0.00    +0.000 A 
ENDBRANCH   8  16
TORSDOF 2
ENDMDL
MODEL 6
REMARK VINA RESULT:      -7.1      4.699      6.627
REMARK  Name = 
REMARK  2 active torsions:
REMARK  status: ('A' for Active; 'I' for Inactive)
REMARK    1  A    between atoms: C_5  and  N_6
REMARK    2  A    between atoms: N_15  and  C_16
REMARK                            x       y       z     vdW  Elec       q    Type
REMARK                         _______ _______ _______ _____ _____    ______ ____
ROOT
ATOM      1  O   UNL     1       3.154   6.421  17.579  0.00  0.00    +0.000 OA
ATOM      2  C   UNL     1       2.589   6.471  18.676  0.00  0.00    +0.000 A 
ATOM      3  C   UNL     1       2.049   7.794  19.146  0.00  0.00    +0.000 A 
ATOM      4 BR   UNL     1       2.294   9.219  17.930  0.00  0.00    +0.000 Br
ATOM      5  C   UNL     1       1.409   7.928  20.322  0.00  0.00    +0.000 A 
ATOM      6  C   UNL     1       1.289   6.642  21.066  0.00  0.00    +0.000 A 
ATOM      7  N   UNL     1       1.692   5.473  20.704  0.00  0.00    +0.000 NA
ATOM      8  N   UNL     1       2.357   5.372  19.508  0.00  0.00    +0.000 N 
ENDROOT
BRANCH   5   9
ATOM      9  N   UNL     1       0.818   9.034  20.900  0.00  0.00    +0.000 N 
ATOM     10  C   UNL     1      -0.373   9.784  20.600  0.00  0.00    +0.000 C 
ATOM     11  C   UNL     1      -0.047  10.582  21.812  0.00  0.00    +0.000 C 
ATOM     12  C   UNL     1      -0.294  12.044  21.914  0.00  0.00    +0.000 C 
ATOM     13  O   UNL     1      -0.831  11.857  23.263  0.00  0.00    +0.000 OA
ATOM     14  C   UNL     1      -0.874  10.412  23.047  0.00  0.00    +0.000 C 
ATOM     15  C   UNL     1       1.336  10.024  21.808  0.00  0.00    +0.000 C 
ENDBRANCH   5   9
BRANCH   8  16
ATOM     16  C   UNL     1       2.753   4.032  19.174  0.00  0.00    +0.000 A 
ATOM     17  C   UNL     1       3.836   3.393  19.795  0.00  0.00    +0.000 A 
ATOM     18  C   UNL     1       4.252   2.117  19.406  0.00  0.00    +0.000 A 
ATOM     19  C   UNL     1       3.588   1.448  18.384  0.00  0.00    +0.000 A 
ATOM     20  C   UNL     1       2.488   2.043  17.776  0.00  0.00    +0.000 A 
ATOM     21  C   UNL     1       2.064   3.316  18.177  0.00  0.00    +0.000 A 
ENDBRANCH   8  16
TORSDOF 2
ENDMDL
MODEL 7
REMARK VINA RESULT:      -7.0      5.739      7.600
REMARK  Name = 
REMARK  2 active torsions:
REMARK  status: ('A' for Active; 'I' for Inactive)
REMARK    1  A    between atoms: C_5  and  N_6
REMARK    2  A    between atoms: N_15  and  C_16
REMARK                            x       y       z     vdW  Elec       q    Type
REMARK                         _______ _______ _______ _____ _____    ______ ____
ROOT
ATOM      1  O   UNL     1       1.826   6.549  20.824  0.00  0.00    +0.000 OA
ATOM      2  C   UNL     1       1.793   7.404  19.933  0.00  0.00    +0.000 A 
ATOM      3  C   UNL     1       1.254   8.768  20.267  0.00  0.00    +0.000 A 
ATOM      4 BR   UNL     1       0.726   8.985  22.068  0.00  0.00    +0.000 Br
ATOM      5  C   UNL     1       1.197   9.756  19.356  0.00  0.00    +0.000 A 
ATOM      6  C   UNL     1       1.733   9.350  18.027  0.00  0.00    +0.000 A 
ATOM      7  N   UNL     1       2.243   8.217  17.687  0.00  0.00    +0.000 NA
ATOM      8  N   UNL     1       2.271   7.223  18.632  0.00  0.00    +0.000 N 
ENDROOT
BRANCH   5   9
ATOM      9  N   UNL     1       0.778  11.066  19.480  0.00  0.00    +0.000 N 
ATOM     10  C   UNL     1       1.180  12.152  20.334  0.00  0.00    +0.000 C 
ATOM     11  C   UNL     1       0.201  12.974  19.572  0.00  0.00    +0.000 C 
ATOM     12  C   UNL     1      -0.623  14.042  20.194  0.00  0.00    +0.000 C 
ATOM     13  O   UNL     1      -0.342  14.918  19.057  0.00  0.00    +0.000 OA
ATOM     14  C   UNL     1       0.699  13.998  18.603  0.00  0.00    +0.000 C 
ATOM     15  C   UNL     1      -0.417  11.730  19.027  0.00  0.00    +0.000 C 
ENDBRANCH   5   9
BRANCH   8  16
ATOM     16  C   UNL     1       2.873   6.001  18.175  0.00  0.00    +0.000 A 
ATOM     17  C   UNL     1       4.256   5.876  17.977  0.00  0.00    +0.000 A 
ATOM     18  C   UNL     1       4.817   4.704  17.463  0.00  0.00    +0.000 A 
ATOM     19  C   UNL     1       4.002   3.625  17.138  0.00  0.00    +0.000 A 
ATOM     20  C   UNL     1       2.632   3.709  17.359  0.00  0.00    +0.000 A 
ATOM     21  C   UNL     1       2.074   4.879  17.888  0.00  0.00    +0.000 A 
ENDBRANCH   8  16
TORSDOF 2
ENDMDL
MODEL 8
REMARK VINA RESULT:      -7.0      5.840      7.699
REMARK  Name = 
REMARK  2 active torsions:
REMARK  status: ('A' for Active; 'I' for Inactive)
REMARK    1  A    between atoms: C_5  and  N_6
REMARK    2  A    between atoms: N_15  and  C_16
REMARK                            x       y       z     vdW  Elec       q    Type
REMARK                         _______ _______ _______ _____ _____    ______ ____
ROOT
ATOM      1  O   UNL     1       1.852   6.607  20.791  0.00  0.00    +0.000 OA
ATOM      2  C   UNL     1       1.783   7.482  19.921  0.00  0.00    +0.000 A 
ATOM      3  C   UNL     1       1.258   8.838  20.308  0.00  0.00    +0.000 A 
ATOM      4 BR   UNL     1       0.801   9.014  22.132  0.00  0.00    +0.000 Br
ATOM      5  C   UNL     1       1.164   9.847  19.422  0.00  0.00    +0.000 A 
ATOM      6  C   UNL     1       1.647   9.471  18.064  0.00  0.00    +0.000 A 
ATOM      7  N   UNL     1       2.144   8.347  17.678  0.00  0.00    +0.000 NA
ATOM      8  N   UNL     1       2.209   7.332  18.599  0.00  0.00    +0.000 N 
ENDROOT
BRANCH   5   9
ATOM      9  N   UNL     1       0.750  11.153  19.592  0.00  0.00    +0.000 N 
ATOM     10  C   UNL     1       1.437  12.365  19.951  0.00  0.00    +0.000 C 
ATOM     11  C   UNL     1       0.128  13.042  19.748  0.00  0.00    +0.000 C 
ATOM     12  C   UNL     1      -0.337  14.180  20.582  0.00  0.00    +0.000 C 
ATOM     13  O   UNL     1      -0.794  14.873  19.377  0.00  0.00    +0.000 OA
ATOM     14  C   UNL     1      -0.071  13.911  18.548  0.00  0.00    +0.000 C 
ATOM     15  C   UNL     1      -0.561  11.719  19.782  0.00  0.00    +0.000 C 
ENDBRANCH   5   9
BRANCH   8  16
ATOM     16  C   UNL     1       2.793   6.121  18.091  0.00  0.00    +0.000 A 
ATOM     17  C   UNL     1       2.039   4.958  17.879  0.00  0.00    +0.000 A 
ATOM     18  C   UNL     1       2.637   3.767  17.454  0.00  0.00    +0.000 A 
ATOM     19  C   UNL     1       4.008   3.717  17.228  0.00  0.00    +0.000 A 
ATOM     20  C   UNL     1       4.773   4.867  17.395  0.00  0.00    +0.000 A 
ATOM     21  C   UNL     1       4.170   6.061  17.807  0.00  0.00    +0.000 A 
ENDBRANCH   8  16
TORSDOF 2
ENDMDL
MODEL 9
REMARK VINA RESULT:      -6.9      4.574      8.265
REMARK  Name = 
REMARK  2 active torsions:
REMARK  status: ('A' for Active; 'I' for Inactive)
REMARK    1  A    between atoms: C_5  and  N_6
REMARK    2  A    between atoms: N_15  and  C_16
REMARK                            x       y       z     vdW  Elec       q    Type
REMARK                         _______ _______ _______ _____ _____    ______ ____
ROOT
ATOM      1  O   UNL     1       1.162   7.430  21.123  0.00  0.00    +0.000 OA
ATOM      2  C   UNL     1       1.666   7.757  20.044  0.00  0.00    +0.000 A 
ATOM      3  C   UNL     1       2.582   6.781  19.356  0.00  0.00    +0.000 A 
ATOM      4 BR   UNL     1       2.801   5.136  20.259  0.00  0.00    +0.000 Br
ATOM      5  C   UNL     1       3.161   7.057  18.172  0.00  0.00    +0.000 A 
ATOM      6  C   UNL     1       2.778   8.395  17.639  0.00  0.00    +0.000 A 
ATOM      7  N   UNL     1       1.972   9.257  18.156  0.00  0.00    +0.000 NA
ATOM      8  N   UNL     1       1.413   8.955  19.372  0.00  0.00    +0.000 N 
ENDROOT
BRANCH   5   9
ATOM      9  N   UNL     1       3.987   6.288  17.378  0.00  0.00    +0.000 N 
ATOM     10  C   UNL     1       4.949   6.608  16.357  0.00  0.00    +0.000 C 
ATOM     11  C   UNL     1       5.224   5.147  16.307  0.00  0.00    +0.000 C 
ATOM     12  C   UNL     1       5.545   4.422  15.051  0.00  0.00    +0.000 C 
ATOM     13  O   UNL     1       6.616   3.703  15.742  0.00  0.00    +0.000 OA
ATOM     14  C   UNL     1       6.505   4.622  16.873  0.00  0.00    +0.000 C 
ATOM     15  C   UNL     1       3.962   4.884  17.058  0.00  0.00    +0.000 C 
ENDBRANCH   5   9
BRANCH   8  16
ATOM     16  C   UNL     1       0.513   9.961  19.864  0.00  0.00    +0.000 A 
ATOM     17  C   UNL     1      -0.668  10.304  19.190  0.00  0.00    +0.000 A 
ATOM     18  C   UNL     1      -1.495  11.336  19.645  0.00  0.00    +0.000 A 
ATOM     19  C   UNL     1      -1.158  12.046  20.791  0.00  0.00    +0.000 A 
ATOM     20  C   UNL     1      -0.011  11.702  21.499  0.00  0.00    +0.000 A 
ATOM     21  C   UNL     1       0.808  10.659  21.050  0.00  0.00    +0.000 A 
ENDBRANCH   8  16
TORSDOF 2
ENDMDL
