MODEL 1
REMARK VINA RESULT:      -8.1      0.000      0.000
REMARK  Name = 
REMARK  2 active torsions:
REMARK  status: ('A' for Active; 'I' for Inactive)
REMARK    1  A    between atoms: C_1  and  N_2
REMARK    2  A    between atoms: C_7  and  C_8
REMARK                            x       y       z     vdW  Elec       q    Type
REMARK                         _______ _______ _______ _____ _____    ______ ____
ROOT
ATOM      1  C   UNL     1       8.968   5.728  12.950  0.00  0.00    +0.000 C 
ATOM      2  N   UNL     1       7.639   5.173  13.004  0.00  0.00    +0.000 N 
ATOM      3  C   UNL     1       7.175   4.119  12.115  0.00  0.00    +0.000 C 
ATOM      4  C   UNL     1       5.901   3.517  12.756  0.00  0.00    +0.000 C 
ATOM      5  C   UNL     1       6.002   4.017  14.160  0.00  0.00    +0.000 A 
ATOM      6  C   UNL     1       5.182   3.766  15.257  0.00  0.00    +0.000 A 
ATOM      7  C   UNL     1       5.482   4.425  16.451  0.00  0.00    +0.000 A 
ATOM      8  C   UNL     1       6.622   5.245  16.460  0.00  0.00    +0.000 A 
ATOM      9  N   UNL     1       7.421   5.506  15.395  0.00  0.00    +0.000 NA
ATOM     10  C   UNL     1       7.066   4.913  14.254  0.00  0.00    +0.000 A 
ENDROOT
BRANCH   7  11
ATOM     11  C   UNL     1       4.672   4.387  17.663  0.00  0.00    +0.000 A 
ATOM     12  N   UNL     1       3.969   5.388  18.166  0.00  0.00    +0.000 NA
ATOM     13  C   UNL     1       3.276   4.821  19.192  0.00  0.00    +0.000 A 
ATOM     14  C   UNL     1       2.328   5.355  20.066  0.00  0.00    +0.000 A 
ATOM     15  C   UNL     1       1.784   4.476  21.003  0.00  0.00    +0.000 A 
ATOM     16  C   UNL     1       2.213   3.149  21.030  0.00  0.00    +0.000 A 
ATOM     17  F   UNL     1       1.663   2.348  21.954  0.00  0.00    +0.000 F 
ATOM     18  N   UNL     1       3.127   2.591  20.205  0.00  0.00    +0.000 NA
ATOM     19  C   UNL     1       3.611   3.474  19.310  0.00  0.00    +0.000 A 
ATOM     20  O   UNL     1       4.524   3.194  18.327  0.00  0.00    +0.000 OA
ENDBRANCH   7  11
TORSDOF 1
ENDMDL
MODEL 2
REMARK VINA RESULT:      -7.8      3.127      7.587
REMARK  Name = 
REMARK  2 active torsions:
REMARK  status: ('A' for Active; 'I' for Inactive)
REMARK    1  A    between atoms: C_1  and  N_2
REMARK    2  A    between atoms: C_7  and  C_8
REMARK                            x       y       z     vdW  Elec       q    Type
REMARK                         _______ _______ _______ _____ _____    ______ ____
ROOT
ATOM      1  C   UNL     1       1.453   2.660  21.240  0.00  0.00    +0.000 C 
ATOM      2  N   UNL     1       1.621   3.820  20.402  0.00  0.00    +0.000 N 
ATOM      3  C   UNL     1       1.495   5.185  20.890  0.00  0.00    +0.000 C 
ATOM      4  C   UNL     1       2.158   6.103  19.834  0.00  0.00    +0.000 C 
ATOM      5  C   UNL     1       2.962   5.126  19.042  0.00  0.00    +0.000 A 
ATOM      6  C   UNL     1       3.838   5.343  17.981  0.00  0.00    +0.000 A 
ATOM      7  C   UNL     1       4.415   4.222  17.381  0.00  0.00    +0.000 A 
ATOM      8  C   UNL     1       4.104   2.969  17.934  0.00  0.00    +0.000 A 
ATOM      9  N   UNL     1       3.245   2.745  18.958  0.00  0.00    +0.000 NA
ATOM     10  C   UNL     1       2.660   3.832  19.465  0.00  0.00    +0.000 A 
ENDROOT
BRANCH   7  11
ATOM     11  C   UNL     1       5.252   4.241  16.187  0.00  0.00    +0.000 A 
ATOM     12  N   UNL     1       5.006   3.614  15.049  0.00  0.00    +0.000 NA
ATOM     13  C   UNL     1       5.980   4.062  14.209  0.00  0.00    +0.000 A 
ATOM     14  C   UNL     1       6.217   3.805  12.858  0.00  0.00    +0.000 A 
ATOM     15  C   UNL     1       7.308   4.460  12.284  0.00  0.00    +0.000 A 
ATOM     16  C   UNL     1       8.092   5.305  13.069  0.00  0.00    +0.000 A 
ATOM     17  F   UNL     1       9.131   5.905  12.471  0.00  0.00    +0.000 F 
ATOM     18  N   UNL     1       7.898   5.582  14.378  0.00  0.00    +0.000 NA
ATOM     19  C   UNL     1       6.828   4.938  14.882  0.00  0.00    +0.000 A 
ATOM     20  O   UNL     1       6.364   5.046  16.167  0.00  0.00    +0.000 OA
ENDBRANCH   7  11
TORSDOF 1
ENDMDL
MODEL 3
REMARK VINA RESULT:      -7.8      3.231      7.459
REMARK  Name = 
REMARK  2 active torsions:
REMARK  status: ('A' for Active; 'I' for Inactive)
REMARK    1  A    between atoms: C_1  and  N_2
REMARK    2  A    between atoms: C_7  and  C_8
REMARK                            x       y       z     vdW  Elec       q    Type
REMARK                         _______ _______ _______ _____ _____    ______ ____
ROOT
ATOM      1  C   UNL     1       2.275   3.928  21.800  0.00  0.00    +0.000 C 
ATOM      2  N   UNL     1       2.087   3.248  20.543  0.00  0.00    +0.000 N 
ATOM      3  C   UNL     1       0.782   2.872  20.024  0.00  0.00    +0.000 C 
ATOM      4  C   UNL     1       0.965   2.579  18.515  0.00  0.00    +0.000 C 
ATOM      5  C   UNL     1       2.284   3.221  18.238  0.00  0.00    +0.000 A 
ATOM      6  C   UNL     1       2.975   3.357  17.037  0.00  0.00    +0.000 A 
ATOM      7  C   UNL     1       4.236   3.956  17.082  0.00  0.00    +0.000 A 
ATOM      8  C   UNL     1       4.678   4.423  18.331  0.00  0.00    +0.000 A 
ATOM      9  N   UNL     1       4.019   4.286  19.508  0.00  0.00    +0.000 NA
ATOM     10  C   UNL     1       2.848   3.649  19.439  0.00  0.00    +0.000 A 
ENDROOT
BRANCH   7  11
ATOM     11  C   UNL     1       5.157   4.072  15.957  0.00  0.00    +0.000 A 
ATOM     12  N   UNL     1       5.016   3.509  14.769  0.00  0.00    +0.000 NA
ATOM     13  C   UNL     1       6.033   4.035  14.033  0.00  0.00    +0.000 A 
ATOM     14  C   UNL     1       6.377   3.867  12.690  0.00  0.00    +0.000 A 
ATOM     15  C   UNL     1       7.484   4.588  12.239  0.00  0.00    +0.000 A 
ATOM     16  C   UNL     1       8.180   5.405  13.129  0.00  0.00    +0.000 A 
ATOM     17  F   UNL     1       9.240   6.070  12.646  0.00  0.00    +0.000 F 
ATOM     18  N   UNL     1       7.883   5.596  14.434  0.00  0.00    +0.000 NA
ATOM     19  C   UNL     1       6.801   4.893  14.817  0.00  0.00    +0.000 A 
ATOM     20  O   UNL     1       6.241   4.909  16.069  0.00  0.00    +0.000 OA
ENDBRANCH   7  11
TORSDOF 1
ENDMDL
MODEL 4
REMARK VINA RESULT:      -7.7      4.189      7.924
REMARK  Name = 
REMARK  2 active torsions:
REMARK  status: ('A' for Active; 'I' for Inactive)
REMARK    1  A    between atoms: C_1  and  N_2
REMARK    2  A    between atoms: C_7  and  C_8
REMARK                            x       y       z     vdW  Elec       q    Type
REMARK                         _______ _______ _______ _____ _____    ______ ____
ROOT
ATOM      1  C   UNL     1      -0.333  11.561  19.692  0.00  0.00    +0.000 C 
ATOM      2  N   UNL     1       0.430  10.534  20.355  0.00  0.00    +0.000 N 
ATOM      3  C   UNL     1      -0.015   9.864  21.568  0.00  0.00    +0.000 C 
ATOM      4  C   UNL     1       0.832   8.575  21.706  0.00  0.00    +0.000 C 
ATOM      5  C   UNL     1       1.394   8.430  20.330  0.00  0.00    +0.000 A 
ATOM      6  C   UNL     1       2.193   7.424  19.795  0.00  0.00    +0.000 A 
ATOM      7  C   UNL     1       2.629   7.579  18.477  0.00  0.00    +0.000 A 
ATOM      8  C   UNL     1       2.179   8.714  17.784  0.00  0.00    +0.000 A 
ATOM      9  N   UNL     1       1.411   9.706  18.298  0.00  0.00    +0.000 NA
ATOM     10  C   UNL     1       1.068   9.559  19.580  0.00  0.00    +0.000 A 
ENDROOT
BRANCH   7  11
ATOM     11  C   UNL     1       3.568   6.700  17.789  0.00  0.00    +0.000 A 
ATOM     12  N   UNL     1       3.574   5.379  17.827  0.00  0.00    +0.000 NA
ATOM     13  C   UNL     1       4.523   5.027  16.916  0.00  0.00    +0.000 A 
ATOM     14  C   UNL     1       4.949   3.775  16.471  0.00  0.00    +0.000 A 
ATOM     15  C   UNL     1       5.942   3.771  15.490  0.00  0.00    +0.000 A 
ATOM     16  C   UNL     1       6.455   4.982  15.027  0.00  0.00    +0.000 A 
ATOM     17  F   UNL     1       7.412   4.922  14.090  0.00  0.00    +0.000 F 
ATOM     18  N   UNL     1       6.072   6.214  15.430  0.00  0.00    +0.000 NA
ATOM     19  C   UNL     1       5.104   6.166  16.364  0.00  0.00    +0.000 A 
ATOM     20  O   UNL     1       4.494   7.252  16.937  0.00  0.00    +0.000 OA
ENDBRANCH   7  11
TORSDOF 1
ENDMDL
MODEL 5
REMARK VINA RESULT:      -7.6      4.171      7.956
REMARK  Name = 
REMARK  2 active torsions:
REMARK  status: ('A' for Active; 'I' for Inactive)
REMARK    1  A    between atoms: C_1  and  N_2
REMARK    2  A    between atoms: C_7  and  C_8
REMARK                            x       y       z     vdW  Elec       q    Type
REMARK                         _______ _______ _______ _____ _____    ______ ____
ROOT
ATOM      1  C   UNL     1      -0.409   9.285  22.241  0.00  0.00    +0.000 C 
ATOM      2  N   UNL     1      -0.216   9.413  20.818  0.00  0.00    +0.000 N 
ATOM      3  C   UNL     1      -0.386  10.664  20.097  0.00  0.00    +0.000 C 
ATOM      4  C   UNL     1       0.315  10.494  18.728  0.00  0.00    +0.000 C 
ATOM      5  C   UNL     1       1.174   9.297  18.972  0.00  0.00    +0.000 A 
ATOM      6  C   UNL     1       2.099   8.677  18.137  0.00  0.00    +0.000 A 
ATOM      7  C   UNL     1       2.722   7.520  18.610  0.00  0.00    +0.000 A 
ATOM      8  C   UNL     1       2.403   7.109  19.914  0.00  0.00    +0.000 A 
ATOM      9  N   UNL     1       1.495   7.698  20.732  0.00  0.00    +0.000 NA
ATOM     10  C   UNL     1       0.870   8.761  20.223  0.00  0.00    +0.000 A 
ENDROOT
BRANCH   7  11
ATOM     11  C   UNL     1       3.619   6.668  17.838  0.00  0.00    +0.000 A 
ATOM     12  N   UNL     1       3.683   5.349  17.889  0.00  0.00    +0.000 NA
ATOM     13  C   UNL     1       4.545   5.021  16.888  0.00  0.00    +0.000 A 
ATOM     14  C   UNL     1       4.973   3.779  16.414  0.00  0.00    +0.000 A 
ATOM     15  C   UNL     1       5.857   3.799  15.334  0.00  0.00    +0.000 A 
ATOM     16  C   UNL     1       6.269   5.022  14.806  0.00  0.00    +0.000 A 
ATOM     17  F   UNL     1       7.124   4.985  13.774  0.00  0.00    +0.000 F 
ATOM     18  N   UNL     1       5.881   6.245  15.234  0.00  0.00    +0.000 NA
ATOM     19  C   UNL     1       5.018   6.173  16.265  0.00  0.00    +0.000 A 
ATOM     20  O   UNL     1       4.428   7.243  16.887  0.00  0.00    +0.000 OA
ENDBRANCH   7  11
TORSDOF 1
ENDMDL
MODEL 6
REMARK VINA RESULT:      -7.4      6.486      8.130
REMARK  Name = 
REMARK  2 active torsions:
REMARK  status: ('A' for Active; 'I' for Inactive)
REMARK    1  A    between atoms: C_1  and  N_2
REMARK    2  A    between atoms: C_7  and  C_8
REMARK                            x       y       z     vdW  Elec       q    Type
REMARK                         _______ _______ _______ _____ _____    ______ ____
ROOT
ATOM      1  C   UNL     1       9.642  15.130  18.087  0.00  0.00    +0.000 C 
ATOM      2  N   UNL     1      10.235  13.943  18.651  0.00  0.00    +0.000 N 
ATOM      3  C   UNL     1      10.905  13.920  19.942  0.00  0.00    +0.000 C 
ATOM      4  C   UNL     1      11.005  12.436  20.371  0.00  0.00    +0.000 C 
ATOM      5  C   UNL     1      10.008  11.790  19.467  0.00  0.00    +0.000 A 
ATOM      6  C   UNL     1       9.587  10.464  19.405  0.00  0.00    +0.000 A 
ATOM      7  C   UNL     1       8.675  10.123  18.404  0.00  0.00    +0.000 A 
ATOM      8  C   UNL     1       8.216  11.160  17.576  0.00  0.00    +0.000 A 
ATOM      9  N   UNL     1       8.627  12.451  17.619  0.00  0.00    +0.000 NA
ATOM     10  C   UNL     1       9.549  12.728  18.543  0.00  0.00    +0.000 A 
ENDROOT
BRANCH   7  11
ATOM     11  C   UNL     1       8.217   8.771  18.105  0.00  0.00    +0.000 A 
ATOM     12  N   UNL     1       8.529   7.673  18.772  0.00  0.00    +0.000 NA
ATOM     13  C   UNL     1       7.743   6.712  18.212  0.00  0.00    +0.000 A 
ATOM     14  C   UNL     1       7.582   5.361  18.523  0.00  0.00    +0.000 A 
ATOM     15  C   UNL     1       6.658   4.654  17.752  0.00  0.00    +0.000 A 
ATOM     16  C   UNL     1       5.972   5.309  16.731  0.00  0.00    +0.000 A 
ATOM     17  F   UNL     1       5.100   4.582  16.016  0.00  0.00    +0.000 F 
ATOM     18  N   UNL     1       6.097   6.612  16.396  0.00  0.00    +0.000 NA
ATOM     19  C   UNL     1       6.987   7.255  17.176  0.00  0.00    +0.000 A 
ATOM     20  O   UNL     1       7.301   8.587  17.097  0.00  0.00    +0.000 OA
ENDBRANCH   7  11
TORSDOF 1
ENDMDL
MODEL 7
REMARK VINA RESULT:      -7.3      1.413      1.749
REMARK  Name = 
REMARK  2 active torsions:
REMARK  status: ('A' for Active; 'I' for Inactive)
REMARK    1  A    between atoms: C_1  and  N_2
REMARK    2  A    between atoms: C_7  and  C_8
REMARK                            x       y       z     vdW  Elec       q    Type
REMARK                         _______ _______ _______ _____ _____    ______ ____
ROOT
ATOM      1  C   UNL     1       8.999   5.809  12.840  0.00  0.00    +0.000 C 
ATOM      2  N   UNL     1       7.694   5.198  12.831  0.00  0.00    +0.000 N 
ATOM      3  C   UNL     1       7.345   4.065  11.988  0.00  0.00    +0.000 C 
ATOM      4  C   UNL     1       6.050   3.451  12.572  0.00  0.00    +0.000 C 
ATOM      5  C   UNL     1       6.017   4.051  13.939  0.00  0.00    +0.000 A 
ATOM      6  C   UNL     1       5.123   3.839  14.985  0.00  0.00    +0.000 A 
ATOM      7  C   UNL     1       5.301   4.592  16.148  0.00  0.00    +0.000 A 
ATOM      8  C   UNL     1       6.402   5.462  16.184  0.00  0.00    +0.000 A 
ATOM      9  N   UNL     1       7.272   5.685  15.168  0.00  0.00    +0.000 NA
ATOM     10  C   UNL     1       7.033   4.999  14.049  0.00  0.00    +0.000 A 
ENDROOT
BRANCH   7  11
ATOM     11  C   UNL     1       4.398   4.601  17.293  0.00  0.00    +0.000 A 
ATOM     12  N   UNL     1       4.267   3.643  18.194  0.00  0.00    +0.000 NA
ATOM     13  C   UNL     1       3.435   4.180  19.128  0.00  0.00    +0.000 A 
ATOM     14  C   UNL     1       2.968   3.673  20.342  0.00  0.00    +0.000 A 
ATOM     15  C   UNL     1       2.134   4.511  21.084  0.00  0.00    +0.000 A 
ATOM     16  C   UNL     1       1.806   5.771  20.584  0.00  0.00    +0.000 A 
ATOM     17  F   UNL     1       0.997   6.534  21.333  0.00  0.00    +0.000 F 
ATOM     18  N   UNL     1       2.235   6.300  19.416  0.00  0.00    +0.000 NA
ATOM     19  C   UNL     1       3.047   5.462  18.745  0.00  0.00    +0.000 A 
ATOM     20  O   UNL     1       3.661   5.732  17.550  0.00  0.00    +0.000 OA
ENDBRANCH   7  11
TORSDOF 1
ENDMDL
MODEL 8
REMARK VINA RESULT:      -7.2      4.939      7.295
REMARK  Name = 
REMARK  2 active torsions:
REMARK  status: ('A' for Active; 'I' for Inactive)
REMARK    1  A    between atoms: C_1  and  N_2
REMARK    2  A    between atoms: C_7  and  C_8
REMARK                            x       y       z     vdW  Elec       q    Type
REMARK                         _______ _______ _______ _____ _____    ______ ____
ROOT
ATOM      1  C   UNL     1       4.205   3.306  17.474  0.00  0.00    +0.000 C 
ATOM      2  N   UNL     1       3.222   3.469  18.516  0.00  0.00    +0.000 N 
ATOM      3  C   UNL     1       3.111   2.575  19.659  0.00  0.00    +0.000 C 
ATOM      4  C   UNL     1       2.268   3.312  20.727  0.00  0.00    +0.000 C 
ATOM      5  C   UNL     1       2.330   4.724  20.243  0.00  0.00    +0.000 A 
ATOM      6  C   UNL     1       1.816   5.885  20.813  0.00  0.00    +0.000 A 
ATOM      7  C   UNL     1       1.972   7.077  20.101  0.00  0.00    +0.000 A 
ATOM      8  C   UNL     1       2.685   7.012  18.893  0.00  0.00    +0.000 A 
ATOM      9  N   UNL     1       3.180   5.885  18.323  0.00  0.00    +0.000 NA
ATOM     10  C   UNL     1       2.954   4.755  18.997  0.00  0.00    +0.000 A 
ENDROOT
BRANCH   7  11
ATOM     11  C   UNL     1       1.396   8.364  20.473  0.00  0.00    +0.000 A 
ATOM     12  N   UNL     1       1.036   9.329  19.645  0.00  0.00    +0.000 NA
ATOM     13  C   UNL     1       0.421  10.241  20.447  0.00  0.00    +0.000 A 
ATOM     14  C   UNL     1      -0.217  11.446  20.148  0.00  0.00    +0.000 A 
ATOM     15  C   UNL     1      -0.776  12.135  21.225  0.00  0.00    +0.000 A 
ATOM     16  C   UNL     1      -0.662  11.609  22.511  0.00  0.00    +0.000 A 
ATOM     17  F   UNL     1      -1.211  12.314  23.511  0.00  0.00    +0.000 F 
ATOM     18  N   UNL     1      -0.055  10.448  22.845  0.00  0.00    +0.000 NA
ATOM     19  C   UNL     1       0.455   9.814  21.773  0.00  0.00    +0.000 A 
ATOM     20  O   UNL     1       1.097   8.602  21.793  0.00  0.00    +0.000 OA
ENDBRANCH   7  11
TORSDOF 1
ENDMDL
MODEL 9
REMARK VINA RESULT:      -7.1      6.633      8.261
REMARK  Name = 
REMARK  2 active torsions:
REMARK  status: ('A' for Active; 'I' for Inactive)
REMARK    1  A    between atoms: C_1  and  N_2
REMARK    2  A    between atoms: C_7  and  C_8
REMARK                            x       y       z     vdW  Elec       q    Type
REMARK                         _______ _______ _______ _____ _____    ______ ____
ROOT
ATOM      1  C   UNL     1      10.454  14.226  21.190  0.00  0.00    +0.000 C 
ATOM      2  N   UNL     1       9.632  13.932  20.042  0.00  0.00    +0.000 N 
ATOM      3  C   UNL     1       9.634  14.735  18.829  0.00  0.00    +0.000 C 
ATOM      4  C   UNL     1       8.984  13.874  17.719  0.00  0.00    +0.000 C 
ATOM      5  C   UNL     1       9.050  12.507  18.315  0.00  0.00    +0.000 A 
ATOM      6  C   UNL     1       8.678  11.279  17.774  0.00  0.00    +0.000 A 
ATOM      7  C   UNL     1       8.794  10.152  18.592  0.00  0.00    +0.000 A 
ATOM      8  C   UNL     1       9.330  10.345  19.875  0.00  0.00    +0.000 A 
ATOM      9  N   UNL     1       9.685  11.537  20.416  0.00  0.00    +0.000 NA
ATOM     10  C   UNL     1       9.498  12.601  19.632  0.00  0.00    +0.000 A 
ENDROOT
BRANCH   7  11
ATOM     11  C   UNL     1       8.339   8.810  18.248  0.00  0.00    +0.000 A 
ATOM     12  N   UNL     1       8.592   7.701  18.922  0.00  0.00    +0.000 NA
ATOM     13  C   UNL     1       7.833   6.757  18.301  0.00  0.00    +0.000 A 
ATOM     14  C   UNL     1       7.634   5.405  18.586  0.00  0.00    +0.000 A 
ATOM     15  C   UNL     1       6.753   4.718  17.749  0.00  0.00    +0.000 A 
ATOM     16  C   UNL     1       6.143   5.393  16.692  0.00  0.00    +0.000 A 
ATOM     17  F   UNL     1       5.311   4.686  15.915  0.00  0.00    +0.000 F 
ATOM     18  N   UNL     1       6.307   6.698  16.381  0.00  0.00    +0.000 NA
ATOM     19  C   UNL     1       7.153   7.320  17.224  0.00  0.00    +0.000 A 
ATOM     20  O   UNL     1       7.489   8.649  17.181  0.00  0.00    +0.000 OA
ENDBRANCH   7  11
TORSDOF 1
ENDMDL
