MODEL 1
REMARK VINA RESULT:      -8.7      0.000      0.000
REMARK  Name = 
REMARK  6 active torsions:
REMARK  status: ('A' for Active; 'I' for Inactive)
REMARK    1  A    between atoms: C_1  and  C_2
REMARK    2  A    between atoms: N_5  and  C_6
REMARK    3  A    between atoms: C_6  and  C_7
REMARK    4  A    between atoms: C_12  and  C_14
REMARK    5  A    between atoms: C_14  and  C_15
REMARK    6  A    between atoms: C_15  and  C_16
REMARK                            x       y       z     vdW  Elec       q    Type
REMARK                         _______ _______ _______ _____ _____    ______ ____
ROOT
ATOM      1  C   UNL     1       3.764   5.344  18.472  0.00  0.00    +0.000 C 
ATOM      2  C   UNL     1       4.886   5.250  19.517  0.00  0.00    +0.000 C 
ATOM      3  C   UNL     1       6.296   5.069  18.954  0.00  0.00    +0.000 C 
ATOM      4  C   UNL     1       6.717   6.140  17.941  0.00  0.00    +0.000 C 
ATOM      5  N   UNL     1       6.070   5.969  16.633  0.00  0.00    +0.000 N 
ATOM      6  C   UNL     1       6.725   5.190  15.669  0.00  0.00    +0.000 C 
ATOM      7  O   UNL     1       7.817   4.665  15.893  0.00  0.00    +0.000 OA
ATOM      8  C   UNL     1       4.767   6.601  16.426  0.00  0.00    +0.000 C 
ATOM      9  C   UNL     1       3.861   6.654  17.659  0.00  0.00    +0.000 C 
ENDROOT
BRANCH   1  10
ATOM     10  C   UNL     1       3.693   4.110  17.550  0.00  0.00    +0.000 C 
BRANCH  10  15
ATOM     11  C   UNL     1       1.847   2.716  21.516  0.00  0.00    +0.000 C 
ATOM     12  C   UNL     1       1.495   2.790  20.034  0.00  0.00    +0.000 C 
ATOM     13  C   UNL     1       2.465   1.928  19.212  0.00  0.00    +0.000 C 
ATOM     14  C   UNL     1       2.246   2.133  17.715  0.00  0.00    +0.000 C 
ATOM     15  N   UNL     1       2.358   3.540  17.317  0.00  0.00    +0.000 NA
ATOM     16  C   UNL     1       1.342   4.340  18.028  0.00  0.00    +0.000 C 
ATOM     17  C   UNL     1       1.467   4.248  19.553  0.00  0.00    +0.000 C 
ENDBRANCH  10  15
ENDBRANCH   1  10
BRANCH   6  18
ATOM     18  C   UNL     1       6.019   4.990  14.331  0.00  0.00    +0.000 C 
BRANCH  18  19
ATOM     19  C   UNL     1       7.007   4.746  13.185  0.00  0.00    +0.000 C 
BRANCH  19  20
ATOM     20  C   UNL     1       6.630   3.538  12.352  0.00  0.00    +0.000 A 
ATOM     21  C   UNL     1       7.632   2.723  11.789  0.00  0.00    +0.000 A 
ATOM     22  C   UNL     1       7.290   1.627  10.994  0.00  0.00    +0.000 A 
ATOM     23  C   UNL     1       5.947   1.329  10.757  0.00  0.00    +0.000 A 
ATOM     24  C   UNL     1       4.953   2.115  11.320  0.00  0.00    +0.000 A 
ATOM     25  C   UNL     1       5.286   3.214  12.114  0.00  0.00    +0.000 A 
ENDBRANCH  19  20
ENDBRANCH  18  19
ENDBRANCH   6  18
TORSDOF 5
ENDMDL
MODEL 2
REMARK VINA RESULT:      -8.5      3.420      7.900
REMARK  Name = 
REMARK  6 active torsions:
REMARK  status: ('A' for Active; 'I' for Inactive)
REMARK    1  A    between atoms: C_1  and  C_2
REMARK    2  A    between atoms: N_5  and  C_6
REMARK    3  A    between atoms: C_6  and  C_7
REMARK    4  A    between atoms: C_12  and  C_14
REMARK    5  A    between atoms: C_14  and  C_15
REMARK    6  A    between atoms: C_15  and  C_16
REMARK                            x       y       z     vdW  Elec       q    Type
REMARK                         _______ _______ _______ _____ _____    ______ ____
ROOT
ATOM      1  C   UNL     1       3.823   2.771  18.072  0.00  0.00    +0.000 C 
ATOM      2  C   UNL     1       3.665   2.261  19.512  0.00  0.00    +0.000 C 
ATOM      3  C   UNL     1       3.059   3.258  20.501  0.00  0.00    +0.000 C 
ATOM      4  C   UNL     1       1.701   3.827  20.076  0.00  0.00    +0.000 C 
ATOM      5  N   UNL     1       1.814   4.819  18.999  0.00  0.00    +0.000 N 
ATOM      6  C   UNL     1       1.960   6.167  19.354  0.00  0.00    +0.000 C 
ATOM      7  O   UNL     1       1.986   6.528  20.532  0.00  0.00    +0.000 OA
ATOM      8  C   UNL     1       1.793   4.335  17.619  0.00  0.00    +0.000 C 
ATOM      9  C   UNL     1       2.450   2.971  17.392  0.00  0.00    +0.000 C 
ENDROOT
BRANCH   1  10
ATOM     10  C   UNL     1       4.693   4.041  17.974  0.00  0.00    +0.000 C 
BRANCH  10  15
ATOM     11  C   UNL     1       7.988   7.225  18.253  0.00  0.00    +0.000 C 
ATOM     12  C   UNL     1       7.229   6.430  17.197  0.00  0.00    +0.000 C 
ATOM     13  C   UNL     1       5.732   6.767  17.252  0.00  0.00    +0.000 C 
ATOM     14  C   UNL     1       4.930   5.849  16.330  0.00  0.00    +0.000 C 
ATOM     15  N   UNL     1       5.140   4.429  16.629  0.00  0.00    +0.000 NA
ATOM     16  C   UNL     1       6.567   4.091  16.459  0.00  0.00    +0.000 C 
ATOM     17  C   UNL     1       7.490   4.925  17.357  0.00  0.00    +0.000 C 
ENDBRANCH  10  15
ENDBRANCH   1  10
BRANCH   6  18
ATOM     18  C   UNL     1       2.117   7.179  18.223  0.00  0.00    +0.000 C 
BRANCH  18  19
ATOM     19  C   UNL     1       2.365   8.599  18.743  0.00  0.00    +0.000 C 
BRANCH  19  20
ATOM     20  C   UNL     1       1.077   9.365  18.955  0.00  0.00    +0.000 A 
ATOM     21  C   UNL     1       0.217   9.623  17.869  0.00  0.00    +0.000 A 
ATOM     22  C   UNL     1      -0.958  10.356  18.052  0.00  0.00    +0.000 A 
ATOM     23  C   UNL     1      -1.289  10.835  19.321  0.00  0.00    +0.000 A 
ATOM     24  C   UNL     1      -0.459  10.574  20.400  0.00  0.00    +0.000 A 
ATOM     25  C   UNL     1       0.717   9.843  20.225  0.00  0.00    +0.000 A 
ENDBRANCH  19  20
ENDBRANCH  18  19
ENDBRANCH   6  18
TORSDOF 5
ENDMDL
MODEL 3
REMARK VINA RESULT:      -8.4      3.269      7.913
REMARK  Name = 
REMARK  6 active torsions:
REMARK  status: ('A' for Active; 'I' for Inactive)
REMARK    1  A    between atoms: C_1  and  C_2
REMARK    2  A    between atoms: N_5  and  C_6
REMARK    3  A    between atoms: C_6  and  C_7
REMARK    4  A    between atoms: C_12  and  C_14
REMARK    5  A    between atoms: C_14  and  C_15
REMARK    6  A    between atoms: C_15  and  C_16
REMARK                            x       y       z     vdW  Elec       q    Type
REMARK                         _______ _______ _______ _____ _____    ______ ____
ROOT
ATOM      1  C   UNL     1       3.514   2.755  17.271  0.00  0.00    +0.000 C 
ATOM      2  C   UNL     1       3.624   1.652  18.335  0.00  0.00    +0.000 C 
ATOM      3  C   UNL     1       3.323   2.087  19.769  0.00  0.00    +0.000 C 
ATOM      4  C   UNL     1       1.954   2.754  19.955  0.00  0.00    +0.000 C 
ATOM      5  N   UNL     1       1.916   4.125  19.429  0.00  0.00    +0.000 N 
ATOM      6  C   UNL     1       2.240   5.175  20.298  0.00  0.00    +0.000 C 
ATOM      7  O   UNL     1       2.542   4.973  21.476  0.00  0.00    +0.000 OA
ATOM      8  C   UNL     1       1.565   4.307  18.021  0.00  0.00    +0.000 C 
ATOM      9  C   UNL     1       2.049   3.204  17.076  0.00  0.00    +0.000 C 
ENDROOT
BRANCH   1  10
ATOM     10  C   UNL     1       4.442   3.955  17.549  0.00  0.00    +0.000 C 
BRANCH  10  15
ATOM     11  C   UNL     1       8.019   6.566  18.760  0.00  0.00    +0.000 C 
ATOM     12  C   UNL     1       7.231   6.183  17.512  0.00  0.00    +0.000 C 
ATOM     13  C   UNL     1       5.773   6.648  17.640  0.00  0.00    +0.000 C 
ATOM     14  C   UNL     1       4.924   6.115  16.487  0.00  0.00    +0.000 C 
ATOM     15  N   UNL     1       4.982   4.654  16.374  0.00  0.00    +0.000 NA
ATOM     16  C   UNL     1       6.375   4.228  16.135  0.00  0.00    +0.000 C 
ATOM     17  C   UNL     1       7.336   4.674  17.244  0.00  0.00    +0.000 C 
ENDBRANCH  10  15
ENDBRANCH   1  10
BRANCH   6  18
ATOM     18  C   UNL     1       2.233   6.589  19.724  0.00  0.00    +0.000 C 
BRANCH  18  19
ATOM     19  C   UNL     1       1.735   7.625  20.738  0.00  0.00    +0.000 C 
BRANCH  19  20
ATOM     20  C   UNL     1       1.063   8.805  20.068  0.00  0.00    +0.000 A 
ATOM     21  C   UNL     1       1.455   9.205  18.775  0.00  0.00    +0.000 A 
ATOM     22  C   UNL     1       0.861  10.312  18.164  0.00  0.00    +0.000 A 
ATOM     23  C   UNL     1      -0.133  11.027  18.834  0.00  0.00    +0.000 A 
ATOM     24  C   UNL     1      -0.538  10.633  20.100  0.00  0.00    +0.000 A 
ATOM     25  C   UNL     1       0.052   9.529  20.718  0.00  0.00    +0.000 A 
ENDBRANCH  19  20
ENDBRANCH  18  19
ENDBRANCH   6  18
TORSDOF 5
ENDMDL
MODEL 4
REMARK VINA RESULT:      -8.3      3.340      7.942
REMARK  Name = 
REMARK  6 active torsions:
REMARK  status: ('A' for Active; 'I' for Inactive)
REMARK    1  A    between atoms: C_1  and  C_2
REMARK    2  A    between atoms: N_5  and  C_6
REMARK    3  A    between atoms: C_6  and  C_7
REMARK    4  A    between atoms: C_12  and  C_14
REMARK    5  A    between atoms: C_14  and  C_15
REMARK    6  A    between atoms: C_15  and  C_16
REMARK                            x       y       z     vdW  Elec       q    Type
REMARK                         _______ _______ _______ _____ _____    ______ ____
ROOT
ATOM      1  C   UNL     1       4.024   2.586  17.954  0.00  0.00    +0.000 C 
ATOM      2  C   UNL     1       3.966   1.968  19.359  0.00  0.00    +0.000 C 
ATOM      3  C   UNL     1       3.280   2.822  20.426  0.00  0.00    +0.000 C 
ATOM      4  C   UNL     1       1.854   3.258  20.069  0.00  0.00    +0.000 C 
ATOM      5  N   UNL     1       1.824   4.325  19.060  0.00  0.00    +0.000 N 
ATOM      6  C   UNL     1       1.826   5.655  19.504  0.00  0.00    +0.000 C 
ATOM      7  O   UNL     1       1.844   5.938  20.703  0.00  0.00    +0.000 OA
ATOM      8  C   UNL     1       1.819   3.933  17.651  0.00  0.00    +0.000 C 
ATOM      9  C   UNL     1       2.619   2.671  17.318  0.00  0.00    +0.000 C 
ENDROOT
BRANCH   1  10
ATOM     10  C   UNL     1       4.742   3.951  17.925  0.00  0.00    +0.000 C 
BRANCH  10  15
ATOM     11  C   UNL     1       7.987   7.175  18.317  0.00  0.00    +0.000 C 
ATOM     12  C   UNL     1       7.178   6.468  17.236  0.00  0.00    +0.000 C 
ATOM     13  C   UNL     1       5.681   6.759  17.414  0.00  0.00    +0.000 C 
ATOM     14  C   UNL     1       4.840   5.916  16.457  0.00  0.00    +0.000 C 
ATOM     15  N   UNL     1       5.096   4.479  16.600  0.00  0.00    +0.000 NA
ATOM     16  C   UNL     1       6.516   4.196  16.312  0.00  0.00    +0.000 C 
ATOM     17  C   UNL     1       7.478   4.961  17.230  0.00  0.00    +0.000 C 
ENDBRANCH  10  15
ENDBRANCH   1  10
BRANCH   6  18
ATOM     18  C   UNL     1       1.835   6.749  18.441  0.00  0.00    +0.000 C 
BRANCH  18  19
ATOM     19  C   UNL     1       2.379   8.077  18.979  0.00  0.00    +0.000 C 
BRANCH  19  20
ATOM     20  C   UNL     1       1.274   9.067  19.283  0.00  0.00    +0.000 A 
ATOM     21  C   UNL     1       0.742   9.161  20.583  0.00  0.00    +0.000 A 
ATOM     22  C   UNL     1      -0.299  10.051  20.862  0.00  0.00    +0.000 A 
ATOM     23  C   UNL     1      -0.816  10.858  19.847  0.00  0.00    +0.000 A 
ATOM     24  C   UNL     1      -0.289  10.785  18.566  0.00  0.00    +0.000 A 
ATOM     25  C   UNL     1       0.751   9.898  18.280  0.00  0.00    +0.000 A 
ENDBRANCH  19  20
ENDBRANCH  18  19
ENDBRANCH   6  18
TORSDOF 5
ENDMDL
MODEL 5
REMARK VINA RESULT:      -8.3      3.296      7.567
REMARK  Name = 
REMARK  6 active torsions:
REMARK  status: ('A' for Active; 'I' for Inactive)
REMARK    1  A    between atoms: C_1  and  C_2
REMARK    2  A    between atoms: N_5  and  C_6
REMARK    3  A    between atoms: C_6  and  C_7
REMARK    4  A    between atoms: C_12  and  C_14
REMARK    5  A    between atoms: C_14  and  C_15
REMARK    6  A    between atoms: C_15  and  C_16
REMARK                            x       y       z     vdW  Elec       q    Type
REMARK                         _______ _______ _______ _____ _____    ______ ____
ROOT
ATOM      1  C   UNL     1       3.503   2.831  17.339  0.00  0.00    +0.000 C 
ATOM      2  C   UNL     1       4.152   1.779  18.252  0.00  0.00    +0.000 C 
ATOM      3  C   UNL     1       3.969   2.005  19.753  0.00  0.00    +0.000 C 
ATOM      4  C   UNL     1       2.509   2.145  20.199  0.00  0.00    +0.000 C 
ATOM      5  N   UNL     1       1.927   3.444  19.835  0.00  0.00    +0.000 N 
ATOM      6  C   UNL     1       2.024   4.494  20.759  0.00  0.00    +0.000 C 
ATOM      7  O   UNL     1       2.570   4.346  21.854  0.00  0.00    +0.000 OA
ATOM      8  C   UNL     1       1.304   3.569  18.518  0.00  0.00    +0.000 C 
ATOM      9  C   UNL     1       1.961   2.754  17.401  0.00  0.00    +0.000 C 
ENDROOT
BRANCH   1  10
ATOM     10  C   UNL     1       4.010   4.261  17.613  0.00  0.00    +0.000 C 
BRANCH  10  15
ATOM     11  C   UNL     1       7.967   6.192  18.916  0.00  0.00    +0.000 C 
ATOM     12  C   UNL     1       7.106   6.038  17.667  0.00  0.00    +0.000 C 
ATOM     13  C   UNL     1       5.739   6.705  17.877  0.00  0.00    +0.000 C 
ATOM     14  C   UNL     1       4.798   6.405  16.712  0.00  0.00    +0.000 C 
ATOM     15  N   UNL     1       4.629   4.966  16.482  0.00  0.00    +0.000 NA
ATOM     16  C   UNL     1       5.936   4.357  16.166  0.00  0.00    +0.000 C 
ATOM     17  C   UNL     1       6.974   4.558  17.276  0.00  0.00    +0.000 C 
ENDBRANCH  10  15
ENDBRANCH   1  10
BRANCH   6  18
ATOM     18  C   UNL     1       1.449   5.846  20.348  0.00  0.00    +0.000 C 
BRANCH  18  19
ATOM     19  C   UNL     1       2.506   6.757  19.714  0.00  0.00    +0.000 C 
BRANCH  19  20
ATOM     20  C   UNL     1       1.953   8.126  19.377  0.00  0.00    +0.000 A 
ATOM     21  C   UNL     1       1.185   8.834  20.322  0.00  0.00    +0.000 A 
ATOM     22  C   UNL     1       0.645  10.084  20.005  0.00  0.00    +0.000 A 
ATOM     23  C   UNL     1       0.871  10.641  18.745  0.00  0.00    +0.000 A 
ATOM     24  C   UNL     1       1.639   9.960  17.813  0.00  0.00    +0.000 A 
ATOM     25  C   UNL     1       2.181   8.711  18.121  0.00  0.00    +0.000 A 
ENDBRANCH  19  20
ENDBRANCH  18  19
ENDBRANCH   6  18
TORSDOF 5
ENDMDL
MODEL 6
REMARK VINA RESULT:      -8.2      3.504      7.889
REMARK  Name = 
REMARK  6 active torsions:
REMARK  status: ('A' for Active; 'I' for Inactive)
REMARK    1  A    between atoms: C_1  and  C_2
REMARK    2  A    between atoms: N_5  and  C_6
REMARK    3  A    between atoms: C_6  and  C_7
REMARK    4  A    between atoms: C_12  and  C_14
REMARK    5  A    between atoms: C_14  and  C_15
REMARK    6  A    between atoms: C_15  and  C_16
REMARK                            x       y       z     vdW  Elec       q    Type
REMARK                         _______ _______ _______ _____ _____    ______ ____
ROOT
ATOM      1  C   UNL     1       3.693   3.166  18.214  0.00  0.00    +0.000 C 
ATOM      2  C   UNL     1       3.446   2.738  19.668  0.00  0.00    +0.000 C 
ATOM      3  C   UNL     1       2.953   3.842  20.605  0.00  0.00    +0.000 C 
ATOM      4  C   UNL     1       1.686   4.560  20.128  0.00  0.00    +0.000 C 
ATOM      5  N   UNL     1       1.943   5.485  19.017  0.00  0.00    +0.000 N 
ATOM      6  C   UNL     1       2.251   6.818  19.325  0.00  0.00    +0.000 C 
ATOM      7  O   UNL     1       2.301   7.220  20.489  0.00  0.00    +0.000 OA
ATOM      8  C   UNL     1       1.885   4.953  17.656  0.00  0.00    +0.000 C 
ATOM      9  C   UNL     1       2.369   3.509  17.496  0.00  0.00    +0.000 C 
ENDROOT
BRANCH   1  10
ATOM     10  C   UNL     1       4.718   4.311  18.089  0.00  0.00    +0.000 C 
BRANCH  10  15
ATOM     11  C   UNL     1       8.047   7.466  18.298  0.00  0.00    +0.000 C 
ATOM     12  C   UNL     1       7.360   6.570  17.274  0.00  0.00    +0.000 C 
ATOM     13  C   UNL     1       5.871   6.929  17.166  0.00  0.00    +0.000 C 
ATOM     14  C   UNL     1       5.127   5.926  16.285  0.00  0.00    +0.000 C 
ATOM     15  N   UNL     1       5.282   4.545  16.751  0.00  0.00    +0.000 NA
ATOM     16  C   UNL     1       6.711   4.173  16.739  0.00  0.00    +0.000 C 
ATOM     17  C   UNL     1       7.575   5.088  17.616  0.00  0.00    +0.000 C 
ENDBRANCH  10  15
ENDBRANCH   1  10
BRANCH   6  18
ATOM     18  C   UNL     1       2.554   7.755  18.160  0.00  0.00    +0.000 C 
BRANCH  18  19
ATOM     19  C   UNL     1       1.342   8.608  17.771  0.00  0.00    +0.000 C 
BRANCH  19  20
ATOM     20  C   UNL     1       1.363   9.969  18.435  0.00  0.00    +0.000 A 
ATOM     21  C   UNL     1       2.154  11.007  17.904  0.00  0.00    +0.000 A 
ATOM     22  C   UNL     1       2.202  12.254  18.530  0.00  0.00    +0.000 A 
ATOM     23  C   UNL     1       1.458  12.481  19.689  0.00  0.00    +0.000 A 
ATOM     24  C   UNL     1       0.663  11.472  20.212  0.00  0.00    +0.000 A 
ATOM     25  C   UNL     1       0.611  10.222  19.593  0.00  0.00    +0.000 A 
ENDBRANCH  19  20
ENDBRANCH  18  19
ENDBRANCH   6  18
TORSDOF 5
ENDMDL
MODEL 7
REMARK VINA RESULT:      -8.2      3.335      7.414
REMARK  Name = 
REMARK  6 active torsions:
REMARK  status: ('A' for Active; 'I' for Inactive)
REMARK    1  A    between atoms: C_1  and  C_2
REMARK    2  A    between atoms: N_5  and  C_6
REMARK    3  A    between atoms: C_6  and  C_7
REMARK    4  A    between atoms: C_12  and  C_14
REMARK    5  A    between atoms: C_14  and  C_15
REMARK    6  A    between atoms: C_15  and  C_16
REMARK                            x       y       z     vdW  Elec       q    Type
REMARK                         _______ _______ _______ _____ _____    ______ ____
ROOT
ATOM      1  C   UNL     1       4.696   3.758  17.588  0.00  0.00    +0.000 C 
ATOM      2  C   UNL     1       5.401   4.145  16.279  0.00  0.00    +0.000 C 
ATOM      3  C   UNL     1       5.141   5.569  15.787  0.00  0.00    +0.000 C 
ATOM      4  C   UNL     1       5.464   6.663  16.811  0.00  0.00    +0.000 C 
ATOM      5  N   UNL     1       4.465   6.749  17.884  0.00  0.00    +0.000 N 
ATOM      6  C   UNL     1       3.379   7.617  17.708  0.00  0.00    +0.000 C 
ATOM      7  O   UNL     1       3.255   8.303  16.691  0.00  0.00    +0.000 OA
ATOM      8  C   UNL     1       4.652   5.902  19.061  0.00  0.00    +0.000 C 
ATOM      9  C   UNL     1       5.280   4.532  18.791  0.00  0.00    +0.000 C 
ENDROOT
BRANCH   1  10
ATOM     10  C   UNL     1       3.163   3.901  17.511  0.00  0.00    +0.000 C 
BRANCH  10  15
ATOM     11  C   UNL     1       2.100   3.321  21.940  0.00  0.00    +0.000 C 
ATOM     12  C   UNL     1       1.873   2.643  20.593  0.00  0.00    +0.000 C 
ATOM     13  C   UNL     1       3.213   2.199  19.988  0.00  0.00    +0.000 C 
ATOM     14  C   UNL     1       3.026   1.686  18.562  0.00  0.00    +0.000 C 
ATOM     15  N   UNL     1       2.379   2.670  17.689  0.00  0.00    +0.000 NA
ATOM     16  C   UNL     1       1.042   3.001  18.220  0.00  0.00    +0.000 C 
ATOM     17  C   UNL     1       1.086   3.563  19.647  0.00  0.00    +0.000 C 
ENDBRANCH  10  15
ENDBRANCH   1  10
BRANCH   6  18
ATOM     18  C   UNL     1       2.330   7.663  18.815  0.00  0.00    +0.000 C 
BRANCH  18  19
ATOM     19  C   UNL     1       1.477   8.935  18.754  0.00  0.00    +0.000 C 
BRANCH  19  20
ATOM     20  C   UNL     1       0.885   9.292  20.101  0.00  0.00    +0.000 A 
ATOM     21  C   UNL     1      -0.091  10.303  20.204  0.00  0.00    +0.000 A 
ATOM     22  C   UNL     1      -0.618  10.657  21.448  0.00  0.00    +0.000 A 
ATOM     23  C   UNL     1      -0.181  10.004  22.601  0.00  0.00    +0.000 A 
ATOM     24  C   UNL     1       0.768   8.997  22.511  0.00  0.00    +0.000 A 
ATOM     25  C   UNL     1       1.300   8.638  21.271  0.00  0.00    +0.000 A 
ENDBRANCH  19  20
ENDBRANCH  18  19
ENDBRANCH   6  18
TORSDOF 5
ENDMDL
MODEL 8
REMARK VINA RESULT:      -7.7      3.066      7.141
REMARK  Name = 
REMARK  6 active torsions:
REMARK  status: ('A' for Active; 'I' for Inactive)
REMARK    1  A    between atoms: C_1  and  C_2
REMARK    2  A    between atoms: N_5  and  C_6
REMARK    3  A    between atoms: C_6  and  C_7
REMARK    4  A    between atoms: C_12  and  C_14
REMARK    5  A    between atoms: C_14  and  C_15
REMARK    6  A    between atoms: C_15  and  C_16
REMARK                            x       y       z     vdW  Elec       q    Type
REMARK                         _______ _______ _______ _____ _____    ______ ____
ROOT
ATOM      1  C   UNL     1       5.555   3.647  16.877  0.00  0.00    +0.000 C 
ATOM      2  C   UNL     1       5.838   4.192  15.469  0.00  0.00    +0.000 C 
ATOM      3  C   UNL     1       5.265   5.578  15.171  0.00  0.00    +0.000 C 
ATOM      4  C   UNL     1       5.686   6.666  16.166  0.00  0.00    +0.000 C 
ATOM      5  N   UNL     1       4.995   6.552  17.457  0.00  0.00    +0.000 N 
ATOM      6  C   UNL     1       3.790   7.249  17.625  0.00  0.00    +0.000 C 
ATOM      7  O   UNL     1       3.316   7.949  16.729  0.00  0.00    +0.000 OA
ATOM      8  C   UNL     1       5.594   5.696  18.480  0.00  0.00    +0.000 C 
ATOM      9  C   UNL     1       6.315   4.451  17.955  0.00  0.00    +0.000 C 
ENDROOT
BRANCH   1  10
ATOM     10  C   UNL     1       4.049   3.555  17.195  0.00  0.00    +0.000 C 
BRANCH  10  15
ATOM     11  C   UNL     1       1.155   4.429  20.650  0.00  0.00    +0.000 C 
ATOM     12  C   UNL     1       1.764   3.238  19.920  0.00  0.00    +0.000 C 
ATOM     13  C   UNL     1       3.291   3.235  20.085  0.00  0.00    +0.000 C 
ATOM     14  C   UNL     1       3.935   2.160  19.212  0.00  0.00    +0.000 C 
ATOM     15  N   UNL     1       3.580   2.298  17.796  0.00  0.00    +0.000 NA
ATOM     16  C   UNL     1       2.117   2.182  17.637  0.00  0.00    +0.000 C 
ATOM     17  C   UNL     1       1.342   3.232  18.442  0.00  0.00    +0.000 C 
ENDBRANCH  10  15
ENDBRANCH   1  10
BRANCH   6  18
ATOM     18  C   UNL     1       3.066   7.087  18.958  0.00  0.00    +0.000 C 
BRANCH  18  19
ATOM     19  C   UNL     1       1.597   7.516  18.876  0.00  0.00    +0.000 C 
BRANCH  19  20
ATOM     20  C   UNL     1       1.242   8.546  19.928  0.00  0.00    +0.000 A 
ATOM     21  C   UNL     1       1.193   8.184  21.289  0.00  0.00    +0.000 A 
ATOM     22  C   UNL     1       0.835   9.123  22.260  0.00  0.00    +0.000 A 
ATOM     23  C   UNL     1       0.529  10.432  21.884  0.00  0.00    +0.000 A 
ATOM     24  C   UNL     1       0.589  10.803  20.549  0.00  0.00    +0.000 A 
ATOM     25  C   UNL     1       0.944   9.870  19.573  0.00  0.00    +0.000 A 
ENDBRANCH  19  20
ENDBRANCH  18  19
ENDBRANCH   6  18
TORSDOF 5
ENDMDL
MODEL 9
REMARK VINA RESULT:      -7.7      3.510      7.561
REMARK  Name = 
REMARK  6 active torsions:
REMARK  status: ('A' for Active; 'I' for Inactive)
REMARK    1  A    between atoms: C_1  and  C_2
REMARK    2  A    between atoms: N_5  and  C_6
REMARK    3  A    between atoms: C_6  and  C_7
REMARK    4  A    between atoms: C_12  and  C_14
REMARK    5  A    between atoms: C_14  and  C_15
REMARK    6  A    between atoms: C_15  and  C_16
REMARK                            x       y       z     vdW  Elec       q    Type
REMARK                         _______ _______ _______ _____ _____    ______ ____
ROOT
ATOM      1  C   UNL     1       4.671   3.846  17.552  0.00  0.00    +0.000 C 
ATOM      2  C   UNL     1       5.352   4.521  16.352  0.00  0.00    +0.000 C 
ATOM      3  C   UNL     1       4.912   5.957  16.067  0.00  0.00    +0.000 C 
ATOM      4  C   UNL     1       5.054   6.912  17.259  0.00  0.00    +0.000 C 
ATOM      5  N   UNL     1       4.024   6.698  18.283  0.00  0.00    +0.000 N 
ATOM      6  C   UNL     1       2.834   7.433  18.187  0.00  0.00    +0.000 C 
ATOM      7  O   UNL     1       2.646   8.246  17.280  0.00  0.00    +0.000 OA
ATOM      8  C   UNL     1       4.293   5.710  19.327  0.00  0.00    +0.000 C 
ATOM      9  C   UNL     1       5.110   4.493  18.885  0.00  0.00    +0.000 C 
ENDROOT
BRANCH   1  10
ATOM     10  C   UNL     1       3.136   3.796  17.424  0.00  0.00    +0.000 C 
BRANCH  10  15
ATOM     11  C   UNL     1       2.063   3.264  21.856  0.00  0.00    +0.000 C 
ATOM     12  C   UNL     1       1.945   2.513  20.535  0.00  0.00    +0.000 C 
ATOM     13  C   UNL     1       3.340   2.210  19.968  0.00  0.00    +0.000 C 
ATOM     14  C   UNL     1       3.244   1.623  18.561  0.00  0.00    +0.000 C 
ATOM     15  N   UNL     1       2.500   2.488  17.640  0.00  0.00    +0.000 NA
ATOM     16  C   UNL     1       1.123   2.677  18.137  0.00  0.00    +0.000 C 
ATOM     17  C   UNL     1       1.073   3.294  19.540  0.00  0.00    +0.000 C 
ENDBRANCH  10  15
ENDBRANCH   1  10
BRANCH   6  18
ATOM     18  C   UNL     1       1.759   7.168  19.236  0.00  0.00    +0.000 C 
BRANCH  18  19
ATOM     19  C   UNL     1       2.091   7.818  20.585  0.00  0.00    +0.000 C 
BRANCH  19  20
ATOM     20  C   UNL     1       1.089   8.887  20.967  0.00  0.00    +0.000 A 
ATOM     21  C   UNL     1       0.751   9.092  22.319  0.00  0.00    +0.000 A 
ATOM     22  C   UNL     1      -0.196  10.055  22.675  0.00  0.00    +0.000 A 
ATOM     23  C   UNL     1      -0.811  10.826  21.687  0.00  0.00    +0.000 A 
ATOM     24  C   UNL     1      -0.474  10.643  20.354  0.00  0.00    +0.000 A 
ATOM     25  C   UNL     1       0.470   9.682  19.990  0.00  0.00    +0.000 A 
ENDBRANCH  19  20
ENDBRANCH  18  19
ENDBRANCH   6  18
TORSDOF 5
ENDMDL
