MODEL 1
REMARK VINA RESULT:      -7.8      0.000      0.000
REMARK  Name = 
REMARK  2 active torsions:
REMARK  status: ('A' for Active; 'I' for Inactive)
REMARK    1  A    between atoms: C_1  and  O_2
REMARK    2  A    between atoms: O_2  and  C_3
REMARK                            x       y       z     vdW  Elec       q    Type
REMARK                         _______ _______ _______ _____ _____    ______ ____
ROOT
ATOM      1  C   UNL     1       2.048   3.364  18.626  0.00  0.00    +0.000 A 
ATOM      2  C   UNL     1       2.942   2.527  17.942  0.00  0.00    +0.000 A 
ATOM      3  C   UNL     1       4.044   3.060  17.261  0.00  0.00    +0.000 A 
ATOM      4  C   UNL     1       4.244   4.434  17.278  0.00  0.00    +0.000 A 
ATOM      5  C   UNL     1       3.358   5.265  17.960  0.00  0.00    +0.000 A 
ATOM      6  C   UNL     1       2.261   4.746  18.633  0.00  0.00    +0.000 A 
ATOM      7  C   UNL     1       3.746   6.704  17.865  0.00  0.00    +0.000 C 
ATOM      8  C   UNL     1       5.041   6.686  17.036  0.00  0.00    +0.000 C 
ATOM      9  C   UNL     1       5.342   5.227  16.645  0.00  0.00    +0.000 C 
ATOM     10  N   UNL     1       5.431   5.059  15.216  0.00  0.00    +0.000 N 
ATOM     11  C   UNL     1       6.722   4.824  14.812  0.00  0.00    +0.000 C 
ATOM     12  O   UNL     1       7.099   4.790  13.654  0.00  0.00    +0.000 OA
ATOM     13  N   UNL     1       7.491   4.643  15.912  0.00  0.00    +0.000 N 
ATOM     14  C   UNL     1       6.766   4.829  17.051  0.00  0.00    +0.000 C 
ATOM     15  O   UNL     1       7.220   4.738  18.181  0.00  0.00    +0.000 OA
ATOM     16  H   UNL     1       4.697   5.266  14.554  0.00  0.00    +0.000 HD
ATOM     17  H   UNL     1       8.476   4.431  15.883  0.00  0.00    +0.000 HD
ENDROOT
BRANCH   1  19
ATOM     18  C   UNL     1       1.046   2.930  20.738  0.00  0.00    +0.000 C 
ATOM     19  O   UNL     1       0.940   2.954  19.320  0.00  0.00    +0.000 OA
ENDBRANCH   1  19
TORSDOF 1
ENDMDL
MODEL 2
REMARK VINA RESULT:      -7.6      2.430      5.568
REMARK  Name = 
REMARK  2 active torsions:
REMARK  status: ('A' for Active; 'I' for Inactive)
REMARK    1  A    between atoms: C_1  and  O_2
REMARK    2  A    between atoms: O_2  and  C_3
REMARK                            x       y       z     vdW  Elec       q    Type
REMARK                         _______ _______ _______ _____ _____    ______ ____
ROOT
ATOM      1  C   UNL     1       5.628   5.330  15.976  0.00  0.00    +0.000 A 
ATOM      2  C   UNL     1       5.521   4.019  16.464  0.00  0.00    +0.000 A 
ATOM      3  C   UNL     1       4.618   3.708  17.490  0.00  0.00    +0.000 A 
ATOM      4  C   UNL     1       3.823   4.719  18.015  0.00  0.00    +0.000 A 
ATOM      5  C   UNL     1       3.928   6.020  17.528  0.00  0.00    +0.000 A 
ATOM      6  C   UNL     1       4.822   6.337  16.515  0.00  0.00    +0.000 A 
ATOM      7  C   UNL     1       2.989   6.957  18.213  0.00  0.00    +0.000 C 
ATOM      8  C   UNL     1       2.233   6.063  19.209  0.00  0.00    +0.000 C 
ATOM      9  C   UNL     1       2.789   4.632  19.090  0.00  0.00    +0.000 C 
ATOM     10  N   UNL     1       3.297   4.145  20.348  0.00  0.00    +0.000 N 
ATOM     11  C   UNL     1       2.493   3.166  20.877  0.00  0.00    +0.000 C 
ATOM     12  O   UNL     1       2.610   2.689  21.991  0.00  0.00    +0.000 OA
ATOM     13  N   UNL     1       1.558   2.834  19.955  0.00  0.00    +0.000 N 
ATOM     14  C   UNL     1       1.663   3.620  18.847  0.00  0.00    +0.000 C 
ATOM     15  O   UNL     1       0.934   3.538  17.871  0.00  0.00    +0.000 OA
ATOM     16  H   UNL     1       4.038   4.572  20.887  0.00  0.00    +0.000 HD
ATOM     17  H   UNL     1       0.860   2.119  20.092  0.00  0.00    +0.000 HD
ENDROOT
BRANCH   1  19
ATOM     18  C   UNL     1       6.919   4.756  14.064  0.00  0.00    +0.000 C 
ATOM     19  O   UNL     1       6.474   5.746  14.983  0.00  0.00    +0.000 OA
ENDBRANCH   1  19
TORSDOF 1
ENDMDL
MODEL 3
REMARK VINA RESULT:      -7.3      2.734      5.619
REMARK  Name = 
REMARK  2 active torsions:
REMARK  status: ('A' for Active; 'I' for Inactive)
REMARK    1  A    between atoms: C_1  and  O_2
REMARK    2  A    between atoms: O_2  and  C_3
REMARK                            x       y       z     vdW  Elec       q    Type
REMARK                         _______ _______ _______ _____ _____    ______ ____
ROOT
ATOM      1  C   UNL     1       6.439   6.063  17.440  0.00  0.00    +0.000 A 
ATOM      2  C   UNL     1       6.548   4.798  18.037  0.00  0.00    +0.000 A 
ATOM      3  C   UNL     1       5.426   4.171  18.596  0.00  0.00    +0.000 A 
ATOM      4  C   UNL     1       4.199   4.820  18.546  0.00  0.00    +0.000 A 
ATOM      5  C   UNL     1       4.091   6.075  17.951  0.00  0.00    +0.000 A 
ATOM      6  C   UNL     1       5.198   6.705  17.398  0.00  0.00    +0.000 A 
ATOM      7  C   UNL     1       2.695   6.601  17.991  0.00  0.00    +0.000 C 
ATOM      8  C   UNL     1       1.897   5.484  18.683  0.00  0.00    +0.000 C 
ATOM      9  C   UNL     1       2.874   4.353  19.055  0.00  0.00    +0.000 C 
ATOM     10  N   UNL     1       2.860   4.071  20.468  0.00  0.00    +0.000 N 
ATOM     11  C   UNL     1       2.269   2.862  20.739  0.00  0.00    +0.000 C 
ATOM     12  O   UNL     1       1.997   2.449  21.853  0.00  0.00    +0.000 OA
ATOM     13  N   UNL     1       2.040   2.223  19.568  0.00  0.00    +0.000 N 
ATOM     14  C   UNL     1       2.391   3.005  18.508  0.00  0.00    +0.000 C 
ATOM     15  O   UNL     1       2.276   2.673  17.339  0.00  0.00    +0.000 OA
ATOM     16  H   UNL     1       3.077   4.733  21.201  0.00  0.00    +0.000 HD
ATOM     17  H   UNL     1       1.635   1.303  19.498  0.00  0.00    +0.000 HD
ENDROOT
BRANCH   1  19
ATOM     18  C   UNL     1       7.818   7.999  17.486  0.00  0.00    +0.000 C 
ATOM     19  O   UNL     1       7.465   6.768  16.868  0.00  0.00    +0.000 OA
ENDBRANCH   1  19
TORSDOF 1
ENDMDL
MODEL 4
REMARK VINA RESULT:      -7.2      2.475      5.491
REMARK  Name = 
REMARK  2 active torsions:
REMARK  status: ('A' for Active; 'I' for Inactive)
REMARK    1  A    between atoms: C_1  and  O_2
REMARK    2  A    between atoms: O_2  and  C_3
REMARK                            x       y       z     vdW  Elec       q    Type
REMARK                         _______ _______ _______ _____ _____    ______ ____
ROOT
ATOM      1  C   UNL     1       6.734   4.880  14.610  0.00  0.00    +0.000 A 
ATOM      2  C   UNL     1       5.517   4.217  14.830  0.00  0.00    +0.000 A 
ATOM      3  C   UNL     1       5.002   4.077  16.126  0.00  0.00    +0.000 A 
ATOM      4  C   UNL     1       5.712   4.611  17.193  0.00  0.00    +0.000 A 
ATOM      5  C   UNL     1       6.919   5.272  16.973  0.00  0.00    +0.000 A 
ATOM      6  C   UNL     1       7.439   5.412  15.693  0.00  0.00    +0.000 A 
ATOM      7  C   UNL     1       7.525   5.778  18.241  0.00  0.00    +0.000 C 
ATOM      8  C   UNL     1       6.514   5.369  19.325  0.00  0.00    +0.000 C 
ATOM      9  C   UNL     1       5.364   4.602  18.646  0.00  0.00    +0.000 C 
ATOM     10  N   UNL     1       5.200   3.280  19.196  0.00  0.00    +0.000 N 
ATOM     11  C   UNL     1       4.052   3.180  19.943  0.00  0.00    +0.000 C 
ATOM     12  O   UNL     1       3.747   2.224  20.634  0.00  0.00    +0.000 OA
ATOM     13  N   UNL     1       3.333   4.316  19.781  0.00  0.00    +0.000 N 
ATOM     14  C   UNL     1       4.005   5.213  19.006  0.00  0.00    +0.000 C 
ATOM     15  O   UNL     1       3.586   6.322  18.715  0.00  0.00    +0.000 OA
ATOM     16  H   UNL     1       5.905   2.557  19.207  0.00  0.00    +0.000 HD
ATOM     17  H   UNL     1       2.434   4.480  20.208  0.00  0.00    +0.000 HD
ENDROOT
BRANCH   1  19
ATOM     18  C   UNL     1       6.976   4.164  12.356  0.00  0.00    +0.000 C 
ATOM     19  O   UNL     1       7.331   5.072  13.392  0.00  0.00    +0.000 OA
ENDBRANCH   1  19
TORSDOF 1
ENDMDL
MODEL 5
REMARK VINA RESULT:      -7.2      2.944      4.262
REMARK  Name = 
REMARK  2 active torsions:
REMARK  status: ('A' for Active; 'I' for Inactive)
REMARK    1  A    between atoms: C_1  and  O_2
REMARK    2  A    between atoms: O_2  and  C_3
REMARK                            x       y       z     vdW  Elec       q    Type
REMARK                         _______ _______ _______ _____ _____    ______ ____
ROOT
ATOM      1  C   UNL     1       2.037   8.338  18.991  0.00  0.00    +0.000 A 
ATOM      2  C   UNL     1       1.904   7.279  19.902  0.00  0.00    +0.000 A 
ATOM      3  C   UNL     1       2.581   6.069  19.697  0.00  0.00    +0.000 A 
ATOM      4  C   UNL     1       3.393   5.934  18.579  0.00  0.00    +0.000 A 
ATOM      5  C   UNL     1       3.527   6.987  17.676  0.00  0.00    +0.000 A 
ATOM      6  C   UNL     1       2.857   8.187  17.870  0.00  0.00    +0.000 A 
ATOM      7  C   UNL     1       4.444   6.650  16.547  0.00  0.00    +0.000 C 
ATOM      8  C   UNL     1       4.912   5.220  16.863  0.00  0.00    +0.000 C 
ATOM      9  C   UNL     1       4.216   4.760  18.157  0.00  0.00    +0.000 C 
ATOM     10  N   UNL     1       3.452   3.554  17.959  0.00  0.00    +0.000 N 
ATOM     11  C   UNL     1       4.036   2.476  18.577  0.00  0.00    +0.000 C 
ATOM     12  O   UNL     1       3.679   1.318  18.449  0.00  0.00    +0.000 OA
ATOM     13  N   UNL     1       5.064   2.921  19.338  0.00  0.00    +0.000 N 
ATOM     14  C   UNL     1       5.238   4.264  19.187  0.00  0.00    +0.000 C 
ATOM     15  O   UNL     1       6.104   4.914  19.751  0.00  0.00    +0.000 OA
ATOM     16  H   UNL     1       2.690   3.444  17.306  0.00  0.00    +0.000 HD
ATOM     17  H   UNL     1       5.639   2.324  19.913  0.00  0.00    +0.000 HD
ENDROOT
BRANCH   1  19
ATOM     18  C   UNL     1       0.706   9.819  20.290  0.00  0.00    +0.000 C 
ATOM     19  O   UNL     1       1.422   9.558  19.090  0.00  0.00    +0.000 OA
ENDBRANCH   1  19
TORSDOF 1
ENDMDL
MODEL 6
REMARK VINA RESULT:      -7.1      1.350      1.350
REMARK  Name = 
REMARK  2 active torsions:
REMARK  status: ('A' for Active; 'I' for Inactive)
REMARK    1  A    between atoms: C_1  and  O_2
REMARK    2  A    between atoms: O_2  and  C_3
REMARK                            x       y       z     vdW  Elec       q    Type
REMARK                         _______ _______ _______ _____ _____    ______ ____
ROOT
ATOM      1  C   UNL     1       3.399   3.803  20.208  0.00  0.00    +0.000 A 
ATOM      2  C   UNL     1       4.488   3.126  19.639  0.00  0.00    +0.000 A 
ATOM      3  C   UNL     1       5.173   3.666  18.543  0.00  0.00    +0.000 A 
ATOM      4  C   UNL     1       4.762   4.889  18.028  0.00  0.00    +0.000 A 
ATOM      5  C   UNL     1       3.681   5.562  18.596  0.00  0.00    +0.000 A 
ATOM      6  C   UNL     1       2.995   5.032  19.679  0.00  0.00    +0.000 A 
ATOM      7  C   UNL     1       3.399   6.856  17.908  0.00  0.00    +0.000 C 
ATOM      8  C   UNL     1       4.478   6.941  16.816  0.00  0.00    +0.000 C 
ATOM      9  C   UNL     1       5.336   5.664  16.887  0.00  0.00    +0.000 C 
ATOM     10  N   UNL     1       5.337   4.946  15.638  0.00  0.00    +0.000 N 
ATOM     11  C   UNL     1       6.552   5.029  15.004  0.00  0.00    +0.000 C 
ATOM     12  O   UNL     1       6.781   4.639  13.873  0.00  0.00    +0.000 OA
ATOM     13  N   UNL     1       7.435   5.618  15.845  0.00  0.00    +0.000 N 
ATOM     14  C   UNL     1       6.826   6.006  17.001  0.00  0.00    +0.000 C 
ATOM     15  O   UNL     1       7.393   6.571  17.923  0.00  0.00    +0.000 OA
ATOM     16  H   UNL     1       4.519   4.578  15.172  0.00  0.00    +0.000 HD
ATOM     17  H   UNL     1       8.406   5.774  15.623  0.00  0.00    +0.000 HD
ENDROOT
BRANCH   1  19
ATOM     18  C   UNL     1       1.284   3.089  21.028  0.00  0.00    +0.000 C 
ATOM     19  O   UNL     1       2.657   3.369  21.275  0.00  0.00    +0.000 OA
ENDBRANCH   1  19
TORSDOF 1
ENDMDL
MODEL 7
REMARK VINA RESULT:      -7.0      2.211      5.534
REMARK  Name = 
REMARK  2 active torsions:
REMARK  status: ('A' for Active; 'I' for Inactive)
REMARK    1  A    between atoms: C_1  and  O_2
REMARK    2  A    between atoms: O_2  and  C_3
REMARK                            x       y       z     vdW  Elec       q    Type
REMARK                         _______ _______ _______ _____ _____    ______ ____
ROOT
ATOM      1  C   UNL     1       6.901   5.093  15.164  0.00  0.00    +0.000 A 
ATOM      2  C   UNL     1       5.686   4.487  14.810  0.00  0.00    +0.000 A 
ATOM      3  C   UNL     1       4.721   4.196  15.784  0.00  0.00    +0.000 A 
ATOM      4  C   UNL     1       4.982   4.522  17.108  0.00  0.00    +0.000 A 
ATOM      5  C   UNL     1       6.188   5.127  17.459  0.00  0.00    +0.000 A 
ATOM      6  C   UNL     1       7.151   5.415  16.501  0.00  0.00    +0.000 A 
ATOM      7  C   UNL     1       6.277   5.403  18.923  0.00  0.00    +0.000 C 
ATOM      8  C   UNL     1       4.931   4.908  19.477  0.00  0.00    +0.000 C 
ATOM      9  C   UNL     1       4.114   4.325  18.308  0.00  0.00    +0.000 C 
ATOM     10  N   UNL     1       3.746   2.951  18.541  0.00  0.00    +0.000 N 
ATOM     11  C   UNL     1       2.401   2.820  18.784  0.00  0.00    +0.000 C 
ATOM     12  O   UNL     1       1.852   1.796  19.152  0.00  0.00    +0.000 OA
ATOM     13  N   UNL     1       1.803   4.012  18.551  0.00  0.00    +0.000 N 
ATOM     14  C   UNL     1       2.724   4.966  18.233  0.00  0.00    +0.000 C 
ATOM     15  O   UNL     1       2.452   6.131  17.987  0.00  0.00    +0.000 OA
ATOM     16  H   UNL     1       4.391   2.189  18.697  0.00  0.00    +0.000 HD
ATOM     17  H   UNL     1       0.812   4.172  18.636  0.00  0.00    +0.000 HD
ENDROOT
BRANCH   1  19
ATOM     18  C   UNL     1       7.720   5.081  12.932  0.00  0.00    +0.000 C 
ATOM     19  O   UNL     1       7.913   5.420  14.300  0.00  0.00    +0.000 OA
ENDBRANCH   1  19
TORSDOF 1
ENDMDL
MODEL 8
REMARK VINA RESULT:      -7.0      2.356      5.409
REMARK  Name = 
REMARK  2 active torsions:
REMARK  status: ('A' for Active; 'I' for Inactive)
REMARK    1  A    between atoms: C_1  and  O_2
REMARK    2  A    between atoms: O_2  and  C_3
REMARK                            x       y       z     vdW  Elec       q    Type
REMARK                         _______ _______ _______ _____ _____    ______ ____
ROOT
ATOM      1  C   UNL     1       6.420   5.064  14.571  0.00  0.00    +0.000 A 
ATOM      2  C   UNL     1       6.440   3.714  14.953  0.00  0.00    +0.000 A 
ATOM      3  C   UNL     1       5.774   3.287  16.110  0.00  0.00    +0.000 A 
ATOM      4  C   UNL     1       5.085   4.220  16.873  0.00  0.00    +0.000 A 
ATOM      5  C   UNL     1       5.063   5.561  16.491  0.00  0.00    +0.000 A 
ATOM      6  C   UNL     1       5.723   5.993  15.350  0.00  0.00    +0.000 A 
ATOM      7  C   UNL     1       4.267   6.402  17.434  0.00  0.00    +0.000 C 
ATOM      8  C   UNL     1       3.750   5.402  18.480  0.00  0.00    +0.000 C 
ATOM      9  C   UNL     1       4.297   4.007  18.124  0.00  0.00    +0.000 C 
ATOM     10  N   UNL     1       5.063   3.437  19.204  0.00  0.00    +0.000 N 
ATOM     11  C   UNL     1       4.403   2.389  19.797  0.00  0.00    +0.000 C 
ATOM     12  O   UNL     1       4.756   1.826  20.818  0.00  0.00    +0.000 OA
ATOM     13  N   UNL     1       3.305   2.100  19.059  0.00  0.00    +0.000 N 
ATOM     14  C   UNL     1       3.164   2.978  18.027  0.00  0.00    +0.000 C 
ATOM     15  O   UNL     1       2.251   2.950  17.217  0.00  0.00    +0.000 OA
ATOM     16  H   UNL     1       5.890   3.845  19.617  0.00  0.00    +0.000 HD
ATOM     17  H   UNL     1       2.664   1.351  19.272  0.00  0.00    +0.000 HD
ENDROOT
BRANCH   1  19
ATOM     18  C   UNL     1       7.358   4.685  12.420  0.00  0.00    +0.000 C 
ATOM     19  O   UNL     1       7.035   5.592  13.467  0.00  0.00    +0.000 OA
ENDBRANCH   1  19
TORSDOF 1
ENDMDL
MODEL 9
REMARK VINA RESULT:      -7.0      2.744      5.645
REMARK  Name = 
REMARK  2 active torsions:
REMARK  status: ('A' for Active; 'I' for Inactive)
REMARK    1  A    between atoms: C_1  and  O_2
REMARK    2  A    between atoms: O_2  and  C_3
REMARK                            x       y       z     vdW  Elec       q    Type
REMARK                         _______ _______ _______ _____ _____    ______ ____
ROOT
ATOM      1  C   UNL     1       6.431   4.717  16.641  0.00  0.00    +0.000 A 
ATOM      2  C   UNL     1       6.495   5.367  17.883  0.00  0.00    +0.000 A 
ATOM      3  C   UNL     1       5.365   5.448  18.707  0.00  0.00    +0.000 A 
ATOM      4  C   UNL     1       4.177   4.870  18.279  0.00  0.00    +0.000 A 
ATOM      5  C   UNL     1       4.115   4.223  17.047  0.00  0.00    +0.000 A 
ATOM      6  C   UNL     1       5.229   4.141  16.222  0.00  0.00    +0.000 A 
ATOM      7  C   UNL     1       2.758   3.664  16.770  0.00  0.00    +0.000 C 
ATOM      8  C   UNL     1       1.946   4.023  18.025  0.00  0.00    +0.000 C 
ATOM      9  C   UNL     1       2.858   4.816  18.979  0.00  0.00    +0.000 C 
ATOM     10  N   UNL     1       2.312   6.112  19.294  0.00  0.00    +0.000 N 
ATOM     11  C   UNL     1       1.873   6.176  20.593  0.00  0.00    +0.000 C 
ATOM     12  O   UNL     1       1.241   7.100  21.074  0.00  0.00    +0.000 OA
ATOM     13  N   UNL     1       2.256   5.046  21.233  0.00  0.00    +0.000 N 
ATOM     14  C   UNL     1       2.875   4.185  20.377  0.00  0.00    +0.000 C 
ATOM     15  O   UNL     1       3.308   3.089  20.694  0.00  0.00    +0.000 OA
ATOM     16  H   UNL     1       2.095   6.835  18.623  0.00  0.00    +0.000 HD
ATOM     17  H   UNL     1       2.075   4.861  22.208  0.00  0.00    +0.000 HD
ENDROOT
BRANCH   1  19
ATOM     18  C   UNL     1       7.167   4.783  14.381  0.00  0.00    +0.000 C 
ATOM     19  O   UNL     1       7.468   4.580  15.756  0.00  0.00    +0.000 OA
ENDBRANCH   1  19
TORSDOF 1
ENDMDL
