MODEL 1
REMARK VINA RESULT:      -8.1      0.000      0.000
REMARK  Name = 
REMARK  6 active torsions:
REMARK  status: ('A' for Active; 'I' for Inactive)
REMARK    1  A    between atoms: N_1  and  C_2
REMARK    2  A    between atoms: C_3  and  S_4
REMARK    3  A    between atoms: S_4  and  O_7
REMARK    4  A    between atoms: C_9  and  N_10
REMARK    5  A    between atoms: N_10  and  C_11
REMARK    6  A    between atoms: C_16  and  O_17
REMARK                            x       y       z     vdW  Elec       q    Type
REMARK                         _______ _______ _______ _____ _____    ______ ____
ROOT
ATOM      1  C   UNL     1       2.557   5.048  20.125  0.00  0.00    +0.000 A 
ATOM      2  C   UNL     1       3.399   4.188  19.419  0.00  0.00    +0.000 A 
ATOM      3  C   UNL     1       4.047   4.614  18.255  0.00  0.00    +0.000 A 
ATOM      4  C   UNL     1       3.864   5.898  17.723  0.00  0.00    +0.000 A 
ATOM      5  C   UNL     1       3.015   6.787  18.417  0.00  0.00    +0.000 A 
ATOM      6  C   UNL     1       2.362   6.360  19.594  0.00  0.00    +0.000 A 
ATOM      7  C   UNL     1       1.500   7.323  20.338  0.00  0.00    +0.000 C 
ATOM      8  O   UNL     1       0.983   7.017  21.410  0.00  0.00    +0.000 OA
ATOM      9  C   UNL     1       1.284   8.680  19.822  0.00  0.00    +0.000 A 
ATOM     10  C   UNL     1       0.447   9.560  20.524  0.00  0.00    +0.000 A 
ATOM     11  C   UNL     1       0.252  10.861  20.065  0.00  0.00    +0.000 A 
ATOM     12  C   UNL     1       0.893  11.286  18.903  0.00  0.00    +0.000 A 
ATOM     13  C   UNL     1       1.726  10.408  18.202  0.00  0.00    +0.000 A 
ATOM     14  C   UNL     1       1.923   9.099  18.663  0.00  0.00    +0.000 A 
ATOM     15  C   UNL     1       2.809   8.178  17.925  0.00  0.00    +0.000 C 
ATOM     16  O   UNL     1       3.355   8.580  16.902  0.00  0.00    +0.000 OA
ENDROOT
BRANCH   1  17
ATOM     17  N   UNL     1       1.757   4.579  21.187  0.00  0.00    +0.000 N 
ATOM     18  H   UNL     1       2.225   3.933  21.826  0.00  0.00    +0.000 HD
ATOM     19  H   UNL     1       1.305   5.345  21.709  0.00  0.00    +0.000 HD
ENDBRANCH   1  17
BRANCH   2  20
ATOM     20  S   UNL     1       3.730   2.507  19.885  0.00  0.00    +0.000 S 
ATOM     21  O   UNL     1       3.530   2.420  21.316  0.00  0.00    +0.000 OA
ATOM     22  O   UNL     1       3.016   1.665  18.950  0.00  0.00    +0.000 OA
BRANCH  20  23
ATOM     23  O   UNL     1       5.309   2.256  19.662  0.00  0.00    +0.000 OA
ATOM     24  H   UNL     1       5.414   1.347  19.303  0.00  0.00    +0.000 HD
ENDBRANCH  20  23
ENDBRANCH   2  20
BRANCH   4  25
ATOM     25  N   UNL     1       4.578   6.260  16.560  0.00  0.00    +0.000 N 
ATOM     26  H   UNL     1       4.563   7.252  16.307  0.00  0.00    +0.000 HD
BRANCH  25  27
ATOM     27  C   UNL     1       5.361   5.459  15.703  0.00  0.00    +0.000 A 
ATOM     28  C   UNL     1       4.745   4.618  14.762  0.00  0.00    +0.000 A 
ATOM     29  C   UNL     1       5.492   3.921  13.812  0.00  0.00    +0.000 A 
ATOM     30  C   UNL     1       6.877   4.052  13.787  0.00  0.00    +0.000 A 
ATOM     31  C   UNL     1       7.516   4.860  14.729  0.00  0.00    +0.000 A 
ATOM     32  C   UNL     1       6.761   5.551  15.680  0.00  0.00    +0.000 A 
BRANCH  32  33
ATOM     33  O   UNL     1       7.392   6.361  16.589  0.00  0.00    +0.000 OA
ATOM     34  H   UNL     1       7.896   5.800  17.205  0.00  0.00    +0.000 HD
ENDBRANCH  32  33
ENDBRANCH  25  27
ENDBRANCH   4  25
TORSDOF 6
ENDMDL
MODEL 2
REMARK VINA RESULT:      -7.5      4.500      8.401
REMARK  Name = 
REMARK  6 active torsions:
REMARK  status: ('A' for Active; 'I' for Inactive)
REMARK    1  A    between atoms: N_1  and  C_2
REMARK    2  A    between atoms: C_3  and  S_4
REMARK    3  A    between atoms: S_4  and  O_7
REMARK    4  A    between atoms: C_9  and  N_10
REMARK    5  A    between atoms: N_10  and  C_11
REMARK    6  A    between atoms: C_16  and  O_17
REMARK                            x       y       z     vdW  Elec       q    Type
REMARK                         _______ _______ _______ _____ _____    ______ ____
ROOT
ATOM      1  C   UNL     1      -0.381  10.318  21.871  0.00  0.00    +0.000 A 
ATOM      2  C   UNL     1      -0.825  11.632  21.707  0.00  0.00    +0.000 A 
ATOM      3  C   UNL     1      -0.490  12.365  20.565  0.00  0.00    +0.000 A 
ATOM      4  C   UNL     1       0.326  11.843  19.551  0.00  0.00    +0.000 A 
ATOM      5  C   UNL     1       0.790  10.517  19.694  0.00  0.00    +0.000 A 
ATOM      6  C   UNL     1       0.450   9.773  20.845  0.00  0.00    +0.000 A 
ATOM      7  C   UNL     1       0.914   8.361  20.962  0.00  0.00    +0.000 C 
ATOM      8  O   UNL     1       0.570   7.654  21.907  0.00  0.00    +0.000 OA
ATOM      9  C   UNL     1       1.765   7.769  19.923  0.00  0.00    +0.000 A 
ATOM     10  C   UNL     1       2.213   6.447  20.068  0.00  0.00    +0.000 A 
ATOM     11  C   UNL     1       2.998   5.859  19.078  0.00  0.00    +0.000 A 
ATOM     12  C   UNL     1       3.338   6.590  17.942  0.00  0.00    +0.000 A 
ATOM     13  C   UNL     1       2.893   7.907  17.798  0.00  0.00    +0.000 A 
ATOM     14  C   UNL     1       2.102   8.500  18.792  0.00  0.00    +0.000 A 
ATOM     15  C   UNL     1       1.628   9.889  18.634  0.00  0.00    +0.000 C 
ATOM     16  O   UNL     1       1.949  10.508  17.624  0.00  0.00    +0.000 OA
ENDROOT
BRANCH   1  17
ATOM     17  N   UNL     1      -0.554   9.636  23.091  0.00  0.00    +0.000 N 
ATOM     18  H   UNL     1       0.265   9.117  23.415  0.00  0.00    +0.000 HD
ATOM     19  H   UNL     1      -0.917  10.248  23.838  0.00  0.00    +0.000 HD
ENDBRANCH   1  17
BRANCH   2  20
ATOM     20  S   UNL     1      -1.822  12.505  22.889  0.00  0.00    +0.000 S 
ATOM     21  O   UNL     1      -2.705  11.532  23.495  0.00  0.00    +0.000 OA
ATOM     22  O   UNL     1      -0.922  13.327  23.668  0.00  0.00    +0.000 OA
BRANCH  20  23
ATOM     23  O   UNL     1      -2.789  13.492  22.055  0.00  0.00    +0.000 OA
ATOM     24  H   UNL     1      -2.625  13.327  21.100  0.00  0.00    +0.000 HD
ENDBRANCH  20  23
ENDBRANCH   2  20
BRANCH   4  25
ATOM     25  N   UNL     1       0.595  12.638  18.416  0.00  0.00    +0.000 N 
ATOM     26  H   UNL     1       0.267  12.273  17.517  0.00  0.00    +0.000 HD
BRANCH  25  27
ATOM     27  C   UNL     1       1.213  13.903  18.334  0.00  0.00    +0.000 A 
ATOM     28  C   UNL     1       0.490  15.065  18.646  0.00  0.00    +0.000 A 
ATOM     29  C   UNL     1       1.111  16.313  18.708  0.00  0.00    +0.000 A 
ATOM     30  C   UNL     1       2.474  16.421  18.454  0.00  0.00    +0.000 A 
ATOM     31  C   UNL     1       3.211  15.285  18.114  0.00  0.00    +0.000 A 
ATOM     32  C   UNL     1       2.580  14.040  18.050  0.00  0.00    +0.000 A 
BRANCH  32  33
ATOM     33  O   UNL     1       3.313  12.924  17.738  0.00  0.00    +0.000 OA
ATOM     34  H   UNL     1       3.037  12.608  16.859  0.00  0.00    +0.000 HD
ENDBRANCH  32  33
ENDBRANCH  25  27
ENDBRANCH   4  25
TORSDOF 6
ENDMDL
MODEL 3
REMARK VINA RESULT:      -7.4      5.478      8.608
REMARK  Name = 
REMARK  6 active torsions:
REMARK  status: ('A' for Active; 'I' for Inactive)
REMARK    1  A    between atoms: N_1  and  C_2
REMARK    2  A    between atoms: C_3  and  S_4
REMARK    3  A    between atoms: S_4  and  O_7
REMARK    4  A    between atoms: C_9  and  N_10
REMARK    5  A    between atoms: N_10  and  C_11
REMARK    6  A    between atoms: C_16  and  O_17
REMARK                            x       y       z     vdW  Elec       q    Type
REMARK                         _______ _______ _______ _____ _____    ______ ____
ROOT
ATOM      1  C   UNL     1      -3.611  12.126  18.931  0.00  0.00    +0.000 A 
ATOM      2  C   UNL     1      -2.833  11.397  18.029  0.00  0.00    +0.000 A 
ATOM      3  C   UNL     1      -1.488  11.127  18.298  0.00  0.00    +0.000 A 
ATOM      4  C   UNL     1      -0.845  11.594  19.453  0.00  0.00    +0.000 A 
ATOM      5  C   UNL     1      -1.609  12.336  20.380  0.00  0.00    +0.000 A 
ATOM      6  C   UNL     1      -2.970  12.608  20.112  0.00  0.00    +0.000 A 
ATOM      7  C   UNL     1      -3.773  13.358  21.119  0.00  0.00    +0.000 C 
ATOM      8  O   UNL     1      -4.978  13.541  20.963  0.00  0.00    +0.000 OA
ATOM      9  C   UNL     1      -3.145  13.861  22.347  0.00  0.00    +0.000 A 
ATOM     10  C   UNL     1      -3.915  14.589  23.267  0.00  0.00    +0.000 A 
ATOM     11  C   UNL     1      -3.343  15.051  24.451  0.00  0.00    +0.000 A 
ATOM     12  C   UNL     1      -2.001  14.787  24.718  0.00  0.00    +0.000 A 
ATOM     13  C   UNL     1      -1.234  14.064  23.800  0.00  0.00    +0.000 A 
ATOM     14  C   UNL     1      -1.808  13.598  22.609  0.00  0.00    +0.000 A 
ATOM     15  C   UNL     1      -0.996  12.828  21.646  0.00  0.00    +0.000 C 
ATOM     16  O   UNL     1       0.183  12.617  21.907  0.00  0.00    +0.000 OA
ENDROOT
BRANCH   1  17
ATOM     17  N   UNL     1      -4.907  12.562  18.591  0.00  0.00    +0.000 N 
ATOM     18  H   UNL     1      -5.556  12.639  19.376  0.00  0.00    +0.000 HD
ATOM     19  H   UNL     1      -4.898  13.433  18.038  0.00  0.00    +0.000 HD
ENDBRANCH   1  17
BRANCH   2  20
ATOM     20  S   UNL     1      -3.429  10.757  16.484  0.00  0.00    +0.000 S 
ATOM     21  O   UNL     1      -3.038   9.365  16.426  0.00  0.00    +0.000 OA
ATOM     22  O   UNL     1      -4.807  11.181  16.359  0.00  0.00    +0.000 OA
BRANCH  20  23
ATOM     23  O   UNL     1      -2.586  11.483  15.315  0.00  0.00    +0.000 OA
ATOM     24  H   UNL     1      -3.011  11.251  14.459  0.00  0.00    +0.000 HD
ENDBRANCH  20  23
ENDBRANCH   2  20
BRANCH   4  25
ATOM     25  N   UNL     1       0.508  11.254  19.664  0.00  0.00    +0.000 N 
ATOM     26  H   UNL     1       1.141  12.025  19.894  0.00  0.00    +0.000 HD
BRANCH  25  27
ATOM     27  C   UNL     1       1.126   9.985  19.654  0.00  0.00    +0.000 A 
ATOM     28  C   UNL     1       1.033   9.145  20.775  0.00  0.00    +0.000 A 
ATOM     29  C   UNL     1       1.513   7.835  20.743  0.00  0.00    +0.000 A 
ATOM     30  C   UNL     1       2.101   7.341  19.583  0.00  0.00    +0.000 A 
ATOM     31  C   UNL     1       2.231   8.165  18.464  0.00  0.00    +0.000 A 
ATOM     32  C   UNL     1       1.751   9.477  18.506  0.00  0.00    +0.000 A 
BRANCH  32  33
ATOM     33  O   UNL     1       1.861  10.275  17.396  0.00  0.00    +0.000 OA
ATOM     34  H   UNL     1       1.073  10.140  16.840  0.00  0.00    +0.000 HD
ENDBRANCH  32  33
ENDBRANCH  25  27
ENDBRANCH   4  25
TORSDOF 6
ENDMDL
MODEL 4
REMARK VINA RESULT:      -7.3      5.537      8.708
REMARK  Name = 
REMARK  6 active torsions:
REMARK  status: ('A' for Active; 'I' for Inactive)
REMARK    1  A    between atoms: N_1  and  C_2
REMARK    2  A    between atoms: C_3  and  S_4
REMARK    3  A    between atoms: S_4  and  O_7
REMARK    4  A    between atoms: C_9  and  N_10
REMARK    5  A    between atoms: N_10  and  C_11
REMARK    6  A    between atoms: C_16  and  O_17
REMARK                            x       y       z     vdW  Elec       q    Type
REMARK                         _______ _______ _______ _____ _____    ______ ____
ROOT
ATOM      1  C   UNL     1      -3.718  12.192  18.971  0.00  0.00    +0.000 A 
ATOM      2  C   UNL     1      -3.011  11.414  18.052  0.00  0.00    +0.000 A 
ATOM      3  C   UNL     1      -1.671  11.081  18.276  0.00  0.00    +0.000 A 
ATOM      4  C   UNL     1      -0.966  11.528  19.402  0.00  0.00    +0.000 A 
ATOM      5  C   UNL     1      -1.658  12.318  20.345  0.00  0.00    +0.000 A 
ATOM      6  C   UNL     1      -3.012  12.654  20.123  0.00  0.00    +0.000 A 
ATOM      7  C   UNL     1      -3.741  13.455  21.147  0.00  0.00    +0.000 C 
ATOM      8  O   UNL     1      -4.940  13.696  21.032  0.00  0.00    +0.000 OA
ATOM      9  C   UNL     1      -3.045  13.940  22.345  0.00  0.00    +0.000 A 
ATOM     10  C   UNL     1      -3.744  14.716  23.282  0.00  0.00    +0.000 A 
ATOM     11  C   UNL     1      -3.108  15.161  24.440  0.00  0.00    +0.000 A 
ATOM     12  C   UNL     1      -1.772  14.834  24.662  0.00  0.00    +0.000 A 
ATOM     13  C   UNL     1      -1.075  14.063  23.728  0.00  0.00    +0.000 A 
ATOM     14  C   UNL     1      -1.714  13.613  22.564  0.00  0.00    +0.000 A 
ATOM     15  C   UNL     1      -0.976  12.793  21.582  0.00  0.00    +0.000 C 
ATOM     16  O   UNL     1       0.200  12.526  21.804  0.00  0.00    +0.000 OA
ENDROOT
BRANCH   1  17
ATOM     17  N   UNL     1      -5.003  12.688  18.671  0.00  0.00    +0.000 N 
ATOM     18  H   UNL     1      -5.084  13.154  17.765  0.00  0.00    +0.000 HD
ATOM     19  H   UNL     1      -5.738  11.973  18.781  0.00  0.00    +0.000 HD
ENDBRANCH   1  17
BRANCH   2  20
ATOM     20  S   UNL     1      -3.693  10.788  16.537  0.00  0.00    +0.000 S 
ATOM     21  O   UNL     1      -3.184   9.444  16.370  0.00  0.00    +0.000 OA
ATOM     22  O   UNL     1      -5.109  11.082  16.563  0.00  0.00    +0.000 OA
BRANCH  20  23
ATOM     23  O   UNL     1      -3.038  11.641  15.335  0.00  0.00    +0.000 OA
ATOM     24  H   UNL     1      -3.244  12.588  15.499  0.00  0.00    +0.000 HD
ENDBRANCH  20  23
ENDBRANCH   2  20
BRANCH   4  25
ATOM     25  N   UNL     1       0.376  11.123  19.569  0.00  0.00    +0.000 N 
ATOM     26  H   UNL     1       1.050  11.862  19.790  0.00  0.00    +0.000 HD
BRANCH  25  27
ATOM     27  C   UNL     1       0.934   9.828  19.526  0.00  0.00    +0.000 A 
ATOM     28  C   UNL     1       1.541   9.360  18.349  0.00  0.00    +0.000 A 
ATOM     29  C   UNL     1       2.221   8.142  18.319  0.00  0.00    +0.000 A 
ATOM     30  C   UNL     1       2.303   7.365  19.470  0.00  0.00    +0.000 A 
ATOM     31  C   UNL     1       1.684   7.795  20.645  0.00  0.00    +0.000 A 
ATOM     32  C   UNL     1       1.001   9.014  20.666  0.00  0.00    +0.000 A 
BRANCH  32  33
ATOM     33  O   UNL     1       0.415   9.442  21.829  0.00  0.00    +0.000 OA
ATOM     34  H   UNL     1       0.698   8.855  22.552  0.00  0.00    +0.000 HD
ENDBRANCH  32  33
ENDBRANCH  25  27
ENDBRANCH   4  25
TORSDOF 6
ENDMDL
MODEL 5
REMARK VINA RESULT:      -7.2      4.455      8.510
REMARK  Name = 
REMARK  6 active torsions:
REMARK  status: ('A' for Active; 'I' for Inactive)
REMARK    1  A    between atoms: N_1  and  C_2
REMARK    2  A    between atoms: C_3  and  S_4
REMARK    3  A    between atoms: S_4  and  O_7
REMARK    4  A    between atoms: C_9  and  N_10
REMARK    5  A    between atoms: N_10  and  C_11
REMARK    6  A    between atoms: C_16  and  O_17
REMARK                            x       y       z     vdW  Elec       q    Type
REMARK                         _______ _______ _______ _____ _____    ______ ____
ROOT
ATOM      1  C   UNL     1      -0.316  10.302  21.824  0.00  0.00    +0.000 A 
ATOM      2  C   UNL     1      -0.720  11.632  21.692  0.00  0.00    +0.000 A 
ATOM      3  C   UNL     1      -0.341  12.389  20.580  0.00  0.00    +0.000 A 
ATOM      4  C   UNL     1       0.479  11.874  19.566  0.00  0.00    +0.000 A 
ATOM      5  C   UNL     1       0.903  10.532  19.676  0.00  0.00    +0.000 A 
ATOM      6  C   UNL     1       0.519   9.763  20.798  0.00  0.00    +0.000 A 
ATOM      7  C   UNL     1       0.941   8.336  20.880  0.00  0.00    +0.000 C 
ATOM      8  O   UNL     1       0.558   7.611  21.796  0.00  0.00    +0.000 OA
ATOM      9  C   UNL     1       1.795   7.751  19.839  0.00  0.00    +0.000 A 
ATOM     10  C   UNL     1       2.202   6.413  19.952  0.00  0.00    +0.000 A 
ATOM     11  C   UNL     1       2.990   5.833  18.959  0.00  0.00    +0.000 A 
ATOM     12  C   UNL     1       3.372   6.588  17.852  0.00  0.00    +0.000 A 
ATOM     13  C   UNL     1       2.967   7.921  17.741  0.00  0.00    +0.000 A 
ATOM     14  C   UNL     1       2.175   8.506  18.738  0.00  0.00    +0.000 A 
ATOM     15  C   UNL     1       1.743   9.913  18.613  0.00  0.00    +0.000 C 
ATOM     16  O   UNL     1       2.101  10.552  17.629  0.00  0.00    +0.000 OA
ENDROOT
BRANCH   1  17
ATOM     17  N   UNL     1      -0.532   9.588  23.019  0.00  0.00    +0.000 N 
ATOM     18  H   UNL     1      -0.932  10.137  23.783  0.00  0.00    +0.000 HD
ATOM     19  H   UNL     1      -1.073   8.722  22.870  0.00  0.00    +0.000 HD
ENDBRANCH   1  17
BRANCH   2  20
ATOM     20  S   UNL     1      -1.714  12.497  22.882  0.00  0.00    +0.000 S 
ATOM     21  O   UNL     1      -2.546  11.509  23.533  0.00  0.00    +0.000 OA
ATOM     22  O   UNL     1      -0.823  13.367  23.618  0.00  0.00    +0.000 OA
BRANCH  20  23
ATOM     23  O   UNL     1      -2.736  13.431  22.053  0.00  0.00    +0.000 OA
ATOM     24  H   UNL     1      -2.474  14.365  22.210  0.00  0.00    +0.000 HD
ENDBRANCH  20  23
ENDBRANCH   2  20
BRANCH   4  25
ATOM     25  N   UNL     1       0.792  12.695  18.461  0.00  0.00    +0.000 N 
ATOM     26  H   UNL     1       0.431  12.392  17.552  0.00  0.00    +0.000 HD
BRANCH  25  27
ATOM     27  C   UNL     1       1.497  13.916  18.423  0.00  0.00    +0.000 A 
ATOM     28  C   UNL     1       2.885  13.924  18.203  0.00  0.00    +0.000 A 
ATOM     29  C   UNL     1       3.584  15.118  18.022  0.00  0.00    +0.000 A 
ATOM     30  C   UNL     1       2.906  16.331  18.062  0.00  0.00    +0.000 A 
ATOM     31  C   UNL     1       1.532  16.352  18.306  0.00  0.00    +0.000 A 
ATOM     32  C   UNL     1       0.839  15.152  18.491  0.00  0.00    +0.000 A 
BRANCH  32  33
ATOM     33  O   UNL     1      -0.514  15.178  18.708  0.00  0.00    +0.000 OA
ATOM     34  H   UNL     1      -0.870  14.285  18.549  0.00  0.00    +0.000 HD
ENDBRANCH  32  33
ENDBRANCH  25  27
ENDBRANCH   4  25
TORSDOF 6
ENDMDL
MODEL 6
REMARK VINA RESULT:      -7.1      8.967     10.874
REMARK  Name = 
REMARK  6 active torsions:
REMARK  status: ('A' for Active; 'I' for Inactive)
REMARK    1  A    between atoms: N_1  and  C_2
REMARK    2  A    between atoms: C_3  and  S_4
REMARK    3  A    between atoms: S_4  and  O_7
REMARK    4  A    between atoms: C_9  and  N_10
REMARK    5  A    between atoms: N_10  and  C_11
REMARK    6  A    between atoms: C_16  and  O_17
REMARK                            x       y       z     vdW  Elec       q    Type
REMARK                         _______ _______ _______ _____ _____    ______ ____
ROOT
ATOM      1  C   UNL     1       8.017  12.802  22.160  0.00  0.00    +0.000 A 
ATOM      2  C   UNL     1       6.888  13.513  22.570  0.00  0.00    +0.000 A 
ATOM      3  C   UNL     1       6.350  14.527  21.773  0.00  0.00    +0.000 A 
ATOM      4  C   UNL     1       6.924  14.905  20.551  0.00  0.00    +0.000 A 
ATOM      5  C   UNL     1       8.069  14.203  20.114  0.00  0.00    +0.000 A 
ATOM      6  C   UNL     1       8.613  13.176  20.916  0.00  0.00    +0.000 A 
ATOM      7  C   UNL     1       9.798  12.417  20.423  0.00  0.00    +0.000 C 
ATOM      8  O   UNL     1      10.248  11.461  21.051  0.00  0.00    +0.000 OA
ATOM      9  C   UNL     1      10.429  12.772  19.146  0.00  0.00    +0.000 A 
ATOM     10  C   UNL     1      11.560  12.062  18.715  0.00  0.00    +0.000 A 
ATOM     11  C   UNL     1      12.156  12.366  17.492  0.00  0.00    +0.000 A 
ATOM     12  C   UNL     1      11.624  13.381  16.699  0.00  0.00    +0.000 A 
ATOM     13  C   UNL     1      10.499  14.089  17.129  0.00  0.00    +0.000 A 
ATOM     14  C   UNL     1       9.897  13.784  18.358  0.00  0.00    +0.000 A 
ATOM     15  C   UNL     1       8.704  14.529  18.806  0.00  0.00    +0.000 C 
ATOM     16  O   UNL     1       8.263  15.420  18.087  0.00  0.00    +0.000 OA
ENDROOT
BRANCH   1  17
ATOM     17  N   UNL     1       8.676  11.911  23.030  0.00  0.00    +0.000 N 
ATOM     18  H   UNL     1       8.064  11.410  23.678  0.00  0.00    +0.000 HD
ATOM     19  H   UNL     1       9.294  11.255  22.530  0.00  0.00    +0.000 HD
ENDBRANCH   1  17
BRANCH   2  20
ATOM     20  S   UNL     1       6.035  13.236  24.103  0.00  0.00    +0.000 S 
ATOM     21  O   UNL     1       7.016  13.358  25.159  0.00  0.00    +0.000 OA
ATOM     22  O   UNL     1       4.834  14.042  24.064  0.00  0.00    +0.000 OA
BRANCH  20  23
ATOM     23  O   UNL     1       5.584  11.687  24.120  0.00  0.00    +0.000 OA
ATOM     24  H   UNL     1       6.106  11.221  23.430  0.00  0.00    +0.000 HD
ENDBRANCH  20  23
ENDBRANCH   2  20
BRANCH   4  25
ATOM     25  N   UNL     1       6.303  15.920  19.791  0.00  0.00    +0.000 N 
ATOM     26  H   UNL     1       6.894  16.712  19.521  0.00  0.00    +0.000 HD
BRANCH  25  27
ATOM     27  C   UNL     1       4.984  15.990  19.298  0.00  0.00    +0.000 A 
ATOM     28  C   UNL     1       4.035  16.811  19.930  0.00  0.00    +0.000 A 
ATOM     29  C   UNL     1       2.766  17.007  19.385  0.00  0.00    +0.000 A 
ATOM     30  C   UNL     1       2.420  16.379  18.193  0.00  0.00    +0.000 A 
ATOM     31  C   UNL     1       3.334  15.536  17.559  0.00  0.00    +0.000 A 
ATOM     32  C   UNL     1       4.602  15.342  18.114  0.00  0.00    +0.000 A 
BRANCH  32  33
ATOM     33  O   UNL     1       5.504  14.530  17.475  0.00  0.00    +0.000 OA
ATOM     34  H   UNL     1       6.060  14.097  18.147  0.00  0.00    +0.000 HD
ENDBRANCH  32  33
ENDBRANCH  25  27
ENDBRANCH   4  25
TORSDOF 6
ENDMDL
MODEL 7
REMARK VINA RESULT:      -6.9      6.068      9.419
REMARK  Name = 
REMARK  6 active torsions:
REMARK  status: ('A' for Active; 'I' for Inactive)
REMARK    1  A    between atoms: N_1  and  C_2
REMARK    2  A    between atoms: C_3  and  S_4
REMARK    3  A    between atoms: S_4  and  O_7
REMARK    4  A    between atoms: C_9  and  N_10
REMARK    5  A    between atoms: N_10  and  C_11
REMARK    6  A    between atoms: C_16  and  O_17
REMARK                            x       y       z     vdW  Elec       q    Type
REMARK                         _______ _______ _______ _____ _____    ______ ____
ROOT
ATOM      1  C   UNL     1      -4.241  12.586  20.042  0.00  0.00    +0.000 A 
ATOM      2  C   UNL     1      -3.612  11.830  19.051  0.00  0.00    +0.000 A 
ATOM      3  C   UNL     1      -2.234  11.600  19.092  0.00  0.00    +0.000 A 
ATOM      4  C   UNL     1      -1.414  12.134  20.097  0.00  0.00    +0.000 A 
ATOM      5  C   UNL     1      -2.026  12.904  21.109  0.00  0.00    +0.000 A 
ATOM      6  C   UNL     1      -3.419  13.136  21.072  0.00  0.00    +0.000 A 
ATOM      7  C   UNL     1      -4.056  13.917  22.170  0.00  0.00    +0.000 C 
ATOM      8  O   UNL     1      -5.275  14.068  22.219  0.00  0.00    +0.000 OA
ATOM      9  C   UNL     1      -3.239  14.490  23.247  0.00  0.00    +0.000 A 
ATOM     10  C   UNL     1      -3.858  15.245  24.255  0.00  0.00    +0.000 A 
ATOM     11  C   UNL     1      -3.102  15.773  25.300  0.00  0.00    +0.000 A 
ATOM     12  C   UNL     1      -1.728  15.549  25.340  0.00  0.00    +0.000 A 
ATOM     13  C   UNL     1      -1.111  14.798  24.335  0.00  0.00    +0.000 A 
ATOM     14  C   UNL     1      -1.870  14.265  23.283  0.00  0.00    +0.000 A 
ATOM     15  C   UNL     1      -1.217  13.467  22.227  0.00  0.00    +0.000 C 
ATOM     16  O   UNL     1      -0.004  13.292  22.287  0.00  0.00    +0.000 OA
ENDROOT
BRANCH   1  17
ATOM     17  N   UNL     1      -5.588  12.980  19.914  0.00  0.00    +0.000 N 
ATOM     18  H   UNL     1      -5.953  13.529  20.696  0.00  0.00    +0.000 HD
ATOM     19  H   UNL     1      -5.779  13.451  19.017  0.00  0.00    +0.000 HD
ENDBRANCH   1  17
BRANCH   2  20
ATOM     20  S   UNL     1      -4.449  11.107  17.662  0.00  0.00    +0.000 S 
ATOM     21  O   UNL     1      -3.542  10.141  17.081  0.00  0.00    +0.000 OA
ATOM     22  O   UNL     1      -5.776  10.750  18.113  0.00  0.00    +0.000 OA
BRANCH  20  23
ATOM     23  O   UNL     1      -4.606  12.264  16.549  0.00  0.00    +0.000 OA
ATOM     24  H   UNL     1      -3.770  12.782  16.543  0.00  0.00    +0.000 HD
ENDBRANCH  20  23
ENDBRANCH   2  20
BRANCH   4  25
ATOM     25  N   UNL     1      -0.035  11.831  20.083  0.00  0.00    +0.000 N 
ATOM     26  H   UNL     1       0.605  12.626  20.009  0.00  0.00    +0.000 HD
BRANCH  25  27
ATOM     27  C   UNL     1       0.609  10.582  20.205  0.00  0.00    +0.000 A 
ATOM     28  C   UNL     1       0.652   9.928  21.448  0.00  0.00    +0.000 A 
ATOM     29  C   UNL     1       1.158   8.633  21.569  0.00  0.00    +0.000 A 
ATOM     30  C   UNL     1       1.637   7.968  20.446  0.00  0.00    +0.000 A 
ATOM     31  C   UNL     1       1.632   8.606  19.204  0.00  0.00    +0.000 A 
ATOM     32  C   UNL     1       1.126   9.905  19.092  0.00  0.00    +0.000 A 
BRANCH  32  33
ATOM     33  O   UNL     1       1.103  10.518  17.866  0.00  0.00    +0.000 OA
ATOM     34  H   UNL     1       2.021  10.681  17.584  0.00  0.00    +0.000 HD
ENDBRANCH  32  33
ENDBRANCH  25  27
ENDBRANCH   4  25
TORSDOF 6
ENDMDL
MODEL 8
REMARK VINA RESULT:      -6.9      6.326      9.640
REMARK  Name = 
REMARK  6 active torsions:
REMARK  status: ('A' for Active; 'I' for Inactive)
REMARK    1  A    between atoms: N_1  and  C_2
REMARK    2  A    between atoms: C_3  and  S_4
REMARK    3  A    between atoms: S_4  and  O_7
REMARK    4  A    between atoms: C_9  and  N_10
REMARK    5  A    between atoms: N_10  and  C_11
REMARK    6  A    between atoms: C_16  and  O_17
REMARK                            x       y       z     vdW  Elec       q    Type
REMARK                         _______ _______ _______ _____ _____    ______ ____
ROOT
ATOM      1  C   UNL     1      -4.360  12.714  20.046  0.00  0.00    +0.000 A 
ATOM      2  C   UNL     1      -3.721  11.896  19.112  0.00  0.00    +0.000 A 
ATOM      3  C   UNL     1      -2.361  11.596  19.234  0.00  0.00    +0.000 A 
ATOM      4  C   UNL     1      -1.567  12.116  20.266  0.00  0.00    +0.000 A 
ATOM      5  C   UNL     1      -2.189  12.948  21.223  0.00  0.00    +0.000 A 
ATOM      6  C   UNL     1      -3.564  13.251  21.103  0.00  0.00    +0.000 A 
ATOM      7  C   UNL     1      -4.215  14.098  22.143  0.00  0.00    +0.000 C 
ATOM      8  O   UNL     1      -5.425  14.314  22.122  0.00  0.00    +0.000 OA
ATOM      9  C   UNL     1      -3.426  14.660  23.246  0.00  0.00    +0.000 A 
ATOM     10  C   UNL     1      -4.056  15.477  24.198  0.00  0.00    +0.000 A 
ATOM     11  C   UNL     1      -3.328  15.997  25.267  0.00  0.00    +0.000 A 
ATOM     12  C   UNL     1      -1.972  15.702  25.388  0.00  0.00    +0.000 A 
ATOM     13  C   UNL     1      -1.345  14.890  24.439  0.00  0.00    +0.000 A 
ATOM     14  C   UNL     1      -2.075  14.365  23.363  0.00  0.00    +0.000 A 
ATOM     15  C   UNL     1      -1.411  13.502  22.366  0.00  0.00    +0.000 C 
ATOM     16  O   UNL     1      -0.214  13.265  22.497  0.00  0.00    +0.000 OA
ENDROOT
BRANCH   1  17
ATOM     17  N   UNL     1      -5.675  13.173  19.835  0.00  0.00    +0.000 N 
ATOM     18  H   UNL     1      -6.182  12.700  19.084  0.00  0.00    +0.000 HD
ATOM     19  H   UNL     1      -6.233  13.184  20.702  0.00  0.00    +0.000 HD
ENDBRANCH   1  17
BRANCH   2  20
ATOM     20  S   UNL     1      -4.521  11.175  17.701  0.00  0.00    +0.000 S 
ATOM     21  O   UNL     1      -3.600  10.208  17.143  0.00  0.00    +0.000 OA
ATOM     22  O   UNL     1      -5.861  10.819  18.116  0.00  0.00    +0.000 OA
BRANCH  20  23
ATOM     23  O   UNL     1      -4.647  12.334  16.585  0.00  0.00    +0.000 OA
ATOM     24  H   UNL     1      -3.954  13.004  16.777  0.00  0.00    +0.000 HD
ENDBRANCH  20  23
ENDBRANCH   2  20
BRANCH   4  25
ATOM     25  N   UNL     1      -0.208  11.741  20.336  0.00  0.00    +0.000 N 
ATOM     26  H   UNL     1       0.473  12.505  20.375  0.00  0.00    +0.000 HD
BRANCH  25  27
ATOM     27  C   UNL     1       0.364  10.454  20.408  0.00  0.00    +0.000 A 
ATOM     28  C   UNL     1       0.801   9.808  19.240  0.00  0.00    +0.000 A 
ATOM     29  C   UNL     1       1.494   8.598  19.296  0.00  0.00    +0.000 A 
ATOM     30  C   UNL     1       1.761   8.009  20.527  0.00  0.00    +0.000 A 
ATOM     31  C   UNL     1       1.313   8.616  21.701  0.00  0.00    +0.000 A 
ATOM     32  C   UNL     1       0.615   9.825  21.636  0.00  0.00    +0.000 A 
BRANCH  32  33
ATOM     33  O   UNL     1       0.197  10.429  22.794  0.00  0.00    +0.000 OA
ATOM     34  H   UNL     1      -0.641  10.892  22.616  0.00  0.00    +0.000 HD
ENDBRANCH  32  33
ENDBRANCH  25  27
ENDBRANCH   4  25
TORSDOF 6
ENDMDL
MODEL 9
REMARK VINA RESULT:      -6.8      8.858     10.954
REMARK  Name = 
REMARK  6 active torsions:
REMARK  status: ('A' for Active; 'I' for Inactive)
REMARK    1  A    between atoms: N_1  and  C_2
REMARK    2  A    between atoms: C_3  and  S_4
REMARK    3  A    between atoms: S_4  and  O_7
REMARK    4  A    between atoms: C_9  and  N_10
REMARK    5  A    between atoms: N_10  and  C_11
REMARK    6  A    between atoms: C_16  and  O_17
REMARK                            x       y       z     vdW  Elec       q    Type
REMARK                         _______ _______ _______ _____ _____    ______ ____
ROOT
ATOM      1  C   UNL     1       8.048  12.801  22.259  0.00  0.00    +0.000 A 
ATOM      2  C   UNL     1       6.926  13.505  22.700  0.00  0.00    +0.000 A 
ATOM      3  C   UNL     1       6.378  14.535  21.930  0.00  0.00    +0.000 A 
ATOM      4  C   UNL     1       6.934  14.934  20.706  0.00  0.00    +0.000 A 
ATOM      5  C   UNL     1       8.071  14.239  20.239  0.00  0.00    +0.000 A 
ATOM      6  C   UNL     1       8.625  13.196  21.014  0.00  0.00    +0.000 A 
ATOM      7  C   UNL     1       9.801  12.444  20.488  0.00  0.00    +0.000 C 
ATOM      8  O   UNL     1      10.259  11.477  21.092  0.00  0.00    +0.000 OA
ATOM      9  C   UNL     1      10.413  12.822  19.209  0.00  0.00    +0.000 A 
ATOM     10  C   UNL     1      11.536  12.118  18.748  0.00  0.00    +0.000 A 
ATOM     11  C   UNL     1      12.114  12.444  17.522  0.00  0.00    +0.000 A 
ATOM     12  C   UNL     1      11.572  13.473  16.755  0.00  0.00    +0.000 A 
ATOM     13  C   UNL     1      10.454  14.175  17.216  0.00  0.00    +0.000 A 
ATOM     14  C   UNL     1       9.871  13.848  18.448  0.00  0.00    +0.000 A 
ATOM     15  C   UNL     1       8.687  14.587  18.928  0.00  0.00    +0.000 C 
ATOM     16  O   UNL     1       8.236  15.492  18.232  0.00  0.00    +0.000 OA
ENDROOT
BRANCH   1  17
ATOM     17  N   UNL     1       8.718  11.893  23.103  0.00  0.00    +0.000 N 
ATOM     18  H   UNL     1       9.351  11.248  22.626  0.00  0.00    +0.000 HD
ATOM     19  H   UNL     1       9.197  12.362  23.886  0.00  0.00    +0.000 HD
ENDBRANCH   1  17
BRANCH   2  20
ATOM     20  S   UNL     1       6.096  13.201  24.240  0.00  0.00    +0.000 S 
ATOM     21  O   UNL     1       7.095  13.293  25.282  0.00  0.00    +0.000 OA
ATOM     22  O   UNL     1       4.900  14.017  24.239  0.00  0.00    +0.000 OA
BRANCH  20  23
ATOM     23  O   UNL     1       5.634  11.655  24.231  0.00  0.00    +0.000 OA
ATOM     24  H   UNL     1       6.448  11.105  24.219  0.00  0.00    +0.000 HD
ENDBRANCH  20  23
ENDBRANCH   2  20
BRANCH   4  25
ATOM     25  N   UNL     1       6.303  15.963  19.975  0.00  0.00    +0.000 N 
ATOM     26  H   UNL     1       6.834  16.832  19.862  0.00  0.00    +0.000 HD
BRANCH  25  27
ATOM     27  C   UNL     1       5.052  15.963  19.324  0.00  0.00    +0.000 A 
ATOM     28  C   UNL     1       4.664  14.865  18.539  0.00  0.00    +0.000 A 
ATOM     29  C   UNL     1       3.381  14.776  17.999  0.00  0.00    +0.000 A 
ATOM     30  C   UNL     1       2.459  15.792  18.231  0.00  0.00    +0.000 A 
ATOM     31  C   UNL     1       2.829  16.908  18.984  0.00  0.00    +0.000 A 
ATOM     32  C   UNL     1       4.118  16.991  19.518  0.00  0.00    +0.000 A 
BRANCH  32  33
ATOM     33  O   UNL     1       4.468  18.078  20.276  0.00  0.00    +0.000 OA
ATOM     34  H   UNL     1       5.346  17.914  20.665  0.00  0.00    +0.000 HD
ENDBRANCH  32  33
ENDBRANCH  25  27
ENDBRANCH   4  25
TORSDOF 6
ENDMDL
