MODEL 1
REMARK VINA RESULT:      -6.7      0.000      0.000
REMARK  Name = 
REMARK  6 active torsions:
REMARK  status: ('A' for Active; 'I' for Inactive)
REMARK    1  A    between atoms: C_1  and  C_2
REMARK    2  A    between atoms: C_5  and  N_6
REMARK    3  A    between atoms: C_10  and  C_11
REMARK    4  A    between atoms: C_19  and  C_20
REMARK    5  A    between atoms: C_20  and  O_22
REMARK    6  A    between atoms: N_24  and  C_25
REMARK                            x       y       z     vdW  Elec       q    Type
REMARK                         _______ _______ _______ _____ _____    ______ ____
ROOT
ATOM      1  C   UNL     1      -0.307  12.577  22.011  0.00  0.00    +0.000 C 
ATOM      2  C   UNL     1      -1.423  12.316  21.036  0.00  0.00    +0.000 A 
ATOM      3  C   UNL     1      -2.675  12.865  21.315  0.00  0.00    +0.000 A 
ATOM      4  F   UNL     1      -2.835  13.522  22.477  0.00  0.00    +0.000 F 
ATOM      5  C   UNL     1      -3.781  12.744  20.456  0.00  0.00    +0.000 A 
ATOM      6  C   UNL     1      -3.583  12.022  19.271  0.00  0.00    +0.000 A 
ATOM      7  F   UNL     1      -4.589  12.015  18.381  0.00  0.00    +0.000 F 
ATOM      8  C   UNL     1      -2.369  11.369  18.965  0.00  0.00    +0.000 A 
ATOM      9  C   UNL     1      -1.283  11.550  19.861  0.00  0.00    +0.000 A 
ATOM     10  C   UNL     1       0.024  10.913  19.528  0.00  0.00    +0.000 A 
ATOM     11  O   UNL     1       1.008  10.998  20.259  0.00  0.00    +0.000 OA
ATOM     12  C   UNL     1       0.155  10.156  18.269  0.00  0.00    +0.000 A 
ATOM     13  C   UNL     1      -0.946  10.026  17.519  0.00  0.00    +0.000 A 
ATOM     14  N   UNL     1      -2.197  10.536  17.815  0.00  0.00    +0.000 N 
ENDROOT
BRANCH   5  15
ATOM     15  N   UNL     1      -4.992  13.303  20.829  0.00  0.00    +0.000 N 
ATOM     16  C   UNL     1      -5.357  14.693  20.541  0.00  0.00    +0.000 C 
ATOM     17  C   UNL     1      -6.900  14.767  20.375  0.00  0.00    +0.000 C 
ATOM     18  N   UNL     1      -7.668  14.187  21.502  0.00  0.00    +0.000 NA
ATOM     19  C   UNL     1      -7.190  12.811  21.788  0.00  0.00    +0.000 C 
ATOM     20  C   UNL     1      -7.917  12.258  23.010  0.00  0.00    +0.000 C 
ATOM     21  C   UNL     1      -5.661  12.757  22.018  0.00  0.00    +0.000 C 
ATOM     22  H   UNL     1      -8.652  14.144  21.241  0.00  0.00    +0.000 HD
ENDBRANCH   5  15
BRANCH  14  23
ATOM     23  C   UNL     1      -3.281  10.264  16.846  0.00  0.00    +0.000 C 
ATOM     24  C   UNL     1      -3.411  11.057  15.562  0.00  0.00    +0.000 C 
ATOM     25  C   UNL     1      -3.039   9.615  15.503  0.00  0.00    +0.000 C 
ENDBRANCH  14  23
BRANCH  12  26
ATOM     26  C   UNL     1       1.425   9.540  17.827  0.00  0.00    +0.000 C 
ATOM     27  O   UNL     1       1.605   8.332  17.793  0.00  0.00    +0.000 OA
BRANCH  26  28
ATOM     28  O   UNL     1       2.382  10.416  17.457  0.00  0.00    +0.000 OA
ATOM     29  H   UNL     1       2.052  11.340  17.316  0.00  0.00    +0.000 HD
ENDBRANCH  26  28
ENDBRANCH  12  26
TORSDOF 4
ENDMDL
MODEL 2
REMARK VINA RESULT:      -6.6      0.532      1.391
REMARK  Name = 
REMARK  6 active torsions:
REMARK  status: ('A' for Active; 'I' for Inactive)
REMARK    1  A    between atoms: C_1  and  C_2
REMARK    2  A    between atoms: C_5  and  N_6
REMARK    3  A    between atoms: C_10  and  C_11
REMARK    4  A    between atoms: C_19  and  C_20
REMARK    5  A    between atoms: C_20  and  O_22
REMARK    6  A    between atoms: N_24  and  C_25
REMARK                            x       y       z     vdW  Elec       q    Type
REMARK                         _______ _______ _______ _____ _____    ______ ____
ROOT
ATOM      1  C   UNL     1      -0.577  12.667  22.099  0.00  0.00    +0.000 C 
ATOM      2  C   UNL     1      -1.649  12.369  21.087  0.00  0.00    +0.000 A 
ATOM      3  C   UNL     1      -2.929  12.869  21.324  0.00  0.00    +0.000 A 
ATOM      4  F   UNL     1      -3.153  13.517  22.482  0.00  0.00    +0.000 F 
ATOM      5  C   UNL     1      -4.000  12.711  20.429  0.00  0.00    +0.000 A 
ATOM      6  C   UNL     1      -3.736  12.000  19.250  0.00  0.00    +0.000 A 
ATOM      7  F   UNL     1      -4.711  11.958  18.326  0.00  0.00    +0.000 F 
ATOM      8  C   UNL     1      -2.489  11.394  18.983  0.00  0.00    +0.000 A 
ATOM      9  C   UNL     1      -1.441  11.612  19.915  0.00  0.00    +0.000 A 
ATOM     10  C   UNL     1      -0.101  11.025  19.625  0.00  0.00    +0.000 A 
ATOM     11  O   UNL     1       0.854  11.144  20.389  0.00  0.00    +0.000 OA
ATOM     12  C   UNL     1       0.100  10.278  18.370  0.00  0.00    +0.000 A 
ATOM     13  C   UNL     1      -0.969  10.109  17.583  0.00  0.00    +0.000 A 
ATOM     14  N   UNL     1      -2.248  10.571  17.838  0.00  0.00    +0.000 N 
ENDROOT
BRANCH   5  15
ATOM     15  N   UNL     1      -5.243  13.223  20.762  0.00  0.00    +0.000 N 
ATOM     16  C   UNL     1      -6.400  12.380  21.079  0.00  0.00    +0.000 C 
ATOM     17  C   UNL     1      -7.301  13.148  22.086  0.00  0.00    +0.000 C 
ATOM     18  N   UNL     1      -7.679  14.514  21.654  0.00  0.00    +0.000 NA
ATOM     19  C   UNL     1      -6.466  15.281  21.274  0.00  0.00    +0.000 C 
ATOM     20  C   UNL     1      -6.871  16.651  20.739  0.00  0.00    +0.000 C 
ATOM     21  C   UNL     1      -5.609  14.539  20.221  0.00  0.00    +0.000 C 
ATOM     22  H   UNL     1      -8.136  14.989  22.431  0.00  0.00    +0.000 HD
ENDBRANCH   5  15
BRANCH  14  23
ATOM     23  C   UNL     1      -3.288  10.262  16.832  0.00  0.00    +0.000 C 
ATOM     24  C   UNL     1      -3.435  11.084  15.568  0.00  0.00    +0.000 C 
ATOM     25  C   UNL     1      -2.972   9.671  15.479  0.00  0.00    +0.000 C 
ENDBRANCH  14  23
BRANCH  12  26
ATOM     26  C   UNL     1       1.407   9.711  17.970  0.00  0.00    +0.000 C 
ATOM     27  O   UNL     1       1.643   8.512  17.971  0.00  0.00    +0.000 OA
BRANCH  26  28
ATOM     28  O   UNL     1       2.330  10.621  17.596  0.00  0.00    +0.000 OA
ATOM     29  H   UNL     1       3.260  10.276  17.593  0.00  0.00    +0.000 HD
ENDBRANCH  26  28
ENDBRANCH  12  26
TORSDOF 4
ENDMDL
MODEL 3
REMARK VINA RESULT:      -6.5      3.695      6.854
REMARK  Name = 
REMARK  6 active torsions:
REMARK  status: ('A' for Active; 'I' for Inactive)
REMARK    1  A    between atoms: C_1  and  C_2
REMARK    2  A    between atoms: C_5  and  N_6
REMARK    3  A    between atoms: C_10  and  C_11
REMARK    4  A    between atoms: C_19  and  C_20
REMARK    5  A    between atoms: C_20  and  O_22
REMARK    6  A    between atoms: N_24  and  C_25
REMARK                            x       y       z     vdW  Elec       q    Type
REMARK                         _______ _______ _______ _____ _____    ______ ____
ROOT
ATOM      1  C   UNL     1      -1.973  13.476  23.839  0.00  0.00    +0.000 C 
ATOM      2  C   UNL     1      -2.355  13.113  22.431  0.00  0.00    +0.000 A 
ATOM      3  C   UNL     1      -1.329  12.901  21.510  0.00  0.00    +0.000 A 
ATOM      4  F   UNL     1      -0.063  13.115  21.910  0.00  0.00    +0.000 F 
ATOM      5  C   UNL     1      -1.552  12.500  20.182  0.00  0.00    +0.000 A 
ATOM      6  C   UNL     1      -2.887  12.322  19.793  0.00  0.00    +0.000 A 
ATOM      7  F   UNL     1      -3.107  11.809  18.570  0.00  0.00    +0.000 F 
ATOM      8  C   UNL     1      -3.977  12.599  20.646  0.00  0.00    +0.000 A 
ATOM      9  C   UNL     1      -3.685  12.977  21.982  0.00  0.00    +0.000 A 
ATOM     10  C   UNL     1      -4.824  13.223  22.914  0.00  0.00    +0.000 A 
ATOM     11  O   UNL     1      -4.661  13.576  24.080  0.00  0.00    +0.000 OA
ATOM     12  C   UNL     1      -6.203  13.027  22.431  0.00  0.00    +0.000 A 
ATOM     13  C   UNL     1      -6.357  12.701  21.142  0.00  0.00    +0.000 A 
ATOM     14  N   UNL     1      -5.341  12.531  20.219  0.00  0.00    +0.000 N 
ENDROOT
BRANCH   5  15
ATOM     15  N   UNL     1      -0.470  12.337  19.333  0.00  0.00    +0.000 N 
ATOM     16  C   UNL     1       0.082  13.424  18.518  0.00  0.00    +0.000 C 
ATOM     17  C   UNL     1       1.603  13.166  18.329  0.00  0.00    +0.000 C 
ATOM     18  N   UNL     1       1.938  11.821  17.806  0.00  0.00    +0.000 NA
ATOM     19  C   UNL     1       1.281  10.777  18.631  0.00  0.00    +0.000 C 
ATOM     20  C   UNL     1       1.551   9.401  18.029  0.00  0.00    +0.000 C 
ATOM     21  C   UNL     1      -0.244  11.003  18.759  0.00  0.00    +0.000 C 
ATOM     22  H   UNL     1       2.947  11.691  17.857  0.00  0.00    +0.000 HD
ENDBRANCH   5  15
BRANCH  14  23
ATOM     23  C   UNL     1      -5.739  12.178  18.838  0.00  0.00    +0.000 C 
ATOM     24  C   UNL     1      -6.351  10.832  18.511  0.00  0.00    +0.000 C 
ATOM     25  C   UNL     1      -7.181  12.065  18.402  0.00  0.00    +0.000 C 
ENDBRANCH  14  23
BRANCH  12  26
ATOM     26  C   UNL     1      -7.391  13.190  23.297  0.00  0.00    +0.000 C 
ATOM     27  O   UNL     1      -7.897  14.276  23.539  0.00  0.00    +0.000 OA
BRANCH  26  28
ATOM     28  O   UNL     1      -7.884  12.042  23.806  0.00  0.00    +0.000 OA
ATOM     29  H   UNL     1      -8.821  12.109  24.122  0.00  0.00    +0.000 HD
ENDBRANCH  26  28
ENDBRANCH  12  26
TORSDOF 4
ENDMDL
MODEL 4
REMARK VINA RESULT:      -6.0      2.949      4.179
REMARK  Name = 
REMARK  6 active torsions:
REMARK  status: ('A' for Active; 'I' for Inactive)
REMARK    1  A    between atoms: C_1  and  C_2
REMARK    2  A    between atoms: C_5  and  N_6
REMARK    3  A    between atoms: C_10  and  C_11
REMARK    4  A    between atoms: C_19  and  C_20
REMARK    5  A    between atoms: C_20  and  O_22
REMARK    6  A    between atoms: N_24  and  C_25
REMARK                            x       y       z     vdW  Elec       q    Type
REMARK                         _______ _______ _______ _____ _____    ______ ____
ROOT
ATOM      1  C   UNL     1       0.013  10.058  18.623  0.00  0.00    +0.000 C 
ATOM      2  C   UNL     1      -1.205  10.865  18.978  0.00  0.00    +0.000 A 
ATOM      3  C   UNL     1      -1.239  11.480  20.230  0.00  0.00    +0.000 A 
ATOM      4  F   UNL     1      -0.221  11.249  21.078  0.00  0.00    +0.000 F 
ATOM      5  C   UNL     1      -2.291  12.307  20.657  0.00  0.00    +0.000 A 
ATOM      6  C   UNL     1      -3.351  12.495  19.758  0.00  0.00    +0.000 A 
ATOM      7  F   UNL     1      -4.294  13.389  20.099  0.00  0.00    +0.000 F 
ATOM      8  C   UNL     1      -3.423  11.838  18.511  0.00  0.00    +0.000 A 
ATOM      9  C   UNL     1      -2.317  11.035  18.127  0.00  0.00    +0.000 A 
ATOM     10  C   UNL     1      -2.350  10.375  16.790  0.00  0.00    +0.000 A 
ATOM     11  O   UNL     1      -1.447   9.645  16.389  0.00  0.00    +0.000 OA
ATOM     12  C   UNL     1      -3.504  10.609  15.902  0.00  0.00    +0.000 A 
ATOM     13  C   UNL     1      -4.502  11.358  16.384  0.00  0.00    +0.000 A 
ATOM     14  N   UNL     1      -4.554  11.935  17.640  0.00  0.00    +0.000 N 
ENDROOT
BRANCH   5  15
ATOM     15  N   UNL     1      -2.248  12.856  21.928  0.00  0.00    +0.000 N 
ATOM     16  C   UNL     1      -1.112  13.636  22.428  0.00  0.00    +0.000 C 
ATOM     17  C   UNL     1      -1.647  14.676  23.451  0.00  0.00    +0.000 C 
ATOM     18  N   UNL     1      -2.476  14.099  24.535  0.00  0.00    +0.000 NA
ATOM     19  C   UNL     1      -3.555  13.259  23.958  0.00  0.00    +0.000 C 
ATOM     20  C   UNL     1      -4.343  12.591  25.081  0.00  0.00    +0.000 C 
ATOM     21  C   UNL     1      -3.008  12.182  22.991  0.00  0.00    +0.000 C 
ATOM     22  H   UNL     1      -2.901  14.860  25.063  0.00  0.00    +0.000 HD
ENDBRANCH   5  15
BRANCH  14  23
ATOM     23  C   UNL     1      -5.763  12.720  17.971  0.00  0.00    +0.000 C 
ATOM     24  C   UNL     1      -6.702  13.219  16.892  0.00  0.00    +0.000 C 
ATOM     25  C   UNL     1      -7.163  12.167  17.842  0.00  0.00    +0.000 C 
ENDBRANCH  14  23
BRANCH  12  26
ATOM     26  C   UNL     1      -3.598  10.045  14.537  0.00  0.00    +0.000 C 
ATOM     27  O   UNL     1      -4.641   9.628  14.058  0.00  0.00    +0.000 OA
BRANCH  26  28
ATOM     28  O   UNL     1      -2.437  10.025  13.850  0.00  0.00    +0.000 OA
ATOM     29  H   UNL     1      -2.102   9.113  13.649  0.00  0.00    +0.000 HD
ENDBRANCH  26  28
ENDBRANCH  12  26
TORSDOF 4
ENDMDL
MODEL 5
REMARK VINA RESULT:      -6.0      2.970      4.240
REMARK  Name = 
REMARK  6 active torsions:
REMARK  status: ('A' for Active; 'I' for Inactive)
REMARK    1  A    between atoms: C_1  and  C_2
REMARK    2  A    between atoms: C_5  and  N_6
REMARK    3  A    between atoms: C_10  and  C_11
REMARK    4  A    between atoms: C_19  and  C_20
REMARK    5  A    between atoms: C_20  and  O_22
REMARK    6  A    between atoms: N_24  and  C_25
REMARK                            x       y       z     vdW  Elec       q    Type
REMARK                         _______ _______ _______ _____ _____    ______ ____
ROOT
ATOM      1  C   UNL     1      -0.376  10.775  19.436  0.00  0.00    +0.000 C 
ATOM      2  C   UNL     1      -1.720  11.417  19.646  0.00  0.00    +0.000 A 
ATOM      3  C   UNL     1      -1.972  12.016  20.881  0.00  0.00    +0.000 A 
ATOM      4  F   UNL     1      -1.034  11.914  21.839  0.00  0.00    +0.000 F 
ATOM      5  C   UNL     1      -3.163  12.698  21.181  0.00  0.00    +0.000 A 
ATOM      6  C   UNL     1      -4.131  12.753  20.168  0.00  0.00    +0.000 A 
ATOM      7  F   UNL     1      -5.214  13.516  20.393  0.00  0.00    +0.000 F 
ATOM      8  C   UNL     1      -3.978  12.098  18.927  0.00  0.00    +0.000 A 
ATOM      9  C   UNL     1      -2.743  11.446  18.676  0.00  0.00    +0.000 A 
ATOM     10  C   UNL     1      -2.542  10.794  17.349  0.00  0.00    +0.000 A 
ATOM     11  O   UNL     1      -1.513  10.188  17.058  0.00  0.00    +0.000 OA
ATOM     12  C   UNL     1      -3.610  10.881  16.337  0.00  0.00    +0.000 A 
ATOM     13  C   UNL     1      -4.744  11.494  16.697  0.00  0.00    +0.000 A 
ATOM     14  N   UNL     1      -5.008  12.052  17.935  0.00  0.00    +0.000 N 
ENDROOT
BRANCH   5  15
ATOM     15  N   UNL     1      -3.332  13.242  22.443  0.00  0.00    +0.000 N 
ATOM     16  C   UNL     1      -4.450  12.891  23.325  0.00  0.00    +0.000 C 
ATOM     17  C   UNL     1      -3.968  13.023  24.797  0.00  0.00    +0.000 C 
ATOM     18  N   UNL     1      -3.357  14.331  25.128  0.00  0.00    +0.000 NA
ATOM     19  C   UNL     1      -2.290  14.657  24.148  0.00  0.00    +0.000 C 
ATOM     20  C   UNL     1      -1.734  16.047  24.438  0.00  0.00    +0.000 C 
ATOM     21  C   UNL     1      -2.795  14.588  22.687  0.00  0.00    +0.000 C 
ATOM     22  H   UNL     1      -2.941  14.273  26.057  0.00  0.00    +0.000 HD
ENDBRANCH   5  15
BRANCH  14  23
ATOM     23  C   UNL     1      -6.338  12.674  18.122  0.00  0.00    +0.000 C 
ATOM     24  C   UNL     1      -6.617  14.094  17.675  0.00  0.00    +0.000 C 
ATOM     25  C   UNL     1      -7.281  12.957  16.976  0.00  0.00    +0.000 C 
ENDBRANCH  14  23
BRANCH  12  26
ATOM     26  C   UNL     1      -3.478  10.317  14.976  0.00  0.00    +0.000 C 
ATOM     27  O   UNL     1      -2.409  10.233  14.389  0.00  0.00    +0.000 OA
BRANCH  26  28
ATOM     28  O   UNL     1      -4.633   9.894  14.422  0.00  0.00    +0.000 OA
ATOM     29  H   UNL     1      -5.318   9.611  15.080  0.00  0.00    +0.000 HD
ENDBRANCH  26  28
ENDBRANCH  12  26
TORSDOF 4
ENDMDL
MODEL 6
REMARK VINA RESULT:      -6.0      3.879      7.840
REMARK  Name = 
REMARK  6 active torsions:
REMARK  status: ('A' for Active; 'I' for Inactive)
REMARK    1  A    between atoms: C_1  and  C_2
REMARK    2  A    between atoms: C_5  and  N_6
REMARK    3  A    between atoms: C_10  and  C_11
REMARK    4  A    between atoms: C_19  and  C_20
REMARK    5  A    between atoms: C_20  and  O_22
REMARK    6  A    between atoms: N_24  and  C_25
REMARK                            x       y       z     vdW  Elec       q    Type
REMARK                         _______ _______ _______ _____ _____    ______ ____
ROOT
ATOM      1  C   UNL     1      -5.911  11.788  19.172  0.00  0.00    +0.000 C 
ATOM      2  C   UNL     1      -4.706  12.285  19.923  0.00  0.00    +0.000 A 
ATOM      3  C   UNL     1      -3.454  12.121  19.331  0.00  0.00    +0.000 A 
ATOM      4  F   UNL     1      -3.386  11.455  18.164  0.00  0.00    +0.000 F 
ATOM      5  C   UNL     1      -2.260  12.594  19.902  0.00  0.00    +0.000 A 
ATOM      6  C   UNL     1      -2.369  13.252  21.135  0.00  0.00    +0.000 A 
ATOM      7  F   UNL     1      -1.257  13.827  21.625  0.00  0.00    +0.000 F 
ATOM      8  C   UNL     1      -3.591  13.379  21.831  0.00  0.00    +0.000 A 
ATOM      9  C   UNL     1      -4.764  12.902  21.190  0.00  0.00    +0.000 A 
ATOM     10  C   UNL     1      -6.072  13.075  21.885  0.00  0.00    +0.000 A 
ATOM     11  O   UNL     1      -7.132  12.670  21.412  0.00  0.00    +0.000 OA
ATOM     12  C   UNL     1      -6.108  13.767  23.187  0.00  0.00    +0.000 A 
ATOM     13  C   UNL     1      -4.936  14.145  23.709  0.00  0.00    +0.000 A 
ATOM     14  N   UNL     1      -3.690  13.946  23.141  0.00  0.00    +0.000 N 
ENDROOT
BRANCH   5  15
ATOM     15  N   UNL     1      -1.060  12.364  19.251  0.00  0.00    +0.000 N 
ATOM     16  C   UNL     1      -0.435  13.338  18.351  0.00  0.00    +0.000 C 
ATOM     17  C   UNL     1       1.106  13.146  18.421  0.00  0.00    +0.000 C 
ATOM     18  N   UNL     1       1.563  11.757  18.181  0.00  0.00    +0.000 NA
ATOM     19  C   UNL     1       0.831  10.820  19.069  0.00  0.00    +0.000 C 
ATOM     20  C   UNL     1       1.236   9.385  18.747  0.00  0.00    +0.000 C 
ATOM     21  C   UNL     1      -0.704  10.971  18.944  0.00  0.00    +0.000 C 
ATOM     22  H   UNL     1       2.558  11.698  18.392  0.00  0.00    +0.000 HD
ENDBRANCH   5  15
BRANCH  14  23
ATOM     23  C   UNL     1      -2.519  14.438  23.899  0.00  0.00    +0.000 C 
ATOM     24  C   UNL     1      -2.279  15.919  24.111  0.00  0.00    +0.000 C 
ATOM     25  C   UNL     1      -2.629  15.055  25.273  0.00  0.00    +0.000 C 
ENDBRANCH  14  23
BRANCH  12  26
ATOM     26  C   UNL     1      -7.364  14.036  23.922  0.00  0.00    +0.000 C 
ATOM     27  O   UNL     1      -7.876  15.144  23.983  0.00  0.00    +0.000 OA
BRANCH  26  28
ATOM     28  O   UNL     1      -7.911  12.960  24.524  0.00  0.00    +0.000 OA
ATOM     29  H   UNL     1      -7.255  12.381  24.990  0.00  0.00    +0.000 HD
ENDBRANCH  26  28
ENDBRANCH  12  26
TORSDOF 4
ENDMDL
MODEL 7
REMARK VINA RESULT:      -6.0      3.144      4.631
REMARK  Name = 
REMARK  6 active torsions:
REMARK  status: ('A' for Active; 'I' for Inactive)
REMARK    1  A    between atoms: C_1  and  C_2
REMARK    2  A    between atoms: C_5  and  N_6
REMARK    3  A    between atoms: C_10  and  C_11
REMARK    4  A    between atoms: C_19  and  C_20
REMARK    5  A    between atoms: C_20  and  O_22
REMARK    6  A    between atoms: N_24  and  C_25
REMARK                            x       y       z     vdW  Elec       q    Type
REMARK                         _______ _______ _______ _____ _____    ______ ____
ROOT
ATOM      1  C   UNL     1      -6.807  12.775  18.751  0.00  0.00    +0.000 C 
ATOM      2  C   UNL     1      -5.444  12.626  19.368  0.00  0.00    +0.000 A 
ATOM      3  C   UNL     1      -5.269  13.071  20.679  0.00  0.00    +0.000 A 
ATOM      4  F   UNL     1      -6.302  13.683  21.285  0.00  0.00    +0.000 F 
ATOM      5  C   UNL     1      -4.063  12.936  21.387  0.00  0.00    +0.000 A 
ATOM      6  C   UNL     1      -2.999  12.324  20.709  0.00  0.00    +0.000 A 
ATOM      7  F   UNL     1      -1.887  12.066  21.418  0.00  0.00    +0.000 F 
ATOM      8  C   UNL     1      -3.080  11.927  19.357  0.00  0.00    +0.000 A 
ATOM      9  C   UNL     1      -4.332  12.069  18.705  0.00  0.00    +0.000 A 
ATOM     10  C   UNL     1      -4.452  11.605  17.292  0.00  0.00    +0.000 A 
ATOM     11  O   UNL     1      -5.491  11.713  16.646  0.00  0.00    +0.000 OA
ATOM     12  C   UNL     1      -3.286  10.983  16.638  0.00  0.00    +0.000 A 
ATOM     13  C   UNL     1      -2.148  10.932  17.341  0.00  0.00    +0.000 A 
ATOM     14  N   UNL     1      -1.964  11.410  18.626  0.00  0.00    +0.000 N 
ENDROOT
BRANCH   5  15
ATOM     15  N   UNL     1      -3.977  13.430  22.678  0.00  0.00    +0.000 N 
ATOM     16  C   UNL     1      -4.653  12.811  23.822  0.00  0.00    +0.000 C 
ATOM     17  C   UNL     1      -3.801  13.078  25.094  0.00  0.00    +0.000 C 
ATOM     18  N   UNL     1      -3.467  14.504  25.320  0.00  0.00    +0.000 NA
ATOM     19  C   UNL     1      -2.860  15.084  24.096  0.00  0.00    +0.000 C 
ATOM     20  C   UNL     1      -2.608  16.574  24.304  0.00  0.00    +0.000 C 
ATOM     21  C   UNL     1      -3.746  14.872  22.845  0.00  0.00    +0.000 C 
ATOM     22  H   UNL     1      -2.791  14.565  26.081  0.00  0.00    +0.000 HD
ENDBRANCH   5  15
BRANCH  14  23
ATOM     23  C   UNL     1      -0.614  11.258  19.213  0.00  0.00    +0.000 C 
ATOM     24  C   UNL     1      -0.177   9.962  19.865  0.00  0.00    +0.000 C 
ATOM     25  C   UNL     1       0.461  10.398  18.590  0.00  0.00    +0.000 C 
ENDBRANCH  14  23
BRANCH  12  26
ATOM     26  C   UNL     1      -3.327  10.441  15.263  0.00  0.00    +0.000 C 
ATOM     27  O   UNL     1      -2.344  10.378  14.540  0.00  0.00    +0.000 OA
BRANCH  26  28
ATOM     28  O   UNL     1      -4.541  10.014  14.857  0.00  0.00    +0.000 OA
ATOM     29  H   UNL     1      -5.255  10.699  14.925  0.00  0.00    +0.000 HD
ENDBRANCH  26  28
ENDBRANCH  12  26
TORSDOF 4
ENDMDL
MODEL 8
REMARK VINA RESULT:      -5.9      2.059      2.645
REMARK  Name = 
REMARK  6 active torsions:
REMARK  status: ('A' for Active; 'I' for Inactive)
REMARK    1  A    between atoms: C_1  and  C_2
REMARK    2  A    between atoms: C_5  and  N_6
REMARK    3  A    between atoms: C_10  and  C_11
REMARK    4  A    between atoms: C_19  and  C_20
REMARK    5  A    between atoms: C_20  and  O_22
REMARK    6  A    between atoms: N_24  and  C_25
REMARK                            x       y       z     vdW  Elec       q    Type
REMARK                         _______ _______ _______ _____ _____    ______ ____
ROOT
ATOM      1  C   UNL     1       0.282   9.768  23.214  0.00  0.00    +0.000 C 
ATOM      2  C   UNL     1      -0.568  10.509  22.219  0.00  0.00    +0.000 A 
ATOM      3  C   UNL     1      -1.572  11.344  22.711  0.00  0.00    +0.000 A 
ATOM      4  F   UNL     1      -1.777  11.374  24.041  0.00  0.00    +0.000 F 
ATOM      5  C   UNL     1      -2.394  12.133  21.890  0.00  0.00    +0.000 A 
ATOM      6  C   UNL     1      -2.173  12.047  20.508  0.00  0.00    +0.000 A 
ATOM      7  F   UNL     1      -2.857  12.896  19.722  0.00  0.00    +0.000 F 
ATOM      8  C   UNL     1      -1.234  11.162  19.936  0.00  0.00    +0.000 A 
ATOM      9  C   UNL     1      -0.418  10.409  20.821  0.00  0.00    +0.000 A 
ATOM     10  C   UNL     1       0.617   9.508  20.237  0.00  0.00    +0.000 A 
ATOM     11  O   UNL     1       1.349   8.803  20.928  0.00  0.00    +0.000 OA
ATOM     12  C   UNL     1       0.784   9.459  18.772  0.00  0.00    +0.000 A 
ATOM     13  C   UNL     1      -0.064  10.188  18.037  0.00  0.00    +0.000 A 
ATOM     14  N   UNL     1      -1.085  10.985  18.524  0.00  0.00    +0.000 N 
ENDROOT
BRANCH   5  15
ATOM     15  N   UNL     1      -3.380  12.914  22.469  0.00  0.00    +0.000 N 
ATOM     16  C   UNL     1      -4.799  12.807  22.116  0.00  0.00    +0.000 C 
ATOM     17  C   UNL     1      -5.642  13.182  23.367  0.00  0.00    +0.000 C 
ATOM     18  N   UNL     1      -5.292  14.488  23.974  0.00  0.00    +0.000 NA
ATOM     19  C   UNL     1      -3.831  14.554  24.229  0.00  0.00    +0.000 C 
ATOM     20  C   UNL     1      -3.465  15.935  24.763  0.00  0.00    +0.000 C 
ATOM     21  C   UNL     1      -2.999  14.245  22.962  0.00  0.00    +0.000 C 
ATOM     22  H   UNL     1      -5.784  14.578  24.861  0.00  0.00    +0.000 HD
ENDBRANCH   5  15
BRANCH  14  23
ATOM     23  C   UNL     1      -1.912  11.701  17.529  0.00  0.00    +0.000 C 
ATOM     24  C   UNL     1      -2.372  11.028  16.251  0.00  0.00    +0.000 C 
ATOM     25  C   UNL     1      -3.372  11.388  17.296  0.00  0.00    +0.000 C 
ENDBRANCH  14  23
BRANCH  12  26
ATOM     26  C   UNL     1       1.821   8.641  18.106  0.00  0.00    +0.000 C 
ATOM     27  O   UNL     1       2.428   9.013  17.113  0.00  0.00    +0.000 OA
BRANCH  26  28
ATOM     28  O   UNL     1       2.055   7.443  18.680  0.00  0.00    +0.000 OA
ATOM     29  H   UNL     1       2.892   7.006  18.378  0.00  0.00    +0.000 HD
ENDBRANCH  26  28
ENDBRANCH  12  26
TORSDOF 4
ENDMDL
MODEL 9
REMARK VINA RESULT:      -5.9      3.102      4.519
REMARK  Name = 
REMARK  6 active torsions:
REMARK  status: ('A' for Active; 'I' for Inactive)
REMARK    1  A    between atoms: C_1  and  C_2
REMARK    2  A    between atoms: C_5  and  N_6
REMARK    3  A    between atoms: C_10  and  C_11
REMARK    4  A    between atoms: C_19  and  C_20
REMARK    5  A    between atoms: C_20  and  O_22
REMARK    6  A    between atoms: N_24  and  C_25
REMARK                            x       y       z     vdW  Elec       q    Type
REMARK                         _______ _______ _______ _____ _____    ______ ____
ROOT
ATOM      1  C   UNL     1      -6.634  11.918  19.437  0.00  0.00    +0.000 C 
ATOM      2  C   UNL     1      -5.279  12.364  19.914  0.00  0.00    +0.000 A 
ATOM      3  C   UNL     1      -5.204  13.027  21.139  0.00  0.00    +0.000 A 
ATOM      4  F   UNL     1      -6.352  13.304  21.782  0.00  0.00    +0.000 F 
ATOM      5  C   UNL     1      -3.994  13.441  21.721  0.00  0.00    +0.000 A 
ATOM      6  C   UNL     1      -2.822  13.165  21.003  0.00  0.00    +0.000 A 
ATOM      7  F   UNL     1      -1.653  13.432  21.610  0.00  0.00    +0.000 F 
ATOM      8  C   UNL     1      -2.830  12.574  19.722  0.00  0.00    +0.000 A 
ATOM      9  C   UNL     1      -4.082  12.157  19.199  0.00  0.00    +0.000 A 
ATOM     10  C   UNL     1      -4.105  11.482  17.869  0.00  0.00    +0.000 A 
ATOM     11  O   UNL     1      -5.147  11.111  17.333  0.00  0.00    +0.000 OA
ATOM     12  C   UNL     1      -2.833  11.236  17.165  0.00  0.00    +0.000 A 
ATOM     13  C   UNL     1      -1.718  11.702  17.740  0.00  0.00    +0.000 A 
ATOM     14  N   UNL     1      -1.648  12.396  18.935  0.00  0.00    +0.000 N 
ENDROOT
BRANCH   5  15
ATOM     15  N   UNL     1      -4.020  14.115  22.931  0.00  0.00    +0.000 N 
ATOM     16  C   UNL     1      -3.948  13.437  24.229  0.00  0.00    +0.000 C 
ATOM     17  C   UNL     1      -3.254  14.393  25.239  0.00  0.00    +0.000 C 
ATOM     18  N   UNL     1      -3.861  15.742  25.323  0.00  0.00    +0.000 NA
ATOM     19  C   UNL     1      -3.976  16.333  23.965  0.00  0.00    +0.000 C 
ATOM     20  C   UNL     1      -4.689  17.679  24.050  0.00  0.00    +0.000 C 
ATOM     21  C   UNL     1      -4.726  15.403  22.982  0.00  0.00    +0.000 C 
ATOM     22  H   UNL     1      -3.259  16.338  25.889  0.00  0.00    +0.000 HD
ENDBRANCH   5  15
BRANCH  14  23
ATOM     23  C   UNL     1      -0.306  12.829  19.383  0.00  0.00    +0.000 C 
ATOM     24  C   UNL     1       0.680  11.851  19.989  0.00  0.00    +0.000 C 
ATOM     25  C   UNL     1       0.964  12.455  18.656  0.00  0.00    +0.000 C 
ENDBRANCH  14  23
BRANCH  12  26
ATOM     26  C   UNL     1      -2.752  10.523  15.872  0.00  0.00    +0.000 C 
ATOM     27  O   UNL     1      -2.297   9.394  15.759  0.00  0.00    +0.000 OA
BRANCH  26  28
ATOM     28  O   UNL     1      -3.224  11.212  14.813  0.00  0.00    +0.000 OA
ATOM     29  H   UNL     1      -3.939  10.742  14.310  0.00  0.00    +0.000 HD
ENDBRANCH  26  28
ENDBRANCH  12  26
TORSDOF 4
ENDMDL
