MODEL 1
REMARK VINA RESULT:      -7.0      0.000      0.000
REMARK  Name = 
REMARK  7 active torsions:
REMARK  status: ('A' for Active; 'I' for Inactive)
REMARK    1  A    between atoms: C_1  and  O_2
REMARK    2  A    between atoms: O_2  and  C_3
REMARK    3  A    between atoms: C_6  and  N_7
REMARK    4  A    between atoms: C_8  and  C_10
REMARK    5  A    between atoms: N_12  and  C_13
REMARK    6  A    between atoms: C_13  and  C_14
REMARK    7  A    between atoms: C_14  and  O_15
REMARK                            x       y       z     vdW  Elec       q    Type
REMARK                         _______ _______ _______ _____ _____    ______ ____
ROOT
ATOM      1  N   UNL     1       4.823   4.568  16.172  0.00  0.00    +0.000 N 
ATOM      2  C   UNL     1       6.199   4.466  16.096  0.00  0.00    +0.000 C 
ATOM      3  O   UNL     1       7.011   4.319  17.004  0.00  0.00    +0.000 OA
ATOM      4  H   UNL     1       4.343   4.714  15.287  0.00  0.00    +0.000 HD
ENDROOT
BRANCH   1   8
ATOM      5  C   UNL     1       2.478   4.404  19.702  0.00  0.00    +0.000 A 
ATOM      6  C   UNL     1       3.574   5.256  19.625  0.00  0.00    +0.000 A 
ATOM      7  C   UNL     1       4.349   5.313  18.467  0.00  0.00    +0.000 A 
ATOM      8  C   UNL     1       4.061   4.513  17.359  0.00  0.00    +0.000 A 
ATOM      9  C   UNL     1       2.983   3.631  17.439  0.00  0.00    +0.000 A 
ATOM     10  C   UNL     1       2.198   3.575  18.605  0.00  0.00    +0.000 A 
ATOM     11 CL   UNL     1       0.865   2.473  18.639  0.00  0.00    +0.000 Cl
BRANCH   5  13
ATOM     12  C   UNL     1       2.111   3.361  21.793  0.00  0.00    +0.000 C 
ATOM     13  O   UNL     1       1.686   4.312  20.818  0.00  0.00    +0.000 OA
ENDBRANCH   5  13
ENDBRANCH   1   8
BRANCH   2  14
ATOM     14  C   UNL     1       6.780   4.564  14.676  0.00  0.00    +0.000 C 
ATOM     15  O   UNL     1       7.678   5.344  14.415  0.00  0.00    +0.000 OA
ATOM     16  N   UNL     1       6.165   3.680  13.815  0.00  0.00    +0.000 N 
ATOM     17  H   UNL     1       5.438   3.096  14.226  0.00  0.00    +0.000 HD
BRANCH  16  18
ATOM     18  C   UNL     1       6.500   3.522  12.418  0.00  0.00    +0.000 C 
BRANCH  18  19
ATOM     19  C   UNL     1       5.500   2.628  11.689  0.00  0.00    +0.000 C 
BRANCH  19  20
ATOM     20  O   UNL     1       6.041   1.320  11.505  0.00  0.00    +0.000 OA
ATOM     21  H   UNL     1       6.994   1.384  11.695  0.00  0.00    +0.000 HD
ENDBRANCH  19  20
ENDBRANCH  18  19
ENDBRANCH  16  18
ENDBRANCH   2  14
TORSDOF 6
ENDMDL
MODEL 2
REMARK VINA RESULT:      -7.0      1.228      1.639
REMARK  Name = 
REMARK  7 active torsions:
REMARK  status: ('A' for Active; 'I' for Inactive)
REMARK    1  A    between atoms: C_1  and  O_2
REMARK    2  A    between atoms: O_2  and  C_3
REMARK    3  A    between atoms: C_6  and  N_7
REMARK    4  A    between atoms: C_8  and  C_10
REMARK    5  A    between atoms: N_12  and  C_13
REMARK    6  A    between atoms: C_13  and  C_14
REMARK    7  A    between atoms: C_14  and  O_15
REMARK                            x       y       z     vdW  Elec       q    Type
REMARK                         _______ _______ _______ _____ _____    ______ ____
ROOT
ATOM      1  N   UNL     1       4.513   4.024  16.318  0.00  0.00    +0.000 N 
ATOM      2  C   UNL     1       5.864   4.285  16.444  0.00  0.00    +0.000 C 
ATOM      3  O   UNL     1       6.539   4.368  17.466  0.00  0.00    +0.000 OA
ATOM      4  H   UNL     1       4.151   4.027  15.367  0.00  0.00    +0.000 HD
ENDROOT
BRANCH   1   8
ATOM      5  C   UNL     1       1.873   3.345  19.567  0.00  0.00    +0.000 A 
ATOM      6  C   UNL     1       2.228   2.301  18.720  0.00  0.00    +0.000 A 
ATOM      7  C   UNL     1       3.095   2.520  17.650  0.00  0.00    +0.000 A 
ATOM      8  C   UNL     1       3.620   3.786  17.386  0.00  0.00    +0.000 A 
ATOM      9  C   UNL     1       3.244   4.846  18.211  0.00  0.00    +0.000 A 
ATOM     10  C   UNL     1       2.372   4.628  19.293  0.00  0.00    +0.000 A 
ATOM     11 CL   UNL     1       1.954   5.978  20.290  0.00  0.00    +0.000 Cl
BRANCH   5  13
ATOM     12  C   UNL     1       1.625   2.660  21.817  0.00  0.00    +0.000 C 
ATOM     13  O   UNL     1       1.024   3.181  20.632  0.00  0.00    +0.000 OA
ENDBRANCH   5  13
ENDBRANCH   1   8
BRANCH   2  14
ATOM     14  C   UNL     1       6.607   4.515  15.119  0.00  0.00    +0.000 C 
ATOM     15  O   UNL     1       7.519   5.319  15.038  0.00  0.00    +0.000 OA
ATOM     16  N   UNL     1       6.113   3.710  14.115  0.00  0.00    +0.000 N 
ATOM     17  H   UNL     1       5.351   3.089  14.382  0.00  0.00    +0.000 HD
BRANCH  16  18
ATOM     18  C   UNL     1       6.613   3.681  12.759  0.00  0.00    +0.000 C 
BRANCH  18  19
ATOM     19  C   UNL     1       5.631   3.009  11.803  0.00  0.00    +0.000 C 
BRANCH  19  20
ATOM     20  O   UNL     1       5.952   1.627  11.648  0.00  0.00    +0.000 OA
ATOM     21  H   UNL     1       5.422   1.301  10.900  0.00  0.00    +0.000 HD
ENDBRANCH  19  20
ENDBRANCH  18  19
ENDBRANCH  16  18
ENDBRANCH   2  14
TORSDOF 6
ENDMDL
MODEL 3
REMARK VINA RESULT:      -6.9      1.446      1.664
REMARK  Name = 
REMARK  7 active torsions:
REMARK  status: ('A' for Active; 'I' for Inactive)
REMARK    1  A    between atoms: C_1  and  O_2
REMARK    2  A    between atoms: O_2  and  C_3
REMARK    3  A    between atoms: C_6  and  N_7
REMARK    4  A    between atoms: C_8  and  C_10
REMARK    5  A    between atoms: N_12  and  C_13
REMARK    6  A    between atoms: C_13  and  C_14
REMARK    7  A    between atoms: C_14  and  O_15
REMARK                            x       y       z     vdW  Elec       q    Type
REMARK                         _______ _______ _______ _____ _____    ______ ____
ROOT
ATOM      1  N   UNL     1       4.977   4.471  16.234  0.00  0.00    +0.000 N 
ATOM      2  C   UNL     1       6.350   4.475  16.077  0.00  0.00    +0.000 C 
ATOM      3  O   UNL     1       7.222   4.413  16.938  0.00  0.00    +0.000 OA
ATOM      4  H   UNL     1       4.436   4.558  15.376  0.00  0.00    +0.000 HD
ENDROOT
BRANCH   1   8
ATOM      5  C   UNL     1       2.952   4.267  19.955  0.00  0.00    +0.000 A 
ATOM      6  C   UNL     1       3.528   3.127  19.405  0.00  0.00    +0.000 A 
ATOM      7  C   UNL     1       4.194   3.189  18.181  0.00  0.00    +0.000 A 
ATOM      8  C   UNL     1       4.293   4.384  17.465  0.00  0.00    +0.000 A 
ATOM      9  C   UNL     1       3.690   5.526  17.994  0.00  0.00    +0.000 A 
ATOM     10  C   UNL     1       3.021   5.467  19.230  0.00  0.00    +0.000 A 
ATOM     11 CL   UNL     1       2.307   6.919  19.843  0.00  0.00    +0.000 Cl
BRANCH   5  13
ATOM     12  C   UNL     1       1.777   2.988  21.560  0.00  0.00    +0.000 C 
ATOM     13  O   UNL     1       2.288   4.257  21.155  0.00  0.00    +0.000 OA
ENDBRANCH   5  13
ENDBRANCH   1   8
BRANCH   2  14
ATOM     14  C   UNL     1       6.837   4.585  14.623  0.00  0.00    +0.000 C 
ATOM     15  O   UNL     1       7.673   5.410  14.299  0.00  0.00    +0.000 OA
ATOM     16  N   UNL     1       6.222   3.657  13.811  0.00  0.00    +0.000 N 
ATOM     17  H   UNL     1       5.555   3.040  14.272  0.00  0.00    +0.000 HD
BRANCH  16  18
ATOM     18  C   UNL     1       6.479   3.498  12.398  0.00  0.00    +0.000 C 
BRANCH  18  19
ATOM     19  C   UNL     1       5.469   2.566  11.735  0.00  0.00    +0.000 C 
BRANCH  19  20
ATOM     20  O   UNL     1       4.225   3.237  11.535  0.00  0.00    +0.000 OA
ATOM     21  H   UNL     1       4.441   4.129  11.209  0.00  0.00    +0.000 HD
ENDBRANCH  19  20
ENDBRANCH  18  19
ENDBRANCH  16  18
ENDBRANCH   2  14
TORSDOF 6
ENDMDL
MODEL 4
REMARK VINA RESULT:      -6.8      1.330      1.355
REMARK  Name = 
REMARK  7 active torsions:
REMARK  status: ('A' for Active; 'I' for Inactive)
REMARK    1  A    between atoms: C_1  and  O_2
REMARK    2  A    between atoms: O_2  and  C_3
REMARK    3  A    between atoms: C_6  and  N_7
REMARK    4  A    between atoms: C_8  and  C_10
REMARK    5  A    between atoms: N_12  and  C_13
REMARK    6  A    between atoms: C_13  and  C_14
REMARK    7  A    between atoms: C_14  and  O_15
REMARK                            x       y       z     vdW  Elec       q    Type
REMARK                         _______ _______ _______ _____ _____    ______ ____
ROOT
ATOM      1  N   UNL     1       5.322   4.650  15.831  0.00  0.00    +0.000 N 
ATOM      2  C   UNL     1       6.626   5.043  15.592  0.00  0.00    +0.000 C 
ATOM      3  O   UNL     1       7.433   5.541  16.371  0.00  0.00    +0.000 OA
ATOM      4  H   UNL     1       4.820   4.281  15.026  0.00  0.00    +0.000 HD
ENDROOT
BRANCH   1   8
ATOM      5  C   UNL     1       3.278   4.874  19.539  0.00  0.00    +0.000 A 
ATOM      6  C   UNL     1       3.283   5.962  18.673  0.00  0.00    +0.000 A 
ATOM      7  C   UNL     1       3.955   5.893  17.453  0.00  0.00    +0.000 A 
ATOM      8  C   UNL     1       4.651   4.745  17.068  0.00  0.00    +0.000 A 
ATOM      9  C   UNL     1       4.678   3.661  17.946  0.00  0.00    +0.000 A 
ATOM     10  C   UNL     1       3.998   3.726  19.176  0.00  0.00    +0.000 A 
ATOM     11 CL   UNL     1       4.055   2.345  20.215  0.00  0.00    +0.000 Cl
BRANCH   5  13
ATOM     12  C   UNL     1       1.248   4.546  20.709  0.00  0.00    +0.000 C 
ATOM     13  O   UNL     1       2.632   4.893  20.749  0.00  0.00    +0.000 OA
ENDBRANCH   5  13
ENDBRANCH   1   8
BRANCH   2  14
ATOM     14  C   UNL     1       7.113   4.835  14.149  0.00  0.00    +0.000 C 
ATOM     15  O   UNL     1       8.042   5.481  13.698  0.00  0.00    +0.000 OA
ATOM     16  N   UNL     1       6.383   3.860  13.504  0.00  0.00    +0.000 N 
ATOM     17  H   UNL     1       5.648   3.421  14.056  0.00  0.00    +0.000 HD
BRANCH  16  18
ATOM     18  C   UNL     1       6.609   3.425  12.144  0.00  0.00    +0.000 C 
BRANCH  18  19
ATOM     19  C   UNL     1       5.564   2.410  11.689  0.00  0.00    +0.000 C 
BRANCH  19  20
ATOM     20  O   UNL     1       6.185   1.167  11.360  0.00  0.00    +0.000 OA
ATOM     21  H   UNL     1       6.562   0.817  12.186  0.00  0.00    +0.000 HD
ENDBRANCH  19  20
ENDBRANCH  18  19
ENDBRANCH  16  18
ENDBRANCH   2  14
TORSDOF 6
ENDMDL
MODEL 5
REMARK VINA RESULT:      -6.5      1.000      1.000
REMARK  Name = 
REMARK  7 active torsions:
REMARK  status: ('A' for Active; 'I' for Inactive)
REMARK    1  A    between atoms: C_1  and  O_2
REMARK    2  A    between atoms: O_2  and  C_3
REMARK    3  A    between atoms: C_6  and  N_7
REMARK    4  A    between atoms: C_8  and  C_10
REMARK    5  A    between atoms: N_12  and  C_13
REMARK    6  A    between atoms: C_13  and  C_14
REMARK    7  A    between atoms: C_14  and  O_15
REMARK                            x       y       z     vdW  Elec       q    Type
REMARK                         _______ _______ _______ _____ _____    ______ ____
ROOT
ATOM      1  N   UNL     1       5.042   3.772  16.193  0.00  0.00    +0.000 N 
ATOM      2  C   UNL     1       6.342   4.222  16.055  0.00  0.00    +0.000 C 
ATOM      3  O   UNL     1       7.175   4.445  16.928  0.00  0.00    +0.000 OA
ATOM      4  H   UNL     1       4.515   3.681  15.328  0.00  0.00    +0.000 HD
ENDROOT
BRANCH   1   8
ATOM      5  C   UNL     1       3.078   2.885  19.845  0.00  0.00    +0.000 A 
ATOM      6  C   UNL     1       4.422   3.243  19.839  0.00  0.00    +0.000 A 
ATOM      7  C   UNL     1       5.072   3.534  18.640  0.00  0.00    +0.000 A 
ATOM      8  C   UNL     1       4.406   3.464  17.415  0.00  0.00    +0.000 A 
ATOM      9  C   UNL     1       3.067   3.075  17.409  0.00  0.00    +0.000 A 
ATOM     10  C   UNL     1       2.407   2.784  18.617  0.00  0.00    +0.000 A 
ATOM     11 CL   UNL     1       0.742   2.322  18.547  0.00  0.00    +0.000 Cl
BRANCH   5  13
ATOM     12  C   UNL     1       2.053   3.712  21.810  0.00  0.00    +0.000 C 
ATOM     13  O   UNL     1       2.395   2.590  20.997  0.00  0.00    +0.000 OA
ENDBRANCH   5  13
ENDBRANCH   1   8
BRANCH   2  14
ATOM     14  C   UNL     1       6.786   4.489  14.608  0.00  0.00    +0.000 C 
ATOM     15  O   UNL     1       7.558   5.393  14.342  0.00  0.00    +0.000 OA
ATOM     16  N   UNL     1       6.216   3.593  13.730  0.00  0.00    +0.000 N 
ATOM     17  H   UNL     1       5.602   2.895  14.147  0.00  0.00    +0.000 HD
BRANCH  16  18
ATOM     18  C   UNL     1       6.451   3.573  12.304  0.00  0.00    +0.000 C 
BRANCH  18  19
ATOM     19  C   UNL     1       5.518   2.602  11.585  0.00  0.00    +0.000 C 
BRANCH  19  20
ATOM     20  O   UNL     1       6.110   1.306  11.507  0.00  0.00    +0.000 OA
ATOM     21  H   UNL     1       6.434   1.094  12.400  0.00  0.00    +0.000 HD
ENDBRANCH  19  20
ENDBRANCH  18  19
ENDBRANCH  16  18
ENDBRANCH   2  14
TORSDOF 6
ENDMDL
MODEL 6
REMARK VINA RESULT:      -6.4      1.273      1.458
REMARK  Name = 
REMARK  7 active torsions:
REMARK  status: ('A' for Active; 'I' for Inactive)
REMARK    1  A    between atoms: C_1  and  O_2
REMARK    2  A    between atoms: O_2  and  C_3
REMARK    3  A    between atoms: C_6  and  N_7
REMARK    4  A    between atoms: C_8  and  C_10
REMARK    5  A    between atoms: N_12  and  C_13
REMARK    6  A    between atoms: C_13  and  C_14
REMARK    7  A    between atoms: C_14  and  O_15
REMARK                            x       y       z     vdW  Elec       q    Type
REMARK                         _______ _______ _______ _____ _____    ______ ____
ROOT
ATOM      1  N   UNL     1       4.937   5.307  15.975  0.00  0.00    +0.000 N 
ATOM      2  C   UNL     1       6.240   4.846  15.956  0.00  0.00    +0.000 C 
ATOM      3  O   UNL     1       6.962   4.540  16.900  0.00  0.00    +0.000 OA
ATOM      4  H   UNL     1       4.536   5.526  15.067  0.00  0.00    +0.000 HD
ENDROOT
BRANCH   1   8
ATOM      5  C   UNL     1       2.551   5.883  19.434  0.00  0.00    +0.000 A 
ATOM      6  C   UNL     1       3.072   6.975  18.749  0.00  0.00    +0.000 A 
ATOM      7  C   UNL     1       3.858   6.791  17.612  0.00  0.00    +0.000 A 
ATOM      8  C   UNL     1       4.158   5.514  17.134  0.00  0.00    +0.000 A 
ATOM      9  C   UNL     1       3.667   4.411  17.832  0.00  0.00    +0.000 A 
ATOM     10  C   UNL     1       2.871   4.594  18.978  0.00  0.00    +0.000 A 
ATOM     11 CL   UNL     1       2.278   3.189  19.794  0.00  0.00    +0.000 Cl
BRANCH   5  13
ATOM     12  C   UNL     1       1.431   7.351  20.911  0.00  0.00    +0.000 C 
ATOM     13  O   UNL     1       1.773   6.012  20.556  0.00  0.00    +0.000 OA
ENDBRANCH   5  13
ENDBRANCH   1   8
BRANCH   2  14
ATOM     14  C   UNL     1       6.862   4.716  14.557  0.00  0.00    +0.000 C 
ATOM     15  O   UNL     1       7.833   5.377  14.234  0.00  0.00    +0.000 OA
ATOM     16  N   UNL     1       6.193   3.788  13.789  0.00  0.00    +0.000 N 
ATOM     17  H   UNL     1       5.406   3.325  14.242  0.00  0.00    +0.000 HD
BRANCH  16  18
ATOM     18  C   UNL     1       6.546   3.428  12.434  0.00  0.00    +0.000 C 
BRANCH  18  19
ATOM     19  C   UNL     1       5.454   2.603  11.759  0.00  0.00    +0.000 C 
BRANCH  19  20
ATOM     20  O   UNL     1       5.925   1.285  11.479  0.00  0.00    +0.000 OA
ATOM     21  H   UNL     1       6.193   1.279  10.543  0.00  0.00    +0.000 HD
ENDBRANCH  19  20
ENDBRANCH  18  19
ENDBRANCH  16  18
ENDBRANCH   2  14
TORSDOF 6
ENDMDL
MODEL 7
REMARK VINA RESULT:      -6.4      1.262      1.292
REMARK  Name = 
REMARK  7 active torsions:
REMARK  status: ('A' for Active; 'I' for Inactive)
REMARK    1  A    between atoms: C_1  and  O_2
REMARK    2  A    between atoms: O_2  and  C_3
REMARK    3  A    between atoms: C_6  and  N_7
REMARK    4  A    between atoms: C_8  and  C_10
REMARK    5  A    between atoms: N_12  and  C_13
REMARK    6  A    between atoms: C_13  and  C_14
REMARK    7  A    between atoms: C_14  and  O_15
REMARK                            x       y       z     vdW  Elec       q    Type
REMARK                         _______ _______ _______ _____ _____    ______ ____
ROOT
ATOM      1  N   UNL     1       5.391   4.202  16.130  0.00  0.00    +0.000 N 
ATOM      2  C   UNL     1       5.773   5.216  15.272  0.00  0.00    +0.000 C 
ATOM      3  O   UNL     1       5.510   6.414  15.332  0.00  0.00    +0.000 OA
ATOM      4  H   UNL     1       5.703   3.269  15.873  0.00  0.00    +0.000 HD
ENDROOT
BRANCH   1   8
ATOM      5  C   UNL     1       2.961   4.695  19.571  0.00  0.00    +0.000 A 
ATOM      6  C   UNL     1       4.206   5.310  19.496  0.00  0.00    +0.000 A 
ATOM      7  C   UNL     1       5.009   5.150  18.367  0.00  0.00    +0.000 A 
ATOM      8  C   UNL     1       4.600   4.363  17.288  0.00  0.00    +0.000 A 
ATOM      9  C   UNL     1       3.367   3.716  17.368  0.00  0.00    +0.000 A 
ATOM     10  C   UNL     1       2.554   3.878  18.505  0.00  0.00    +0.000 A 
ATOM     11 CL   UNL     1       1.028   3.064  18.540  0.00  0.00    +0.000 Cl
BRANCH   5  13
ATOM     12  C   UNL     1       1.526   6.103  20.817  0.00  0.00    +0.000 C 
ATOM     13  O   UNL     1       2.136   4.822  20.658  0.00  0.00    +0.000 OA
ENDBRANCH   5  13
ENDBRANCH   1   8
BRANCH   2  14
ATOM     14  C   UNL     1       6.631   4.768  14.078  0.00  0.00    +0.000 C 
ATOM     15  O   UNL     1       7.705   5.292  13.841  0.00  0.00    +0.000 OA
ATOM     16  N   UNL     1       6.031   3.743  13.380  0.00  0.00    +0.000 N 
ATOM     17  H   UNL     1       5.132   3.428  13.743  0.00  0.00    +0.000 HD
BRANCH  16  18
ATOM     18  C   UNL     1       6.596   3.095  12.218  0.00  0.00    +0.000 C 
BRANCH  18  19
ATOM     19  C   UNL     1       5.555   2.279  11.457  0.00  0.00    +0.000 C 
BRANCH  19  20
ATOM     20  O   UNL     1       4.310   2.976  11.410  0.00  0.00    +0.000 OA
ATOM     21  H   UNL     1       3.941   2.828  10.522  0.00  0.00    +0.000 HD
ENDBRANCH  19  20
ENDBRANCH  18  19
ENDBRANCH  16  18
ENDBRANCH   2  14
TORSDOF 6
ENDMDL
MODEL 8
REMARK VINA RESULT:      -6.3      1.795      2.254
REMARK  Name = 
REMARK  7 active torsions:
REMARK  status: ('A' for Active; 'I' for Inactive)
REMARK    1  A    between atoms: C_1  and  O_2
REMARK    2  A    between atoms: O_2  and  C_3
REMARK    3  A    between atoms: C_6  and  N_7
REMARK    4  A    between atoms: C_8  and  C_10
REMARK    5  A    between atoms: N_12  and  C_13
REMARK    6  A    between atoms: C_13  and  C_14
REMARK    7  A    between atoms: C_14  and  O_15
REMARK                            x       y       z     vdW  Elec       q    Type
REMARK                         _______ _______ _______ _____ _____    ______ ____
ROOT
ATOM      1  N   UNL     1       5.323   4.285  14.761  0.00  0.00    +0.000 N 
ATOM      2  C   UNL     1       6.547   4.527  14.166  0.00  0.00    +0.000 C 
ATOM      3  O   UNL     1       7.521   5.119  14.622  0.00  0.00    +0.000 OA
ATOM      4  H   UNL     1       4.644   3.793  14.185  0.00  0.00    +0.000 HD
ENDROOT
BRANCH   1   8
ATOM      5  C   UNL     1       4.160   5.434  18.674  0.00  0.00    +0.000 A 
ATOM      6  C   UNL     1       4.392   6.397  17.699  0.00  0.00    +0.000 A 
ATOM      7  C   UNL     1       4.776   6.024  16.411  0.00  0.00    +0.000 A 
ATOM      8  C   UNL     1       4.952   4.683  16.063  0.00  0.00    +0.000 A 
ATOM      9  C   UNL     1       4.752   3.712  17.044  0.00  0.00    +0.000 A 
ATOM     10  C   UNL     1       4.362   4.085  18.343  0.00  0.00    +0.000 A 
ATOM     11 CL   UNL     1       4.114   2.835  19.512  0.00  0.00    +0.000 Cl
BRANCH   5  13
ATOM     12  C   UNL     1       2.391   6.022  20.130  0.00  0.00    +0.000 C 
ATOM     13  O   UNL     1       3.780   5.750  19.953  0.00  0.00    +0.000 OA
ENDBRANCH   5  13
ENDBRANCH   1   8
BRANCH   2  14
ATOM     14  C   UNL     1       6.690   3.989  12.734  0.00  0.00    +0.000 C 
ATOM     15  O   UNL     1       7.469   4.494  11.945  0.00  0.00    +0.000 OA
ATOM     16  N   UNL     1       5.859   2.912  12.512  0.00  0.00    +0.000 N 
ATOM     17  H   UNL     1       5.286   2.625  13.304  0.00  0.00    +0.000 HD
BRANCH  16  18
ATOM     18  C   UNL     1       5.775   2.177  11.270  0.00  0.00    +0.000 C 
BRANCH  18  19
ATOM     19  C   UNL     1       6.850   1.099  11.171  0.00  0.00    +0.000 C 
BRANCH  19  20
ATOM     20  O   UNL     1       6.282  -0.194  11.381  0.00  0.00    +0.000 OA
ATOM     21  H   UNL     1       6.982  -0.841  11.184  0.00  0.00    +0.000 HD
ENDBRANCH  19  20
ENDBRANCH  18  19
ENDBRANCH  16  18
ENDBRANCH   2  14
TORSDOF 6
ENDMDL
MODEL 9
REMARK VINA RESULT:      -6.2      4.030      5.382
REMARK  Name = 
REMARK  7 active torsions:
REMARK  status: ('A' for Active; 'I' for Inactive)
REMARK    1  A    between atoms: C_1  and  O_2
REMARK    2  A    between atoms: O_2  and  C_3
REMARK    3  A    between atoms: C_6  and  N_7
REMARK    4  A    between atoms: C_8  and  C_10
REMARK    5  A    between atoms: N_12  and  C_13
REMARK    6  A    between atoms: C_13  and  C_14
REMARK    7  A    between atoms: C_14  and  O_15
REMARK                            x       y       z     vdW  Elec       q    Type
REMARK                         _______ _______ _______ _____ _____    ______ ____
ROOT
ATOM      1  N   UNL     1       3.272   6.450  18.292  0.00  0.00    +0.000 N 
ATOM      2  C   UNL     1       2.808   5.220  17.865  0.00  0.00    +0.000 C 
ATOM      3  O   UNL     1       1.648   4.839  17.735  0.00  0.00    +0.000 OA
ATOM      4  H   UNL     1       4.284   6.542  18.350  0.00  0.00    +0.000 HD
ENDROOT
BRANCH   1   8
ATOM      5  C   UNL     1       0.807   9.701  19.448  0.00  0.00    +0.000 A 
ATOM      6  C   UNL     1       1.279   9.606  18.144  0.00  0.00    +0.000 A 
ATOM      7  C   UNL     1       2.091   8.540  17.759  0.00  0.00    +0.000 A 
ATOM      8  C   UNL     1       2.466   7.546  18.666  0.00  0.00    +0.000 A 
ATOM      9  C   UNL     1       2.023   7.650  19.985  0.00  0.00    +0.000 A 
ATOM     10  C   UNL     1       1.201   8.724  20.375  0.00  0.00    +0.000 A 
ATOM     11 CL   UNL     1       0.672   8.791  22.020  0.00  0.00    +0.000 Cl
BRANCH   5  13
ATOM     12  C   UNL     1      -1.260  10.829  19.224  0.00  0.00    +0.000 C 
ATOM     13  O   UNL     1       0.006  10.730  19.875  0.00  0.00    +0.000 OA
ENDBRANCH   5  13
ENDBRANCH   1   8
BRANCH   2  14
ATOM     14  C   UNL     1       3.901   4.196  17.524  0.00  0.00    +0.000 C 
ATOM     15  O   UNL     1       3.918   3.094  18.043  0.00  0.00    +0.000 OA
ATOM     16  N   UNL     1       4.788   4.693  16.593  0.00  0.00    +0.000 N 
ATOM     17  H   UNL     1       4.600   5.639  16.264  0.00  0.00    +0.000 HD
BRANCH  16  18
ATOM     18  C   UNL     1       5.916   3.965  16.057  0.00  0.00    +0.000 C 
BRANCH  18  19
ATOM     19  C   UNL     1       7.245   4.519  16.563  0.00  0.00    +0.000 C 
BRANCH  19  20
ATOM     20  O   UNL     1       7.439   4.178  17.935  0.00  0.00    +0.000 OA
ATOM     21  H   UNL     1       8.184   4.717  18.253  0.00  0.00    +0.000 HD
ENDBRANCH  19  20
ENDBRANCH  18  19
ENDBRANCH  16  18
ENDBRANCH   2  14
TORSDOF 6
ENDMDL
