MODEL 1
REMARK VINA RESULT:      -7.5      0.000      0.000
REMARK  Name = 
REMARK  4 active torsions:
REMARK  status: ('A' for Active; 'I' for Inactive)
REMARK    1  A    between atoms: C_1  and  C_2
REMARK    2  A    between atoms: C_2  and  C_3
REMARK    3  A    between atoms: C_5  and  C_6
REMARK    4  A    between atoms: C_11  and  C_13
REMARK                            x       y       z     vdW  Elec       q    Type
REMARK                         _______ _______ _______ _____ _____    ______ ____
ROOT
ATOM      1  C   UNL     1       7.138   6.144  16.861  0.00  0.00    +0.000 C 
ATOM      2  C   UNL     1       7.813   5.079  17.754  0.00  0.00    +0.000 C 
ATOM      3  C   UNL     1       6.811   4.290  18.611  0.00  0.00    +0.000 C 
ATOM      4  C   UNL     1       5.843   5.218  19.355  0.00  0.00    +0.000 C 
ATOM      5  N   UNL     1       5.237   6.192  18.444  0.00  0.00    +0.000 N 
ATOM      6  C   UNL     1       3.882   6.334  18.111  0.00  0.00    +0.000 C 
ATOM      7  O   UNL     1       3.471   7.299  17.460  0.00  0.00    +0.000 OA
ATOM      8  C   UNL     1       6.206   7.017  17.717  0.00  0.00    +0.000 C 
ENDROOT
BRANCH   6   9
ATOM      9  C   UNL     1       2.867   5.329  18.529  0.00  0.00    +0.000 A 
ATOM     10  C   UNL     1       2.287   5.460  19.803  0.00  0.00    +0.000 A 
ATOM     11  C   UNL     1       1.323   4.547  20.233  0.00  0.00    +0.000 A 
ATOM     12  C   UNL     1       0.943   3.507  19.391  0.00  0.00    +0.000 A 
ATOM     13  F   UNL     1       0.048   2.605  19.817  0.00  0.00    +0.000 F 
ATOM     14  C   UNL     1       1.465   3.394  18.111  0.00  0.00    +0.000 A 
ATOM     15  C   UNL     1       2.399   4.331  17.667  0.00  0.00    +0.000 A 
ENDBRANCH   6   9
BRANCH   1  18
ATOM     16  C   UNL     1       6.115   4.263  14.059  0.00  0.00    +0.000 A 
ATOM     17  N   UNL     1       6.923   4.396  15.079  0.00  0.00    +0.000 NA
ATOM     18  C   UNL     1       6.423   5.504  15.712  0.00  0.00    +0.000 A 
ATOM     19  N   UNL     1       5.346   6.044  15.127  0.00  0.00    +0.000 NA
ATOM     20  O   UNL     1       5.129   5.206  14.022  0.00  0.00    +0.000 OA
BRANCH  16  22
ATOM     21  C   UNL     1       4.979   3.411  12.043  0.00  0.00    +0.000 C 
ATOM     22  C   UNL     1       6.204   3.297  12.943  0.00  0.00    +0.000 C 
ENDBRANCH  16  22
ENDBRANCH   1  18
TORSDOF 3
ENDMDL
MODEL 2
REMARK VINA RESULT:      -7.4      0.167      1.043
REMARK  Name = 
REMARK  4 active torsions:
REMARK  status: ('A' for Active; 'I' for Inactive)
REMARK    1  A    between atoms: C_1  and  C_2
REMARK    2  A    between atoms: C_2  and  C_3
REMARK    3  A    between atoms: C_5  and  C_6
REMARK    4  A    between atoms: C_11  and  C_13
REMARK                            x       y       z     vdW  Elec       q    Type
REMARK                         _______ _______ _______ _____ _____    ______ ____
ROOT
ATOM      1  C   UNL     1       7.099   6.070  16.748  0.00  0.00    +0.000 C 
ATOM      2  C   UNL     1       7.785   5.060  17.696  0.00  0.00    +0.000 C 
ATOM      3  C   UNL     1       6.791   4.316  18.602  0.00  0.00    +0.000 C 
ATOM      4  C   UNL     1       5.822   5.279  19.298  0.00  0.00    +0.000 C 
ATOM      5  N   UNL     1       5.207   6.198  18.337  0.00  0.00    +0.000 N 
ATOM      6  C   UNL     1       3.849   6.314  18.004  0.00  0.00    +0.000 C 
ATOM      7  O   UNL     1       3.430   7.239  17.302  0.00  0.00    +0.000 OA
ATOM      8  C   UNL     1       6.168   6.986  17.559  0.00  0.00    +0.000 C 
ENDROOT
BRANCH   6   9
ATOM      9  C   UNL     1       2.842   5.330  18.484  0.00  0.00    +0.000 A 
ATOM     10  C   UNL     1       2.560   4.217  17.673  0.00  0.00    +0.000 A 
ATOM     11  C   UNL     1       1.630   3.263  18.087  0.00  0.00    +0.000 A 
ATOM     12  C   UNL     1       0.984   3.423  19.309  0.00  0.00    +0.000 A 
ATOM     13  F   UNL     1       0.061   2.530  19.691  0.00  0.00    +0.000 F 
ATOM     14  C   UNL     1       1.290   4.486  20.147  0.00  0.00    +0.000 A 
ATOM     15  C   UNL     1       2.250   5.418  19.749  0.00  0.00    +0.000 A 
ENDBRANCH   6   9
BRANCH   1  18
ATOM     16  C   UNL     1       6.107   4.145  13.965  0.00  0.00    +0.000 A 
ATOM     17  N   UNL     1       6.982   4.371  14.911  0.00  0.00    +0.000 NA
ATOM     18  C   UNL     1       6.382   5.363  15.641  0.00  0.00    +0.000 A 
ATOM     19  N   UNL     1       5.181   5.743  15.187  0.00  0.00    +0.000 NA
ATOM     20  O   UNL     1       4.988   4.919  14.067  0.00  0.00    +0.000 OA
BRANCH  16  22
ATOM     21  C   UNL     1       4.988   3.329  11.925  0.00  0.00    +0.000 C 
ATOM     22  C   UNL     1       6.234   3.243  12.800  0.00  0.00    +0.000 C 
ENDBRANCH  16  22
ENDBRANCH   1  18
TORSDOF 3
ENDMDL
MODEL 3
REMARK VINA RESULT:      -7.4      1.008      1.471
REMARK  Name = 
REMARK  4 active torsions:
REMARK  status: ('A' for Active; 'I' for Inactive)
REMARK    1  A    between atoms: C_1  and  C_2
REMARK    2  A    between atoms: C_2  and  C_3
REMARK    3  A    between atoms: C_5  and  C_6
REMARK    4  A    between atoms: C_11  and  C_13
REMARK                            x       y       z     vdW  Elec       q    Type
REMARK                         _______ _______ _______ _____ _____    ______ ____
ROOT
ATOM      1  C   UNL     1       7.398   6.119  17.131  0.00  0.00    +0.000 C 
ATOM      2  C   UNL     1       7.956   5.349  18.349  0.00  0.00    +0.000 C 
ATOM      3  C   UNL     1       6.878   4.548  19.098  0.00  0.00    +0.000 C 
ATOM      4  C   UNL     1       5.641   5.402  19.401  0.00  0.00    +0.000 C 
ATOM      5  N   UNL     1       5.167   6.093  18.200  0.00  0.00    +0.000 N 
ATOM      6  C   UNL     1       3.935   5.940  17.547  0.00  0.00    +0.000 C 
ATOM      7  O   UNL     1       3.583   6.698  16.639  0.00  0.00    +0.000 OA
ATOM      8  C   UNL     1       6.175   6.944  17.560  0.00  0.00    +0.000 C 
ENDROOT
BRANCH   6   9
ATOM      9  C   UNL     1       2.986   4.856  17.918  0.00  0.00    +0.000 A 
ATOM     10  C   UNL     1       3.119   3.608  17.284  0.00  0.00    +0.000 A 
ATOM     11  C   UNL     1       2.258   2.559  17.608  0.00  0.00    +0.000 A 
ATOM     12  C   UNL     1       1.266   2.759  18.563  0.00  0.00    +0.000 A 
ATOM     13  F   UNL     1       0.412   1.767  18.847  0.00  0.00    +0.000 F 
ATOM     14  C   UNL     1       1.155   3.966  19.238  0.00  0.00    +0.000 A 
ATOM     15  C   UNL     1       2.043   5.001  18.942  0.00  0.00    +0.000 A 
ENDBRANCH   6   9
BRANCH   1  18
ATOM     16  C   UNL     1       6.856   4.517  14.037  0.00  0.00    +0.000 A 
ATOM     17  N   UNL     1       7.441   5.473  14.710  0.00  0.00    +0.000 NA
ATOM     18  C   UNL     1       7.089   5.185  16.003  0.00  0.00    +0.000 A 
ATOM     19  N   UNL     1       6.325   4.094  16.144  0.00  0.00    +0.000 NA
ATOM     20  O   UNL     1       6.176   3.636  14.826  0.00  0.00    +0.000 OA
BRANCH  16  22
ATOM     21  C   UNL     1       5.823   3.216  12.214  0.00  0.00    +0.000 C 
ATOM     22  C   UNL     1       6.783   4.346  12.569  0.00  0.00    +0.000 C 
ENDBRANCH  16  22
ENDBRANCH   1  18
TORSDOF 3
ENDMDL
MODEL 4
REMARK VINA RESULT:      -7.3      3.168      6.017
REMARK  Name = 
REMARK  4 active torsions:
REMARK  status: ('A' for Active; 'I' for Inactive)
REMARK    1  A    between atoms: C_1  and  C_2
REMARK    2  A    between atoms: C_2  and  C_3
REMARK    3  A    between atoms: C_5  and  C_6
REMARK    4  A    between atoms: C_11  and  C_13
REMARK                            x       y       z     vdW  Elec       q    Type
REMARK                         _______ _______ _______ _____ _____    ______ ____
ROOT
ATOM      1  C   UNL     1       4.953   5.565  19.400  0.00  0.00    +0.000 C 
ATOM      2  C   UNL     1       3.971   6.607  18.818  0.00  0.00    +0.000 C 
ATOM      3  C   UNL     1       4.069   6.738  17.289  0.00  0.00    +0.000 C 
ATOM      4  C   UNL     1       5.520   6.907  16.824  0.00  0.00    +0.000 C 
ATOM      5  N   UNL     1       6.387   5.881  17.408  0.00  0.00    +0.000 N 
ATOM      6  C   UNL     1       7.113   4.884  16.741  0.00  0.00    +0.000 C 
ATOM      7  O   UNL     1       7.940   4.180  17.328  0.00  0.00    +0.000 OA
ATOM      8  C   UNL     1       6.369   5.844  18.874  0.00  0.00    +0.000 C 
ENDROOT
BRANCH   6   9
ATOM      9  C   UNL     1       6.926   4.624  15.288  0.00  0.00    +0.000 A 
ATOM     10  C   UNL     1       7.816   5.228  14.384  0.00  0.00    +0.000 A 
ATOM     11  C   UNL     1       7.685   5.004  13.013  0.00  0.00    +0.000 A 
ATOM     12  C   UNL     1       6.665   4.179  12.549  0.00  0.00    +0.000 A 
ATOM     13  F   UNL     1       6.512   3.996  11.231  0.00  0.00    +0.000 F 
ATOM     14  C   UNL     1       5.812   3.532  13.430  0.00  0.00    +0.000 A 
ATOM     15  C   UNL     1       5.969   3.725  14.803  0.00  0.00    +0.000 A 
ENDBRANCH   6   9
BRANCH   1  18
ATOM     16  C   UNL     1       3.185   2.609  18.645  0.00  0.00    +0.000 A 
ATOM     17  N   UNL     1       3.241   3.915  18.610  0.00  0.00    +0.000 NA
ATOM     18  C   UNL     1       4.495   4.172  19.097  0.00  0.00    +0.000 A 
ATOM     19  N   UNL     1       5.205   3.083  19.418  0.00  0.00    +0.000 NA
ATOM     20  O   UNL     1       4.332   2.030  19.104  0.00  0.00    +0.000 OA
BRANCH  16  22
ATOM     21  C   UNL     1       0.732   2.396  18.781  0.00  0.00    +0.000 C 
ATOM     22  C   UNL     1       2.032   1.735  18.336  0.00  0.00    +0.000 C 
ENDBRANCH  16  22
ENDBRANCH   1  18
TORSDOF 3
ENDMDL
MODEL 5
REMARK VINA RESULT:      -7.3      3.123      5.968
REMARK  Name = 
REMARK  4 active torsions:
REMARK  status: ('A' for Active; 'I' for Inactive)
REMARK    1  A    between atoms: C_1  and  C_2
REMARK    2  A    between atoms: C_2  and  C_3
REMARK    3  A    between atoms: C_5  and  C_6
REMARK    4  A    between atoms: C_11  and  C_13
REMARK                            x       y       z     vdW  Elec       q    Type
REMARK                         _______ _______ _______ _____ _____    ______ ____
ROOT
ATOM      1  C   UNL     1       4.817   5.664  19.398  0.00  0.00    +0.000 C 
ATOM      2  C   UNL     1       3.810   6.648  18.761  0.00  0.00    +0.000 C 
ATOM      3  C   UNL     1       3.923   6.718  17.229  0.00  0.00    +0.000 C 
ATOM      4  C   UNL     1       5.375   6.914  16.774  0.00  0.00    +0.000 C 
ATOM      5  N   UNL     1       6.266   5.941  17.411  0.00  0.00    +0.000 N 
ATOM      6  C   UNL     1       7.032   4.941  16.795  0.00  0.00    +0.000 C 
ATOM      7  O   UNL     1       7.873   4.290  17.421  0.00  0.00    +0.000 OA
ATOM      8  C   UNL     1       6.231   5.966  18.877  0.00  0.00    +0.000 C 
ENDROOT
BRANCH   6   9
ATOM      9  C   UNL     1       6.872   4.615  15.352  0.00  0.00    +0.000 A 
ATOM     10  C   UNL     1       5.825   3.754  14.977  0.00  0.00    +0.000 A 
ATOM     11  C   UNL     1       5.631   3.429  13.634  0.00  0.00    +0.000 A 
ATOM     12  C   UNL     1       6.482   3.963  12.671  0.00  0.00    +0.000 A 
ATOM     13  F   UNL     1       6.323   3.619  11.386  0.00  0.00    +0.000 F 
ATOM     14  C   UNL     1       7.485   4.855  13.017  0.00  0.00    +0.000 A 
ATOM     15  C   UNL     1       7.653   5.211  14.357  0.00  0.00    +0.000 A 
ENDBRANCH   6   9
BRANCH   1  18
ATOM     16  C   UNL     1       3.150   2.618  18.778  0.00  0.00    +0.000 A 
ATOM     17  N   UNL     1       3.153   3.924  18.702  0.00  0.00    +0.000 NA
ATOM     18  C   UNL     1       4.408   4.245  19.148  0.00  0.00    +0.000 A 
ATOM     19  N   UNL     1       5.168   3.195  19.483  0.00  0.00    +0.000 NA
ATOM     20  O   UNL     1       4.330   2.099  19.225  0.00  0.00    +0.000 OA
BRANCH  16  22
ATOM     21  C   UNL     1       0.695   2.385  18.797  0.00  0.00    +0.000 C 
ATOM     22  C   UNL     1       2.026   1.692  18.525  0.00  0.00    +0.000 C 
ENDBRANCH  16  22
ENDBRANCH   1  18
TORSDOF 3
ENDMDL
MODEL 6
REMARK VINA RESULT:      -7.3      2.714      4.403
REMARK  Name = 
REMARK  4 active torsions:
REMARK  status: ('A' for Active; 'I' for Inactive)
REMARK    1  A    between atoms: C_1  and  C_2
REMARK    2  A    between atoms: C_2  and  C_3
REMARK    3  A    between atoms: C_5  and  C_6
REMARK    4  A    between atoms: C_11  and  C_13
REMARK                            x       y       z     vdW  Elec       q    Type
REMARK                         _______ _______ _______ _____ _____    ______ ____
ROOT
ATOM      1  C   UNL     1       7.100   5.069  16.339  0.00  0.00    +0.000 C 
ATOM      2  C   UNL     1       6.187   5.563  15.194  0.00  0.00    +0.000 C 
ATOM      3  C   UNL     1       4.751   5.861  15.656  0.00  0.00    +0.000 C 
ATOM      4  C   UNL     1       4.166   4.706  16.478  0.00  0.00    +0.000 C 
ATOM      5  N   UNL     1       5.083   4.300  17.547  0.00  0.00    +0.000 N 
ATOM      6  C   UNL     1       4.871   4.359  18.932  0.00  0.00    +0.000 C 
ATOM      7  O   UNL     1       5.652   3.832  19.731  0.00  0.00    +0.000 OA
ATOM      8  C   UNL     1       6.416   3.909  17.078  0.00  0.00    +0.000 C 
ENDROOT
BRANCH   6   9
ATOM      9  C   UNL     1       3.692   5.056  19.512  0.00  0.00    +0.000 A 
ATOM     10  C   UNL     1       3.491   6.409  19.184  0.00  0.00    +0.000 A 
ATOM     11  C   UNL     1       2.393   7.100  19.697  0.00  0.00    +0.000 A 
ATOM     12  C   UNL     1       1.499   6.439  20.534  0.00  0.00    +0.000 A 
ATOM     13  F   UNL     1       0.467   7.112  21.060  0.00  0.00    +0.000 F 
ATOM     14  C   UNL     1       1.651   5.092  20.824  0.00  0.00    +0.000 A 
ATOM     15  C   UNL     1       2.728   4.391  20.278  0.00  0.00    +0.000 A 
ENDBRANCH   6   9
BRANCH   1  18
ATOM     16  C   UNL     1       7.972   8.131  17.855  0.00  0.00    +0.000 A 
ATOM     17  N   UNL     1       7.440   7.501  16.840  0.00  0.00    +0.000 NA
ATOM     18  C   UNL     1       7.464   6.195  17.256  0.00  0.00    +0.000 A 
ATOM     19  N   UNL     1       7.980   6.006  18.477  0.00  0.00    +0.000 NA
ATOM     20  O   UNL     1       8.312   7.307  18.888  0.00  0.00    +0.000 OA
BRANCH  16  22
ATOM     21  C   UNL     1       9.171   9.819  19.196  0.00  0.00    +0.000 C 
ATOM     22  C   UNL     1       8.311   9.567  17.962  0.00  0.00    +0.000 C 
ENDBRANCH  16  22
ENDBRANCH   1  18
TORSDOF 3
ENDMDL
MODEL 7
REMARK VINA RESULT:      -7.2      2.704      4.423
REMARK  Name = 
REMARK  4 active torsions:
REMARK  status: ('A' for Active; 'I' for Inactive)
REMARK    1  A    between atoms: C_1  and  C_2
REMARK    2  A    between atoms: C_2  and  C_3
REMARK    3  A    between atoms: C_5  and  C_6
REMARK    4  A    between atoms: C_11  and  C_13
REMARK                            x       y       z     vdW  Elec       q    Type
REMARK                         _______ _______ _______ _____ _____    ______ ____
ROOT
ATOM      1  C   UNL     1       7.200   5.225  16.353  0.00  0.00    +0.000 C 
ATOM      2  C   UNL     1       6.299   5.699  15.190  0.00  0.00    +0.000 C 
ATOM      3  C   UNL     1       4.848   5.965  15.624  0.00  0.00    +0.000 C 
ATOM      4  C   UNL     1       4.273   4.797  16.435  0.00  0.00    +0.000 C 
ATOM      5  N   UNL     1       5.177   4.410  17.521  0.00  0.00    +0.000 N 
ATOM      6  C   UNL     1       4.938   4.463  18.902  0.00  0.00    +0.000 C 
ATOM      7  O   UNL     1       5.714   3.953  19.716  0.00  0.00    +0.000 OA
ATOM      8  C   UNL     1       6.527   4.049  17.078  0.00  0.00    +0.000 C 
ENDROOT
BRANCH   6   9
ATOM      9  C   UNL     1       3.732   5.134  19.459  0.00  0.00    +0.000 A 
ATOM     10  C   UNL     1       2.891   4.394  20.308  0.00  0.00    +0.000 A 
ATOM     11  C   UNL     1       1.755   4.986  20.862  0.00  0.00    +0.000 A 
ATOM     12  C   UNL     1       1.462   6.313  20.565  0.00  0.00    +0.000 A 
ATOM     13  F   UNL     1       0.350   6.871  21.062  0.00  0.00    +0.000 F 
ATOM     14  C   UNL     1       2.309   7.074  19.774  0.00  0.00    +0.000 A 
ATOM     15  C   UNL     1       3.467   6.493  19.253  0.00  0.00    +0.000 A 
ENDBRANCH   6   9
BRANCH   1  18
ATOM     16  C   UNL     1       7.970   8.305  17.887  0.00  0.00    +0.000 A 
ATOM     17  N   UNL     1       7.469   7.663  16.864  0.00  0.00    +0.000 NA
ATOM     18  C   UNL     1       7.521   6.358  17.277  0.00  0.00    +0.000 A 
ATOM     19  N   UNL     1       8.025   6.180  18.505  0.00  0.00    +0.000 NA
ATOM     20  O   UNL     1       8.317   7.487  18.923  0.00  0.00    +0.000 OA
BRANCH  16  22
ATOM     21  C   UNL     1       9.241  10.000  19.150  0.00  0.00    +0.000 C 
ATOM     22  C   UNL     1       8.270   9.749  18.001  0.00  0.00    +0.000 C 
ENDBRANCH  16  22
ENDBRANCH   1  18
TORSDOF 3
ENDMDL
MODEL 8
REMARK VINA RESULT:      -6.9      3.208      4.869
REMARK  Name = 
REMARK  4 active torsions:
REMARK  status: ('A' for Active; 'I' for Inactive)
REMARK    1  A    between atoms: C_1  and  C_2
REMARK    2  A    between atoms: C_2  and  C_3
REMARK    3  A    between atoms: C_5  and  C_6
REMARK    4  A    between atoms: C_11  and  C_13
REMARK                            x       y       z     vdW  Elec       q    Type
REMARK                         _______ _______ _______ _____ _____    ______ ____
ROOT
ATOM      1  C   UNL     1       3.536   2.633  18.673  0.00  0.00    +0.000 C 
ATOM      2  C   UNL     1       2.783   2.641  17.324  0.00  0.00    +0.000 C 
ATOM      3  C   UNL     1       1.982   3.932  17.090  0.00  0.00    +0.000 C 
ATOM      4  C   UNL     1       1.113   4.290  18.301  0.00  0.00    +0.000 C 
ATOM      5  N   UNL     1       1.895   4.270  19.539  0.00  0.00    +0.000 N 
ATOM      6  C   UNL     1       2.167   5.340  20.404  0.00  0.00    +0.000 C 
ATOM      7  O   UNL     1       2.699   5.166  21.505  0.00  0.00    +0.000 OA
ATOM      8  C   UNL     1       2.562   2.992  19.807  0.00  0.00    +0.000 C 
ENDROOT
BRANCH   6   9
ATOM      9  C   UNL     1       1.824   6.742  20.042  0.00  0.00    +0.000 A 
ATOM     10  C   UNL     1       1.105   7.513  20.972  0.00  0.00    +0.000 A 
ATOM     11  C   UNL     1       0.771   8.836  20.678  0.00  0.00    +0.000 A 
ATOM     12  C   UNL     1       1.155   9.384  19.459  0.00  0.00    +0.000 A 
ATOM     13  F   UNL     1       0.800  10.640  19.158  0.00  0.00    +0.000 F 
ATOM     14  C   UNL     1       1.912   8.656  18.553  0.00  0.00    +0.000 A 
ATOM     15  C   UNL     1       2.280   7.345  18.864  0.00  0.00    +0.000 A 
ENDBRANCH   6   9
BRANCH   1  18
ATOM     16  C   UNL     1       6.283   4.671  17.815  0.00  0.00    +0.000 A 
ATOM     17  N   UNL     1       5.162   4.101  17.457  0.00  0.00    +0.000 NA
ATOM     18  C   UNL     1       4.723   3.545  18.630  0.00  0.00    +0.000 A 
ATOM     19  N   UNL     1       5.521   3.758  19.683  0.00  0.00    +0.000 NA
ATOM     20  O   UNL     1       6.565   4.525  19.142  0.00  0.00    +0.000 OA
BRANCH  16  22
ATOM     21  C   UNL     1       7.441   6.806  17.387  0.00  0.00    +0.000 C 
ATOM     22  C   UNL     1       7.276   5.352  16.957  0.00  0.00    +0.000 C 
ENDBRANCH  16  22
ENDBRANCH   1  18
TORSDOF 3
ENDMDL
MODEL 9
REMARK VINA RESULT:      -6.9      3.194      4.965
REMARK  Name = 
REMARK  4 active torsions:
REMARK  status: ('A' for Active; 'I' for Inactive)
REMARK    1  A    between atoms: C_1  and  C_2
REMARK    2  A    between atoms: C_2  and  C_3
REMARK    3  A    between atoms: C_5  and  C_6
REMARK    4  A    between atoms: C_11  and  C_13
REMARK                            x       y       z     vdW  Elec       q    Type
REMARK                         _______ _______ _______ _____ _____    ______ ____
ROOT
ATOM      1  C   UNL     1       3.494   2.524  18.610  0.00  0.00    +0.000 C 
ATOM      2  C   UNL     1       2.696   2.638  17.291  0.00  0.00    +0.000 C 
ATOM      3  C   UNL     1       1.883   3.939  17.192  0.00  0.00    +0.000 C 
ATOM      4  C   UNL     1       1.054   4.191  18.457  0.00  0.00    +0.000 C 
ATOM      5  N   UNL     1       1.878   4.074  19.663  0.00  0.00    +0.000 N 
ATOM      6  C   UNL     1       2.174   5.070  20.604  0.00  0.00    +0.000 C 
ATOM      7  O   UNL     1       2.744   4.809  21.668  0.00  0.00    +0.000 OA
ATOM      8  C   UNL     1       2.558   2.782  19.801  0.00  0.00    +0.000 C 
ENDROOT
BRANCH   6   9
ATOM      9  C   UNL     1       1.815   6.495  20.370  0.00  0.00    +0.000 A 
ATOM     10  C   UNL     1       2.288   7.118  19.201  0.00  0.00    +0.000 A 
ATOM     11  C   UNL     1       1.967   8.449  18.936  0.00  0.00    +0.000 A 
ATOM     12  C   UNL     1       1.176   9.155  19.837  0.00  0.00    +0.000 A 
ATOM     13  F   UNL     1       0.901  10.445  19.605  0.00  0.00    +0.000 F 
ATOM     14  C   UNL     1       0.656   8.541  20.967  0.00  0.00    +0.000 A 
ATOM     15  C   UNL     1       0.945   7.197  21.211  0.00  0.00    +0.000 A 
ENDBRANCH   6   9
BRANCH   1  18
ATOM     16  C   UNL     1       6.246   4.589  17.835  0.00  0.00    +0.000 A 
ATOM     17  N   UNL     1       5.137   4.015  17.445  0.00  0.00    +0.000 NA
ATOM     18  C   UNL     1       4.675   3.444  18.602  0.00  0.00    +0.000 A 
ATOM     19  N   UNL     1       5.449   3.650  19.675  0.00  0.00    +0.000 NA
ATOM     20  O   UNL     1       6.500   4.429  19.166  0.00  0.00    +0.000 OA
BRANCH  16  22
ATOM     21  C   UNL     1       7.419   6.727  17.474  0.00  0.00    +0.000 C 
ATOM     22  C   UNL     1       7.253   5.286  17.006  0.00  0.00    +0.000 C 
ENDBRANCH  16  22
ENDBRANCH   1  18
TORSDOF 3
ENDMDL
