MODEL 1
REMARK VINA RESULT:      -7.0      0.000      0.000
REMARK  Name = 
REMARK  4 active torsions:
REMARK  status: ('A' for Active; 'I' for Inactive)
REMARK    1  A    between atoms: O_1  and  C_2
REMARK    2  A    between atoms: C_5  and  N_6
REMARK    3  A    between atoms: C_7  and  S_8
REMARK    4  A    between atoms: N_9  and  C_10
REMARK                            x       y       z     vdW  Elec       q    Type
REMARK                         _______ _______ _______ _____ _____    ______ ____
ROOT
ATOM      1  N   UNL     1       5.372   4.015  17.936  0.00  0.00    +0.000 N 
ATOM      2  C   UNL     1       5.914   4.382  16.726  0.00  0.00    +0.000 C 
ATOM      3  N   UNL     1       5.712   3.775  15.599  0.00  0.00    +0.000 NA
ATOM      4  H   UNL     1       5.735   4.552  18.713  0.00  0.00    +0.000 HD
ENDROOT
BRANCH   1   8
ATOM      5  C   UNL     1       1.438   2.665  18.632  0.00  0.00    +0.000 A 
ATOM      6  C   UNL     1       2.501   1.893  19.083  0.00  0.00    +0.000 A 
ATOM      7  C   UNL     1       3.814   2.332  18.878  0.00  0.00    +0.000 A 
ATOM      8  C   UNL     1       4.076   3.525  18.195  0.00  0.00    +0.000 A 
ATOM      9  C   UNL     1       2.981   4.308  17.793  0.00  0.00    +0.000 A 
ATOM     10  C   UNL     1       1.668   3.878  17.999  0.00  0.00    +0.000 A 
BRANCH   5  11
ATOM     11  O   UNL     1       0.147   2.266  18.793  0.00  0.00    +0.000 OA
ATOM     12  H   UNL     1       0.026   1.419  18.332  0.00  0.00    +0.000 HD
ENDBRANCH   5  11
ENDBRANCH   1   8
BRANCH   3  13
ATOM     13  C   UNL     1       6.270   4.123  14.358  0.00  0.00    +0.000 A 
ATOM     14  C   UNL     1       7.341   5.011  14.204  0.00  0.00    +0.000 A 
ATOM     15  C   UNL     1       7.892   5.273  12.946  0.00  0.00    +0.000 A 
ATOM     16  C   UNL     1       7.428   4.592  11.827  0.00  0.00    +0.000 A 
ATOM     17  C   UNL     1       6.407   3.655  11.964  0.00  0.00    +0.000 A 
ATOM     18  C   UNL     1       5.830   3.432  13.221  0.00  0.00    +0.000 A 
ENDBRANCH   3  13
BRANCH   2  19
ATOM     19  S   UNL     1       6.965   5.778  16.960  0.00  0.00    +0.000 S 
ATOM     20  H   UNL     1       7.971   5.310  16.211  0.00  0.00    +0.000 HD
ENDBRANCH   2  19
TORSDOF 4
ENDMDL
MODEL 2
REMARK VINA RESULT:      -7.0      0.187      1.182
REMARK  Name = 
REMARK  4 active torsions:
REMARK  status: ('A' for Active; 'I' for Inactive)
REMARK    1  A    between atoms: O_1  and  C_2
REMARK    2  A    between atoms: C_5  and  N_6
REMARK    3  A    between atoms: C_7  and  S_8
REMARK    4  A    between atoms: N_9  and  C_10
REMARK                            x       y       z     vdW  Elec       q    Type
REMARK                         _______ _______ _______ _____ _____    ______ ____
ROOT
ATOM      1  N   UNL     1       5.261   4.007  17.969  0.00  0.00    +0.000 N 
ATOM      2  C   UNL     1       5.843   4.349  16.770  0.00  0.00    +0.000 C 
ATOM      3  N   UNL     1       5.574   3.807  15.624  0.00  0.00    +0.000 NA
ATOM      4  H   UNL     1       5.682   4.473  18.762  0.00  0.00    +0.000 HD
ENDROOT
BRANCH   1   8
ATOM      5  C   UNL     1       1.292   2.847  18.795  0.00  0.00    +0.000 A 
ATOM      6  C   UNL     1       1.512   4.013  18.071  0.00  0.00    +0.000 A 
ATOM      7  C   UNL     1       2.822   4.406  17.772  0.00  0.00    +0.000 A 
ATOM      8  C   UNL     1       3.918   3.658  18.216  0.00  0.00    +0.000 A 
ATOM      9  C   UNL     1       3.663   2.460  18.904  0.00  0.00    +0.000 A 
ATOM     10  C   UNL     1       2.358   2.060  19.203  0.00  0.00    +0.000 A 
BRANCH   5  11
ATOM     11  O   UNL     1       0.036   2.439  19.125  0.00  0.00    +0.000 OA
ATOM     12  H   UNL     1      -0.197   1.677  18.568  0.00  0.00    +0.000 HD
ENDBRANCH   5  11
ENDBRANCH   1   8
BRANCH   3  13
ATOM     13  C   UNL     1       6.169   4.129  14.394  0.00  0.00    +0.000 A 
ATOM     14  C   UNL     1       7.249   5.008  14.255  0.00  0.00    +0.000 A 
ATOM     15  C   UNL     1       7.837   5.245  13.009  0.00  0.00    +0.000 A 
ATOM     16  C   UNL     1       7.401   4.547  11.890  0.00  0.00    +0.000 A 
ATOM     17  C   UNL     1       6.370   3.619  12.014  0.00  0.00    +0.000 A 
ATOM     18  C   UNL     1       5.757   3.421  13.258  0.00  0.00    +0.000 A 
ENDBRANCH   3  13
BRANCH   2  19
ATOM     19  S   UNL     1       7.045   5.609  17.047  0.00  0.00    +0.000 S 
ATOM     20  H   UNL     1       6.165   6.545  17.424  0.00  0.00    +0.000 HD
ENDBRANCH   2  19
TORSDOF 4
ENDMDL
MODEL 3
REMARK VINA RESULT:      -7.0      4.233      7.215
REMARK  Name = 
REMARK  4 active torsions:
REMARK  status: ('A' for Active; 'I' for Inactive)
REMARK    1  A    between atoms: O_1  and  C_2
REMARK    2  A    between atoms: C_5  and  N_6
REMARK    3  A    between atoms: C_7  and  S_8
REMARK    4  A    between atoms: N_9  and  C_10
REMARK                            x       y       z     vdW  Elec       q    Type
REMARK                         _______ _______ _______ _____ _____    ______ ____
ROOT
ATOM      1  N   UNL     1       3.990   4.317  18.533  0.00  0.00    +0.000 N 
ATOM      2  C   UNL     1       3.025   5.208  18.943  0.00  0.00    +0.000 C 
ATOM      3  N   UNL     1       3.206   6.478  19.127  0.00  0.00    +0.000 NA
ATOM      4  H   UNL     1       3.676   3.356  18.550  0.00  0.00    +0.000 HD
ENDROOT
BRANCH   1   8
ATOM      5  C   UNL     1       6.948   4.926  15.590  0.00  0.00    +0.000 A 
ATOM      6  C   UNL     1       7.330   4.883  16.925  0.00  0.00    +0.000 A 
ATOM      7  C   UNL     1       6.366   4.664  17.916  0.00  0.00    +0.000 A 
ATOM      8  C   UNL     1       5.015   4.519  17.586  0.00  0.00    +0.000 A 
ATOM      9  C   UNL     1       4.664   4.518  16.225  0.00  0.00    +0.000 A 
ATOM     10  C   UNL     1       5.623   4.732  15.231  0.00  0.00    +0.000 A 
BRANCH   5  11
ATOM     11  O   UNL     1       7.849   5.155  14.596  0.00  0.00    +0.000 OA
ATOM     12  H   UNL     1       8.072   6.101  14.595  0.00  0.00    +0.000 HD
ENDBRANCH   5  11
ENDBRANCH   1   8
BRANCH   3  13
ATOM     13  C   UNL     1       2.239   7.399  19.562  0.00  0.00    +0.000 A 
ATOM     14  C   UNL     1       1.712   7.425  20.858  0.00  0.00    +0.000 A 
ATOM     15  C   UNL     1       0.793   8.405  21.248  0.00  0.00    +0.000 A 
ATOM     16  C   UNL     1       0.443   9.421  20.368  0.00  0.00    +0.000 A 
ATOM     17  C   UNL     1       1.004   9.454  19.093  0.00  0.00    +0.000 A 
ATOM     18  C   UNL     1       1.889   8.444  18.695  0.00  0.00    +0.000 A 
ENDBRANCH   3  13
BRANCH   2  19
ATOM     19  S   UNL     1       1.515   4.340  19.222  0.00  0.00    +0.000 S 
ATOM     20  H   UNL     1       2.020   3.124  18.982  0.00  0.00    +0.000 HD
ENDBRANCH   2  19
TORSDOF 4
ENDMDL
MODEL 4
REMARK VINA RESULT:      -6.9      4.423      7.346
REMARK  Name = 
REMARK  4 active torsions:
REMARK  status: ('A' for Active; 'I' for Inactive)
REMARK    1  A    between atoms: O_1  and  C_2
REMARK    2  A    between atoms: C_5  and  N_6
REMARK    3  A    between atoms: C_7  and  S_8
REMARK    4  A    between atoms: N_9  and  C_10
REMARK                            x       y       z     vdW  Elec       q    Type
REMARK                         _______ _______ _______ _____ _____    ______ ____
ROOT
ATOM      1  N   UNL     1       3.834   4.539  19.331  0.00  0.00    +0.000 N 
ATOM      2  C   UNL     1       2.848   5.462  19.591  0.00  0.00    +0.000 C 
ATOM      3  N   UNL     1       2.973   6.746  19.475  0.00  0.00    +0.000 NA
ATOM      4  H   UNL     1       3.571   3.595  19.583  0.00  0.00    +0.000 HD
ENDROOT
BRANCH   1   8
ATOM      5  C   UNL     1       6.816   4.622  16.351  0.00  0.00    +0.000 A 
ATOM      6  C   UNL     1       5.507   4.338  15.980  0.00  0.00    +0.000 A 
ATOM      7  C   UNL     1       4.499   4.324  16.952  0.00  0.00    +0.000 A 
ATOM      8  C   UNL     1       4.794   4.559  18.299  0.00  0.00    +0.000 A 
ATOM      9  C   UNL     1       6.118   4.890  18.637  0.00  0.00    +0.000 A 
ATOM     10  C   UNL     1       7.127   4.911  17.671  0.00  0.00    +0.000 A 
BRANCH   5  11
ATOM     11  O   UNL     1       7.829   4.628  15.442  0.00  0.00    +0.000 OA
ATOM     12  H   UNL     1       7.660   5.333  14.795  0.00  0.00    +0.000 HD
ENDBRANCH   5  11
ENDBRANCH   1   8
BRANCH   3  13
ATOM     13  C   UNL     1       1.984   7.705  19.753  0.00  0.00    +0.000 A 
ATOM     14  C   UNL     1       1.414   7.894  21.017  0.00  0.00    +0.000 A 
ATOM     15  C   UNL     1       0.475   8.905  21.245  0.00  0.00    +0.000 A 
ATOM     16  C   UNL     1       0.146   9.793  20.228  0.00  0.00    +0.000 A 
ATOM     17  C   UNL     1       0.749   9.664  18.979  0.00  0.00    +0.000 A 
ATOM     18  C   UNL     1       1.655   8.622  18.746  0.00  0.00    +0.000 A 
ENDBRANCH   3  13
BRANCH   2  19
ATOM     19  S   UNL     1       1.402   4.623  20.153  0.00  0.00    +0.000 S 
ATOM     20  H   UNL     1       0.535   5.512  19.652  0.00  0.00    +0.000 HD
ENDBRANCH   2  19
TORSDOF 4
ENDMDL
MODEL 5
REMARK VINA RESULT:      -6.9      5.816      7.930
REMARK  Name = 
REMARK  4 active torsions:
REMARK  status: ('A' for Active; 'I' for Inactive)
REMARK    1  A    between atoms: O_1  and  C_2
REMARK    2  A    between atoms: C_5  and  N_6
REMARK    3  A    between atoms: C_7  and  S_8
REMARK    4  A    between atoms: N_9  and  C_10
REMARK                            x       y       z     vdW  Elec       q    Type
REMARK                         _______ _______ _______ _____ _____    ______ ____
ROOT
ATOM      1  N   UNL     1       2.101   7.315  20.716  0.00  0.00    +0.000 N 
ATOM      2  C   UNL     1       1.466   8.517  20.502  0.00  0.00    +0.000 C 
ATOM      3  N   UNL     1       1.246   9.052  19.342  0.00  0.00    +0.000 NA
ATOM      4  H   UNL     1       2.267   7.123  21.695  0.00  0.00    +0.000 HD
ENDROOT
BRANCH   1   8
ATOM      5  C   UNL     1       1.721   3.712  18.559  0.00  0.00    +0.000 A 
ATOM      6  C   UNL     1       2.370   4.785  17.960  0.00  0.00    +0.000 A 
ATOM      7  C   UNL     1       2.522   5.985  18.667  0.00  0.00    +0.000 A 
ATOM      8  C   UNL     1       2.003   6.131  19.957  0.00  0.00    +0.000 A 
ATOM      9  C   UNL     1       1.394   5.014  20.554  0.00  0.00    +0.000 A 
ATOM     10  C   UNL     1       1.243   3.813  19.856  0.00  0.00    +0.000 A 
BRANCH   5  11
ATOM     11  O   UNL     1       1.534   2.535  17.901  0.00  0.00    +0.000 OA
ATOM     12  H   UNL     1       2.343   2.327  17.404  0.00  0.00    +0.000 HD
ENDBRANCH   5  11
ENDBRANCH   1   8
BRANCH   3  13
ATOM     13  C   UNL     1       0.616  10.285  19.105  0.00  0.00    +0.000 A 
ATOM     14  C   UNL     1       1.296  11.505  19.015  0.00  0.00    +0.000 A 
ATOM     15  C   UNL     1       0.619  12.692  18.719  0.00  0.00    +0.000 A 
ATOM     16  C   UNL     1      -0.740  12.666  18.431  0.00  0.00    +0.000 A 
ATOM     17  C   UNL     1      -1.426  11.454  18.450  0.00  0.00    +0.000 A 
ATOM     18  C   UNL     1      -0.750  10.276  18.793  0.00  0.00    +0.000 A 
ENDBRANCH   3  13
BRANCH   2  19
ATOM     19  S   UNL     1       1.040   9.233  22.056  0.00  0.00    +0.000 S 
ATOM     20  H   UNL     1       1.399   8.172  22.789  0.00  0.00    +0.000 HD
ENDBRANCH   2  19
TORSDOF 4
ENDMDL
MODEL 6
REMARK VINA RESULT:      -6.8      5.799      7.885
REMARK  Name = 
REMARK  4 active torsions:
REMARK  status: ('A' for Active; 'I' for Inactive)
REMARK    1  A    between atoms: O_1  and  C_2
REMARK    2  A    between atoms: C_5  and  N_6
REMARK    3  A    between atoms: C_7  and  S_8
REMARK    4  A    between atoms: N_9  and  C_10
REMARK                            x       y       z     vdW  Elec       q    Type
REMARK                         _______ _______ _______ _____ _____    ______ ____
ROOT
ATOM      1  N   UNL     1       2.099   7.269  20.777  0.00  0.00    +0.000 N 
ATOM      2  C   UNL     1       1.469   8.472  20.558  0.00  0.00    +0.000 C 
ATOM      3  N   UNL     1       1.244   9.000  19.396  0.00  0.00    +0.000 NA
ATOM      4  H   UNL     1       2.270   7.084  21.757  0.00  0.00    +0.000 HD
ENDROOT
BRANCH   1   8
ATOM      5  C   UNL     1       1.858   3.776  18.428  0.00  0.00    +0.000 A 
ATOM      6  C   UNL     1       1.293   3.769  19.697  0.00  0.00    +0.000 A 
ATOM      7  C   UNL     1       1.347   4.925  20.486  0.00  0.00    +0.000 A 
ATOM      8  C   UNL     1       1.990   6.080  20.029  0.00  0.00    +0.000 A 
ATOM      9  C   UNL     1       2.509   6.072  18.723  0.00  0.00    +0.000 A 
ATOM     10  C   UNL     1       2.455   4.924  17.929  0.00  0.00    +0.000 A 
BRANCH   5  11
ATOM     11  O   UNL     1       1.845   2.669  17.636  0.00  0.00    +0.000 OA
ATOM     12  H   UNL     1       1.347   2.874  16.828  0.00  0.00    +0.000 HD
ENDBRANCH   5  11
ENDBRANCH   1   8
BRANCH   3  13
ATOM     13  C   UNL     1       0.619  10.234  19.153  0.00  0.00    +0.000 A 
ATOM     14  C   UNL     1       1.306  11.447  19.030  0.00  0.00    +0.000 A 
ATOM     15  C   UNL     1       0.632  12.635  18.729  0.00  0.00    +0.000 A 
ATOM     16  C   UNL     1      -0.733  12.616  18.472  0.00  0.00    +0.000 A 
ATOM     17  C   UNL     1      -1.428  11.410  18.524  0.00  0.00    +0.000 A 
ATOM     18  C   UNL     1      -0.754  10.232  18.870  0.00  0.00    +0.000 A 
ENDBRANCH   3  13
BRANCH   2  19
ATOM     19  S   UNL     1       1.056   9.203  22.109  0.00  0.00    +0.000 S 
ATOM     20  H   UNL     1      -0.018   9.863  21.658  0.00  0.00    +0.000 HD
ENDBRANCH   2  19
TORSDOF 4
ENDMDL
MODEL 7
REMARK VINA RESULT:      -6.7      5.793      7.984
REMARK  Name = 
REMARK  4 active torsions:
REMARK  status: ('A' for Active; 'I' for Inactive)
REMARK    1  A    between atoms: O_1  and  C_2
REMARK    2  A    between atoms: C_5  and  N_6
REMARK    3  A    between atoms: C_7  and  S_8
REMARK    4  A    between atoms: N_9  and  C_10
REMARK                            x       y       z     vdW  Elec       q    Type
REMARK                         _______ _______ _______ _____ _____    ______ ____
ROOT
ATOM      1  N   UNL     1       2.127   7.319  20.614  0.00  0.00    +0.000 N 
ATOM      2  C   UNL     1       1.471   8.504  20.374  0.00  0.00    +0.000 C 
ATOM      3  N   UNL     1       1.219   8.998  19.203  0.00  0.00    +0.000 NA
ATOM      4  H   UNL     1       2.317   7.162  21.595  0.00  0.00    +0.000 HD
ENDROOT
BRANCH   1   8
ATOM      5  C   UNL     1       1.745   3.642  18.586  0.00  0.00    +0.000 A 
ATOM      6  C   UNL     1       2.380   4.697  17.944  0.00  0.00    +0.000 A 
ATOM      7  C   UNL     1       2.533   5.921  18.607  0.00  0.00    +0.000 A 
ATOM      8  C   UNL     1       2.027   6.109  19.897  0.00  0.00    +0.000 A 
ATOM      9  C   UNL     1       1.432   5.010  20.539  0.00  0.00    +0.000 A 
ATOM     10  C   UNL     1       1.281   3.784  19.885  0.00  0.00    +0.000 A 
BRANCH   5  11
ATOM     11  O   UNL     1       1.558   2.441  17.971  0.00  0.00    +0.000 OA
ATOM     12  H   UNL     1       0.626   2.374  17.704  0.00  0.00    +0.000 HD
ENDBRANCH   5  11
ENDBRANCH   1   8
BRANCH   3  13
ATOM     13  C   UNL     1       0.567  10.214  18.938  0.00  0.00    +0.000 A 
ATOM     14  C   UNL     1      -0.823  10.358  18.877  0.00  0.00    +0.000 A 
ATOM     15  C   UNL     1      -1.414  11.608  18.668  0.00  0.00    +0.000 A 
ATOM     16  C   UNL     1      -0.624  12.748  18.590  0.00  0.00    +0.000 A 
ATOM     17  C   UNL     1       0.759  12.639  18.712  0.00  0.00    +0.000 A 
ATOM     18  C   UNL     1       1.346  11.377  18.877  0.00  0.00    +0.000 A 
ENDBRANCH   3  13
BRANCH   2  19
ATOM     19  S   UNL     1       1.071   9.267  21.912  0.00  0.00    +0.000 S 
ATOM     20  H   UNL     1       2.315   9.686  22.176  0.00  0.00    +0.000 HD
ENDBRANCH   2  19
TORSDOF 4
ENDMDL
MODEL 8
REMARK VINA RESULT:      -6.7      3.389      4.147
REMARK  Name = 
REMARK  4 active torsions:
REMARK  status: ('A' for Active; 'I' for Inactive)
REMARK    1  A    between atoms: O_1  and  C_2
REMARK    2  A    between atoms: C_5  and  N_6
REMARK    3  A    between atoms: C_7  and  S_8
REMARK    4  A    between atoms: N_9  and  C_10
REMARK                            x       y       z     vdW  Elec       q    Type
REMARK                         _______ _______ _______ _____ _____    ______ ____
ROOT
ATOM      1  N   UNL     1       3.404   3.632  17.636  0.00  0.00    +0.000 N 
ATOM      2  C   UNL     1       4.557   4.373  17.515  0.00  0.00    +0.000 C 
ATOM      3  N   UNL     1       4.843   5.432  18.205  0.00  0.00    +0.000 NA
ATOM      4  H   UNL     1       3.324   2.905  16.936  0.00  0.00    +0.000 HD
ENDROOT
BRANCH   1   8
ATOM      5  C   UNL     1       1.417   2.657  21.225  0.00  0.00    +0.000 A 
ATOM      6  C   UNL     1       0.660   3.009  20.115  0.00  0.00    +0.000 A 
ATOM      7  C   UNL     1       1.300   3.319  18.909  0.00  0.00    +0.000 A 
ATOM      8  C   UNL     1       2.695   3.310  18.811  0.00  0.00    +0.000 A 
ATOM      9  C   UNL     1       3.432   2.904  19.936  0.00  0.00    +0.000 A 
ATOM     10  C   UNL     1       2.799   2.589  21.141  0.00  0.00    +0.000 A 
BRANCH   5  11
ATOM     11  O   UNL     1       0.837   2.367  22.422  0.00  0.00    +0.000 OA
ATOM     12  H   UNL     1       1.090   3.054  23.061  0.00  0.00    +0.000 HD
ENDBRANCH   5  11
ENDBRANCH   1   8
BRANCH   3  13
ATOM     13  C   UNL     1       6.005   6.212  18.084  0.00  0.00    +0.000 A 
ATOM     14  C   UNL     1       6.092   7.368  17.300  0.00  0.00    +0.000 A 
ATOM     15  C   UNL     1       7.261   8.135  17.266  0.00  0.00    +0.000 A 
ATOM     16  C   UNL     1       8.339   7.798  18.075  0.00  0.00    +0.000 A 
ATOM     17  C   UNL     1       8.253   6.689  18.913  0.00  0.00    +0.000 A 
ATOM     18  C   UNL     1       7.095   5.900  18.907  0.00  0.00    +0.000 A 
ENDBRANCH   3  13
BRANCH   2  19
ATOM     19  S   UNL     1       5.562   3.680  16.243  0.00  0.00    +0.000 S 
ATOM     20  H   UNL     1       6.455   4.677  16.227  0.00  0.00    +0.000 HD
ENDBRANCH   2  19
TORSDOF 4
ENDMDL
MODEL 9
REMARK VINA RESULT:      -6.7      0.194      1.659
REMARK  Name = 
REMARK  4 active torsions:
REMARK  status: ('A' for Active; 'I' for Inactive)
REMARK    1  A    between atoms: O_1  and  C_2
REMARK    2  A    between atoms: C_5  and  N_6
REMARK    3  A    between atoms: C_7  and  S_8
REMARK    4  A    between atoms: N_9  and  C_10
REMARK                            x       y       z     vdW  Elec       q    Type
REMARK                         _______ _______ _______ _____ _____    ______ ____
ROOT
ATOM      1  N   UNL     1       5.268   4.027  17.969  0.00  0.00    +0.000 N 
ATOM      2  C   UNL     1       5.873   4.308  16.765  0.00  0.00    +0.000 C 
ATOM      3  N   UNL     1       5.641   3.692  15.648  0.00  0.00    +0.000 NA
ATOM      4  H   UNL     1       5.662   4.549  18.741  0.00  0.00    +0.000 HD
ENDROOT
BRANCH   1   8
ATOM      5  C   UNL     1       1.302   2.836  18.763  0.00  0.00    +0.000 A 
ATOM      6  C   UNL     1       1.519   4.008  18.048  0.00  0.00    +0.000 A 
ATOM      7  C   UNL     1       2.828   4.411  17.758  0.00  0.00    +0.000 A 
ATOM      8  C   UNL     1       3.926   3.669  18.206  0.00  0.00    +0.000 A 
ATOM      9  C   UNL     1       3.675   2.465  18.885  0.00  0.00    +0.000 A 
ATOM     10  C   UNL     1       2.371   2.054  19.173  0.00  0.00    +0.000 A 
BRANCH   5  11
ATOM     11  O   UNL     1       0.047   2.418  19.083  0.00  0.00    +0.000 OA
ATOM     12  H   UNL     1      -0.469   3.187  19.375  0.00  0.00    +0.000 HD
ENDBRANCH   5  11
ENDBRANCH   1   8
BRANCH   3  13
ATOM     13  C   UNL     1       6.261   3.952  14.415  0.00  0.00    +0.000 A 
ATOM     14  C   UNL     1       5.866   3.370  13.204  0.00  0.00    +0.000 A 
ATOM     15  C   UNL     1       6.485   3.713  11.998  0.00  0.00    +0.000 A 
ATOM     16  C   UNL     1       7.461   4.701  11.973  0.00  0.00    +0.000 A 
ATOM     17  C   UNL     1       7.826   5.341  13.155  0.00  0.00    +0.000 A 
ATOM     18  C   UNL     1       7.233   4.960  14.365  0.00  0.00    +0.000 A 
ENDBRANCH   3  13
BRANCH   2  19
ATOM     19  S   UNL     1       7.045   5.605  16.992  0.00  0.00    +0.000 S 
ATOM     20  H   UNL     1       7.457   5.631  15.719  0.00  0.00    +0.000 HD
ENDBRANCH   2  19
TORSDOF 4
ENDMDL
