MODEL 1
REMARK VINA RESULT:      -7.1      0.000      0.000
REMARK  Name = 
REMARK  4 active torsions:
REMARK  status: ('A' for Active; 'I' for Inactive)
REMARK    1  A    between atoms: C_2  and  C_3
REMARK    2  A    between atoms: C_3  and  S_10
REMARK    3  A    between atoms: C_4  and  C_5
REMARK    4  A    between atoms: S_10  and  C_11
REMARK                            x       y       z     vdW  Elec       q    Type
REMARK                         _______ _______ _______ _____ _____    ______ ____
ROOT
ATOM      1  S   UNL     1       6.379   5.748  18.145  0.00  0.00    +0.000 S 
ENDROOT
BRANCH   1   2
ATOM      2  C   UNL     1       6.401   5.223  16.464  0.00  0.00    +0.000 A 
ATOM      3  N   UNL     1       7.265   5.671  15.584  0.00  0.00    +0.000 NA
ATOM      4  C   UNL     1       7.066   5.045  14.364  0.00  0.00    +0.000 A 
ATOM      5  C   UNL     1       7.835   5.241  13.198  0.00  0.00    +0.000 A 
ATOM      6  C   UNL     1       7.523   4.540  12.027  0.00  0.00    +0.000 A 
ATOM      7  C   UNL     1       6.457   3.647  12.006  0.00  0.00    +0.000 A 
ATOM      8  C   UNL     1       5.676   3.434  13.146  0.00  0.00    +0.000 A 
ATOM      9  C   UNL     1       6.000   4.142  14.320  0.00  0.00    +0.000 A 
ATOM     10  S   UNL     1       5.251   4.095  15.869  0.00  0.00    +0.000 S 
ENDBRANCH   1   2
BRANCH   1  11
ATOM     11  C   UNL     1       4.712   5.398  18.563  0.00  0.00    +0.000 C 
ATOM     12  C   UNL     1       4.448   4.260  19.238  0.00  0.00    +0.000 C 
BRANCH  12  13
ATOM     13  C   UNL     1       3.127   3.886  19.617  0.00  0.00    +0.000 A 
ATOM     14  C   UNL     1       2.459   4.173  20.793  0.00  0.00    +0.000 A 
ATOM     15  C   UNL     1       1.165   3.579  20.852  0.00  0.00    +0.000 A 
ATOM     16  C   UNL     1       0.866   2.886  19.701  0.00  0.00    +0.000 A 
ATOM     17  S   UNL     1       2.129   2.977  18.552  0.00  0.00    +0.000 S 
ENDBRANCH  12  13
BRANCH  11  19
ATOM     18  N   UNL     1       2.870   7.144  18.017  0.00  0.00    +0.000 NA
ATOM     19  C   UNL     1       3.690   6.366  18.281  0.00  0.00    +0.000 C 
ENDBRANCH  11  19
ENDBRANCH   1  11
TORSDOF 4
ENDMDL
MODEL 2
REMARK VINA RESULT:      -6.6      1.444      1.650
REMARK  Name = 
REMARK  4 active torsions:
REMARK  status: ('A' for Active; 'I' for Inactive)
REMARK    1  A    between atoms: C_2  and  C_3
REMARK    2  A    between atoms: C_3  and  S_10
REMARK    3  A    between atoms: C_4  and  C_5
REMARK    4  A    between atoms: S_10  and  C_11
REMARK                            x       y       z     vdW  Elec       q    Type
REMARK                         _______ _______ _______ _____ _____    ______ ____
ROOT
ATOM      1  S   UNL     1       6.440   5.512  18.368  0.00  0.00    +0.000 S 
ENDROOT
BRANCH   1   2
ATOM      2  C   UNL     1       6.417   5.076  16.663  0.00  0.00    +0.000 A 
ATOM      3  N   UNL     1       7.289   5.530  15.795  0.00  0.00    +0.000 NA
ATOM      4  C   UNL     1       7.047   4.978  14.546  0.00  0.00    +0.000 A 
ATOM      5  C   UNL     1       7.809   5.201  13.381  0.00  0.00    +0.000 A 
ATOM      6  C   UNL     1       7.451   4.577  12.180  0.00  0.00    +0.000 A 
ATOM      7  C   UNL     1       6.344   3.735  12.129  0.00  0.00    +0.000 A 
ATOM      8  C   UNL     1       5.570   3.497  13.268  0.00  0.00    +0.000 A 
ATOM      9  C   UNL     1       5.940   4.128  14.472  0.00  0.00    +0.000 A 
ATOM     10  S   UNL     1       5.209   4.033  16.027  0.00  0.00    +0.000 S 
ENDBRANCH   1   2
BRANCH   1  11
ATOM     11  C   UNL     1       4.991   4.692  18.924  0.00  0.00    +0.000 C 
ATOM     12  C   UNL     1       3.799   5.288  18.715  0.00  0.00    +0.000 C 
BRANCH  12  13
ATOM     13  C   UNL     1       2.570   4.704  19.134  0.00  0.00    +0.000 A 
ATOM     14  C   UNL     1       1.909   4.868  20.337  0.00  0.00    +0.000 A 
ATOM     15  C   UNL     1       0.729   4.074  20.432  0.00  0.00    +0.000 A 
ATOM     16  C   UNL     1       0.502   3.354  19.281  0.00  0.00    +0.000 A 
ATOM     17  S   UNL     1       1.691   3.659  18.090  0.00  0.00    +0.000 S 
ENDBRANCH  12  13
BRANCH  11  19
ATOM     18  N   UNL     1       5.139   2.312  19.951  0.00  0.00    +0.000 NA
ATOM     19  C   UNL     1       5.091   3.373  19.483  0.00  0.00    +0.000 C 
ENDBRANCH  11  19
ENDBRANCH   1  11
TORSDOF 4
ENDMDL
MODEL 3
REMARK VINA RESULT:      -6.5      1.778      6.889
REMARK  Name = 
REMARK  4 active torsions:
REMARK  status: ('A' for Active; 'I' for Inactive)
REMARK    1  A    between atoms: C_2  and  C_3
REMARK    2  A    between atoms: C_3  and  S_10
REMARK    3  A    between atoms: C_4  and  C_5
REMARK    4  A    between atoms: S_10  and  C_11
REMARK                            x       y       z     vdW  Elec       q    Type
REMARK                         _______ _______ _______ _____ _____    ______ ____
ROOT
ATOM      1  S   UNL     1       6.868   5.351  18.271  0.00  0.00    +0.000 S 
ENDROOT
BRANCH   1   2
ATOM      2  C   UNL     1       5.301   4.866  18.911  0.00  0.00    +0.000 A 
ATOM      3  N   UNL     1       5.021   3.633  19.264  0.00  0.00    +0.000 NA
ATOM      4  C   UNL     1       3.733   3.567  19.772  0.00  0.00    +0.000 A 
ATOM      5  C   UNL     1       3.106   2.415  20.290  0.00  0.00    +0.000 A 
ATOM      6  C   UNL     1       1.794   2.489  20.773  0.00  0.00    +0.000 A 
ATOM      7  C   UNL     1       1.102   3.696  20.746  0.00  0.00    +0.000 A 
ATOM      8  C   UNL     1       1.698   4.853  20.236  0.00  0.00    +0.000 A 
ATOM      9  C   UNL     1       3.019   4.769  19.755  0.00  0.00    +0.000 A 
ATOM     10  S   UNL     1       4.021   5.998  19.085  0.00  0.00    +0.000 S 
ENDBRANCH   1   2
BRANCH   1  11
ATOM     11  C   UNL     1       6.529   5.319  16.550  0.00  0.00    +0.000 C 
ATOM     12  C   UNL     1       7.029   4.301  15.819  0.00  0.00    +0.000 C 
BRANCH  12  13
ATOM     13  C   UNL     1       6.814   4.191  14.415  0.00  0.00    +0.000 A 
ATOM     14  C   UNL     1       5.838   3.472  13.752  0.00  0.00    +0.000 A 
ATOM     15  C   UNL     1       5.966   3.544  12.334  0.00  0.00    +0.000 A 
ATOM     16  C   UNL     1       7.016   4.350  11.955  0.00  0.00    +0.000 A 
ATOM     17  S   UNL     1       7.819   5.032  13.302  0.00  0.00    +0.000 S 
ENDBRANCH  12  13
BRANCH  11  19
ATOM     18  N   UNL     1       4.916   7.090  15.549  0.00  0.00    +0.000 NA
ATOM     19  C   UNL     1       5.649   6.300  15.980  0.00  0.00    +0.000 C 
ENDBRANCH  11  19
ENDBRANCH   1  11
TORSDOF 4
ENDMDL
MODEL 4
REMARK VINA RESULT:      -6.4      1.594      6.828
REMARK  Name = 
REMARK  4 active torsions:
REMARK  status: ('A' for Active; 'I' for Inactive)
REMARK    1  A    between atoms: C_2  and  C_3
REMARK    2  A    between atoms: C_3  and  S_10
REMARK    3  A    between atoms: C_4  and  C_5
REMARK    4  A    between atoms: S_10  and  C_11
REMARK                            x       y       z     vdW  Elec       q    Type
REMARK                         _______ _______ _______ _____ _____    ______ ____
ROOT
ATOM      1  S   UNL     1       6.777   5.330  18.306  0.00  0.00    +0.000 S 
ENDROOT
BRANCH   1   2
ATOM      2  C   UNL     1       5.225   4.748  18.898  0.00  0.00    +0.000 A 
ATOM      3  N   UNL     1       4.326   5.532  19.447  0.00  0.00    +0.000 NA
ATOM      4  C   UNL     1       3.194   4.801  19.770  0.00  0.00    +0.000 A 
ATOM      5  C   UNL     1       2.009   5.317  20.334  0.00  0.00    +0.000 A 
ATOM      6  C   UNL     1       0.936   4.463  20.613  0.00  0.00    +0.000 A 
ATOM      7  C   UNL     1       1.030   3.103  20.335  0.00  0.00    +0.000 A 
ATOM      8  C   UNL     1       2.193   2.563  19.778  0.00  0.00    +0.000 A 
ATOM      9  C   UNL     1       3.266   3.432  19.499  0.00  0.00    +0.000 A 
ATOM     10  S   UNL     1       4.807   3.084  18.814  0.00  0.00    +0.000 S 
ENDBRANCH   1   2
BRANCH   1  11
ATOM     11  C   UNL     1       6.478   5.324  16.577  0.00  0.00    +0.000 C 
ATOM     12  C   UNL     1       6.999   4.321  15.841  0.00  0.00    +0.000 C 
BRANCH  12  13
ATOM     13  C   UNL     1       6.816   4.233  14.432  0.00  0.00    +0.000 A 
ATOM     14  C   UNL     1       5.841   3.544  13.736  0.00  0.00    +0.000 A 
ATOM     15  C   UNL     1       6.006   3.630  12.323  0.00  0.00    +0.000 A 
ATOM     16  C   UNL     1       7.084   4.415  11.979  0.00  0.00    +0.000 A 
ATOM     17  S   UNL     1       7.868   5.062  13.354  0.00  0.00    +0.000 S 
ENDBRANCH  12  13
BRANCH  11  19
ATOM     18  N   UNL     1       4.872   7.087  15.548  0.00  0.00    +0.000 NA
ATOM     19  C   UNL     1       5.606   6.310  16.003  0.00  0.00    +0.000 C 
ENDBRANCH  11  19
ENDBRANCH   1  11
TORSDOF 4
ENDMDL
MODEL 5
REMARK VINA RESULT:      -6.3      4.259      7.742
REMARK  Name = 
REMARK  4 active torsions:
REMARK  status: ('A' for Active; 'I' for Inactive)
REMARK    1  A    between atoms: C_2  and  C_3
REMARK    2  A    between atoms: C_3  and  S_10
REMARK    3  A    between atoms: C_4  and  C_5
REMARK    4  A    between atoms: S_10  and  C_11
REMARK                            x       y       z     vdW  Elec       q    Type
REMARK                         _______ _______ _______ _____ _____    ______ ____
ROOT
ATOM      1  S   UNL     1       2.836   7.978  17.730  0.00  0.00    +0.000 S 
ENDROOT
BRANCH   1   2
ATOM      2  C   UNL     1       1.828   8.719  18.969  0.00  0.00    +0.000 A 
ATOM      3  N   UNL     1       1.777   8.285  20.206  0.00  0.00    +0.000 NA
ATOM      4  C   UNL     1       0.937   9.092  20.957  0.00  0.00    +0.000 A 
ATOM      5  C   UNL     1       0.674   8.956  22.336  0.00  0.00    +0.000 A 
ATOM      6  C   UNL     1      -0.200   9.844  22.973  0.00  0.00    +0.000 A 
ATOM      7  C   UNL     1      -0.813  10.865  22.252  0.00  0.00    +0.000 A 
ATOM      8  C   UNL     1      -0.572  11.022  20.884  0.00  0.00    +0.000 A 
ATOM      9  C   UNL     1       0.311  10.125  20.253  0.00  0.00    +0.000 A 
ATOM     10  S   UNL     1       0.816  10.059  18.609  0.00  0.00    +0.000 S 
ENDBRANCH   1   2
BRANCH   1  11
ATOM     11  C   UNL     1       2.912   6.330  18.328  0.00  0.00    +0.000 C 
ATOM     12  C   UNL     1       1.847   5.527  18.125  0.00  0.00    +0.000 C 
BRANCH  12  13
ATOM     13  C   UNL     1       1.812   4.177  18.578  0.00  0.00    +0.000 A 
ATOM     14  C   UNL     1       1.277   3.680  19.751  0.00  0.00    +0.000 A 
ATOM     15  C   UNL     1       1.480   2.278  19.901  0.00  0.00    +0.000 A 
ATOM     16  C   UNL     1       2.133   1.736  18.816  0.00  0.00    +0.000 A 
ATOM     17  S   UNL     1       2.470   2.910  17.620  0.00  0.00    +0.000 S 
ENDBRANCH  12  13
BRANCH  11  19
ATOM     18  N   UNL     1       5.122   5.437  19.357  0.00  0.00    +0.000 NA
ATOM     19  C   UNL     1       4.128   5.843  18.915  0.00  0.00    +0.000 C 
ENDBRANCH  11  19
ENDBRANCH   1  11
TORSDOF 4
ENDMDL
MODEL 6
REMARK VINA RESULT:      -6.3      1.726      6.889
REMARK  Name = 
REMARK  4 active torsions:
REMARK  status: ('A' for Active; 'I' for Inactive)
REMARK    1  A    between atoms: C_2  and  C_3
REMARK    2  A    between atoms: C_3  and  S_10
REMARK    3  A    between atoms: C_4  and  C_5
REMARK    4  A    between atoms: S_10  and  C_11
REMARK                            x       y       z     vdW  Elec       q    Type
REMARK                         _______ _______ _______ _____ _____    ______ ____
ROOT
ATOM      1  S   UNL     1       5.212   6.730  17.328  0.00  0.00    +0.000 S 
ENDROOT
BRANCH   1   2
ATOM      2  C   UNL     1       3.952   5.707  18.010  0.00  0.00    +0.000 A 
ATOM      3  N   UNL     1       3.590   4.564  17.477  0.00  0.00    +0.000 NA
ATOM      4  C   UNL     1       2.613   3.965  18.258  0.00  0.00    +0.000 A 
ATOM      5  C   UNL     1       2.018   2.709  18.020  0.00  0.00    +0.000 A 
ATOM      6  C   UNL     1       1.038   2.221  18.893  0.00  0.00    +0.000 A 
ATOM      7  C   UNL     1       0.646   2.971  19.998  0.00  0.00    +0.000 A 
ATOM      8  C   UNL     1       1.217   4.220  20.257  0.00  0.00    +0.000 A 
ATOM      9  C   UNL     1       2.204   4.700  19.374  0.00  0.00    +0.000 A 
ATOM     10  S   UNL     1       3.093   6.174  19.422  0.00  0.00    +0.000 S 
ENDBRANCH   1   2
BRANCH   1  11
ATOM     11  C   UNL     1       5.898   5.636  16.139  0.00  0.00    +0.000 C 
ATOM     12  C   UNL     1       5.404   5.666  14.884  0.00  0.00    +0.000 C 
BRANCH  12  13
ATOM     13  C   UNL     1       5.891   4.814  13.852  0.00  0.00    +0.000 A 
ATOM     14  C   UNL     1       5.273   3.716  13.284  0.00  0.00    +0.000 A 
ATOM     15  C   UNL     1       6.089   3.062  12.316  0.00  0.00    +0.000 A 
ATOM     16  C   UNL     1       7.295   3.704  12.145  0.00  0.00    +0.000 A 
ATOM     17  S   UNL     1       7.424   5.097  13.127  0.00  0.00    +0.000 S 
ENDBRANCH  12  13
BRANCH  11  19
ATOM     18  N   UNL     1       7.945   4.185  16.804  0.00  0.00    +0.000 NA
ATOM     19  C   UNL     1       7.027   4.822  16.490  0.00  0.00    +0.000 C 
ENDBRANCH  11  19
ENDBRANCH   1  11
TORSDOF 4
ENDMDL
MODEL 7
REMARK VINA RESULT:      -6.1      1.464      7.030
REMARK  Name = 
REMARK  4 active torsions:
REMARK  status: ('A' for Active; 'I' for Inactive)
REMARK    1  A    between atoms: C_2  and  C_3
REMARK    2  A    between atoms: C_3  and  S_10
REMARK    3  A    between atoms: C_4  and  C_5
REMARK    4  A    between atoms: S_10  and  C_11
REMARK                            x       y       z     vdW  Elec       q    Type
REMARK                         _______ _______ _______ _____ _____    ______ ____
ROOT
ATOM      1  S   UNL     1       5.164   6.687  17.524  0.00  0.00    +0.000 S 
ENDROOT
BRANCH   1   2
ATOM      2  C   UNL     1       4.092   5.544  18.326  0.00  0.00    +0.000 A 
ATOM      3  N   UNL     1       3.835   5.582  19.612  0.00  0.00    +0.000 NA
ATOM      4  C   UNL     1       2.926   4.590  19.944  0.00  0.00    +0.000 A 
ATOM      5  C   UNL     1       2.384   4.359  21.225  0.00  0.00    +0.000 A 
ATOM      6  C   UNL     1       1.471   3.316  21.421  0.00  0.00    +0.000 A 
ATOM      7  C   UNL     1       1.092   2.504  20.357  0.00  0.00    +0.000 A 
ATOM      8  C   UNL     1       1.614   2.709  19.077  0.00  0.00    +0.000 A 
ATOM      9  C   UNL     1       2.530   3.763  18.889  0.00  0.00    +0.000 A 
ATOM     10  S   UNL     1       3.333   4.273  17.454  0.00  0.00    +0.000 S 
ENDBRANCH   1   2
BRANCH   1  11
ATOM     11  C   UNL     1       5.883   5.647  16.307  0.00  0.00    +0.000 C 
ATOM     12  C   UNL     1       5.397   5.703  15.050  0.00  0.00    +0.000 C 
BRANCH  12  13
ATOM     13  C   UNL     1       5.910   4.895  13.996  0.00  0.00    +0.000 A 
ATOM     14  C   UNL     1       5.330   3.788  13.404  0.00  0.00    +0.000 A 
ATOM     15  C   UNL     1       6.165   3.189  12.418  0.00  0.00    +0.000 A 
ATOM     16  C   UNL     1       7.345   3.879  12.257  0.00  0.00    +0.000 A 
ATOM     17  S   UNL     1       7.427   5.253  13.271  0.00  0.00    +0.000 S 
ENDBRANCH  12  13
BRANCH  11  19
ATOM     18  N   UNL     1       7.967   4.207  16.877  0.00  0.00    +0.000 NA
ATOM     19  C   UNL     1       7.028   4.848  16.641  0.00  0.00    +0.000 C 
ENDBRANCH  11  19
ENDBRANCH   1  11
TORSDOF 4
ENDMDL
MODEL 8
REMARK VINA RESULT:      -6.1      1.685      6.964
REMARK  Name = 
REMARK  4 active torsions:
REMARK  status: ('A' for Active; 'I' for Inactive)
REMARK    1  A    between atoms: C_2  and  C_3
REMARK    2  A    between atoms: C_3  and  S_10
REMARK    3  A    between atoms: C_4  and  C_5
REMARK    4  A    between atoms: S_10  and  C_11
REMARK                            x       y       z     vdW  Elec       q    Type
REMARK                         _______ _______ _______ _____ _____    ______ ____
ROOT
ATOM      1  S   UNL     1       5.398   6.833  17.662  0.00  0.00    +0.000 S 
ENDROOT
BRANCH   1   2
ATOM      2  C   UNL     1       4.252   5.791  18.499  0.00  0.00    +0.000 A 
ATOM      3  N   UNL     1       4.597   4.663  19.075  0.00  0.00    +0.000 NA
ATOM      4  C   UNL     1       3.495   4.088  19.689  0.00  0.00    +0.000 A 
ATOM      5  C   UNL     1       3.496   2.896  20.442  0.00  0.00    +0.000 A 
ATOM      6  C   UNL     1       2.307   2.425  21.010  0.00  0.00    +0.000 A 
ATOM      7  C   UNL     1       1.119   3.129  20.836  0.00  0.00    +0.000 A 
ATOM      8  C   UNL     1       1.088   4.313  20.093  0.00  0.00    +0.000 A 
ATOM      9  C   UNL     1       2.291   4.779  19.529  0.00  0.00    +0.000 A 
ATOM     10  S   UNL     1       2.583   6.187  18.582  0.00  0.00    +0.000 S 
ENDBRANCH   1   2
BRANCH   1  11
ATOM     11  C   UNL     1       5.995   5.728  16.438  0.00  0.00    +0.000 C 
ATOM     12  C   UNL     1       5.456   5.790  15.203  0.00  0.00    +0.000 C 
BRANCH  12  13
ATOM     13  C   UNL     1       5.871   4.932  14.145  0.00  0.00    +0.000 A 
ATOM     14  C   UNL     1       5.196   3.856  13.600  0.00  0.00    +0.000 A 
ATOM     15  C   UNL     1       5.947   3.186  12.591  0.00  0.00    +0.000 A 
ATOM     16  C   UNL     1       7.162   3.794  12.368  0.00  0.00    +0.000 A 
ATOM     17  S   UNL     1       7.375   5.177  13.351  0.00  0.00    +0.000 S 
ENDBRANCH  12  13
BRANCH  11  19
ATOM     18  N   UNL     1       8.015   4.177  16.946  0.00  0.00    +0.000 NA
ATOM     19  C   UNL     1       7.104   4.867  16.738  0.00  0.00    +0.000 C 
ENDBRANCH  11  19
ENDBRANCH   1  11
TORSDOF 4
ENDMDL
MODEL 9
REMARK VINA RESULT:      -6.1      1.676      6.795
REMARK  Name = 
REMARK  4 active torsions:
REMARK  status: ('A' for Active; 'I' for Inactive)
REMARK    1  A    between atoms: C_2  and  C_3
REMARK    2  A    between atoms: C_3  and  S_10
REMARK    3  A    between atoms: C_4  and  C_5
REMARK    4  A    between atoms: S_10  and  C_11
REMARK                            x       y       z     vdW  Elec       q    Type
REMARK                         _______ _______ _______ _____ _____    ______ ____
ROOT
ATOM      1  S   UNL     1       6.619   5.246  18.349  0.00  0.00    +0.000 S 
ENDROOT
BRANCH   1   2
ATOM      2  C   UNL     1       5.008   4.652  18.738  0.00  0.00    +0.000 A 
ATOM      3  N   UNL     1       4.607   3.433  18.463  0.00  0.00    +0.000 NA
ATOM      4  C   UNL     1       3.314   3.243  18.927  0.00  0.00    +0.000 A 
ATOM      5  C   UNL     1       2.575   2.045  18.849  0.00  0.00    +0.000 A 
ATOM      6  C   UNL     1       1.273   1.991  19.360  0.00  0.00    +0.000 A 
ATOM      7  C   UNL     1       0.701   3.116  19.947  0.00  0.00    +0.000 A 
ATOM      8  C   UNL     1       1.410   4.318  20.035  0.00  0.00    +0.000 A 
ATOM      9  C   UNL     1       2.721   4.360  19.521  0.00  0.00    +0.000 A 
ATOM     10  S   UNL     1       3.842   5.666  19.487  0.00  0.00    +0.000 S 
ENDBRANCH   1   2
BRANCH   1  11
ATOM     11  C   UNL     1       6.492   5.384  16.604  0.00  0.00    +0.000 C 
ATOM     12  C   UNL     1       7.181   4.509  15.842  0.00  0.00    +0.000 C 
BRANCH  12  13
ATOM     13  C   UNL     1       7.146   4.545  14.419  0.00  0.00    +0.000 A 
ATOM     14  C   UNL     1       7.944   5.276  13.560  0.00  0.00    +0.000 A 
ATOM     15  C   UNL     1       7.581   5.110  12.192  0.00  0.00    +0.000 A 
ATOM     16  C   UNL     1       6.538   4.224  12.043  0.00  0.00    +0.000 A 
ATOM     17  S   UNL     1       6.024   3.581  13.542  0.00  0.00    +0.000 S 
ENDBRANCH  12  13
BRANCH  11  19
ATOM     18  N   UNL     1       4.826   7.096  15.586  0.00  0.00    +0.000 NA
ATOM     19  C   UNL     1       5.586   6.339  16.031  0.00  0.00    +0.000 C 
ENDBRANCH  11  19
ENDBRANCH   1  11
TORSDOF 4
ENDMDL
