MODEL 1
REMARK VINA RESULT:      -7.8      0.000      0.000
REMARK  Name = 
REMARK  12 active torsions:
REMARK  status: ('A' for Active; 'I' for Inactive)
REMARK    1  A    between atoms: C_1  and  C_2
REMARK    2  A    between atoms: C_2  and  C_3
REMARK    3  A    between atoms: C_2  and  N_4
REMARK    4  A    between atoms: N_4  and  C_5
REMARK    5  A    between atoms: C_6  and  C_8
REMARK    6  A    between atoms: C_11  and  C_12
REMARK    7  A    between atoms: C_15  and  O_16
REMARK    8  A    between atoms: O_16  and  C_17
REMARK    9  A    between atoms: C_17  and  C_18
REMARK   10  A    between atoms: C_18  and  C_19
REMARK   11  A    between atoms: C_19  and  N_20
REMARK   12  A    between atoms: C_23  and  O_24
REMARK                            x       y       z     vdW  Elec       q    Type
REMARK                         _______ _______ _______ _____ _____    ______ ____
ROOT
ATOM      1  C   UNL     1       1.065   8.965  20.053  0.00  0.00    +0.000 A 
ATOM      2  C   UNL     1       1.376   9.324  18.732  0.00  0.00    +0.000 A 
ATOM      3  C   UNL     1       2.143   8.508  17.912  0.00  0.00    +0.000 A 
ATOM      4  C   UNL     1       2.663   7.312  18.398  0.00  0.00    +0.000 A 
ATOM      5  C   UNL     1       2.410   6.950  19.719  0.00  0.00    +0.000 A 
ATOM      6  C   UNL     1       1.611   7.765  20.537  0.00  0.00    +0.000 A 
ENDROOT
BRANCH   1  10
ATOM      7  C   UNL     1      -1.476  11.466  22.479  0.00  0.00    +0.000 A 
ATOM      8  C   UNL     1      -0.787  10.395  23.033  0.00  0.00    +0.000 A 
ATOM      9  C   UNL     1       0.074   9.638  22.244  0.00  0.00    +0.000 A 
ATOM     10  C   UNL     1       0.175   9.833  20.853  0.00  0.00    +0.000 A 
ATOM     11  C   UNL     1      -0.611  10.847  20.286  0.00  0.00    +0.000 A 
ATOM     12  C   UNL     1      -1.414  11.667  21.093  0.00  0.00    +0.000 A 
BRANCH   7  15
ATOM     13  N   UNL     1      -1.859  13.685  23.606  0.00  0.00    +0.000 N 
ATOM     14  C   UNL     1      -0.698  14.331  22.986  0.00  0.00    +0.000 C 
ATOM     15  C   UNL     1      -2.305  12.385  23.304  0.00  0.00    +0.000 C 
ATOM     16  O   UNL     1      -3.395  11.956  23.685  0.00  0.00    +0.000 OA
BRANCH  13  18
ATOM     17  C   UNL     1      -2.052  15.240  25.578  0.00  0.00    +0.000 C 
ATOM     18  C   UNL     1      -2.757  14.523  24.423  0.00  0.00    +0.000 C 
ATOM     19  C   UNL     1      -3.499  15.523  23.532  0.00  0.00    +0.000 C 
ENDBRANCH  13  18
ENDBRANCH   7  15
ENDBRANCH   1  10
BRANCH   4  20
ATOM     20  O   UNL     1       3.421   6.439  17.657  0.00  0.00    +0.000 OA
BRANCH  20  21
ATOM     21  C   UNL     1       4.464   5.804  18.403  0.00  0.00    +0.000 C 
BRANCH  21  22
ATOM     22  C   UNL     1       4.763   4.434  17.827  0.00  0.00    +0.000 C 
BRANCH  22  23
ATOM     23  C   UNL     1       3.489   3.778  17.281  0.00  0.00    +0.000 C 
BRANCH  23  24
ATOM     24  N   UNL     1       3.070   2.569  18.018  0.00  0.00    +0.000 NA
ATOM     25  C   UNL     1       3.783   2.408  19.303  0.00  0.00    +0.000 C 
ATOM     26  C   UNL     1       2.803   2.730  20.427  0.00  0.00    +0.000 C 
ATOM     27  C   UNL     1       1.603   3.334  19.722  0.00  0.00    +0.000 C 
ATOM     28  C   UNL     1       1.638   2.632  18.369  0.00  0.00    +0.000 C 
BRANCH  27  29
ATOM     29  O   UNL     1       0.400   3.113  20.438  0.00  0.00    +0.000 OA
ATOM     30  H   UNL     1       0.631   2.922  21.366  0.00  0.00    +0.000 HD
ENDBRANCH  27  29
ENDBRANCH  23  24
ENDBRANCH  22  23
ENDBRANCH  21  22
ENDBRANCH  20  21
ENDBRANCH   4  20
TORSDOF 9
ENDMDL
MODEL 2
REMARK VINA RESULT:      -7.8      1.668      3.137
REMARK  Name = 
REMARK  12 active torsions:
REMARK  status: ('A' for Active; 'I' for Inactive)
REMARK    1  A    between atoms: C_1  and  C_2
REMARK    2  A    between atoms: C_2  and  C_3
REMARK    3  A    between atoms: C_2  and  N_4
REMARK    4  A    between atoms: N_4  and  C_5
REMARK    5  A    between atoms: C_6  and  C_8
REMARK    6  A    between atoms: C_11  and  C_12
REMARK    7  A    between atoms: C_15  and  O_16
REMARK    8  A    between atoms: O_16  and  C_17
REMARK    9  A    between atoms: C_17  and  C_18
REMARK   10  A    between atoms: C_18  and  C_19
REMARK   11  A    between atoms: C_19  and  N_20
REMARK   12  A    between atoms: C_23  and  O_24
REMARK                            x       y       z     vdW  Elec       q    Type
REMARK                         _______ _______ _______ _____ _____    ______ ____
ROOT
ATOM      1  C   UNL     1       1.036   9.046  20.087  0.00  0.00    +0.000 A 
ATOM      2  C   UNL     1       1.337   9.381  18.757  0.00  0.00    +0.000 A 
ATOM      3  C   UNL     1       2.084   8.542  17.942  0.00  0.00    +0.000 A 
ATOM      4  C   UNL     1       2.592   7.346  18.438  0.00  0.00    +0.000 A 
ATOM      5  C   UNL     1       2.348   7.006  19.768  0.00  0.00    +0.000 A 
ATOM      6  C   UNL     1       1.570   7.844  20.582  0.00  0.00    +0.000 A 
ENDROOT
BRANCH   1  10
ATOM      7  C   UNL     1      -1.552  11.675  22.319  0.00  0.00    +0.000 A 
ATOM      8  C   UNL     1      -1.382  11.832  20.949  0.00  0.00    +0.000 A 
ATOM      9  C   UNL     1      -0.590  10.936  20.239  0.00  0.00    +0.000 A 
ATOM     10  C   UNL     1       0.168   9.938  20.884  0.00  0.00    +0.000 A 
ATOM     11  C   UNL     1       0.075   9.862  22.281  0.00  0.00    +0.000 A 
ATOM     12  C   UNL     1      -0.790  10.709  22.989  0.00  0.00    +0.000 A 
BRANCH   7  15
ATOM     13  N   UNL     1      -2.090  13.786  23.581  0.00  0.00    +0.000 N 
ATOM     14  C   UNL     1      -0.853  14.471  23.193  0.00  0.00    +0.000 C 
ATOM     15  C   UNL     1      -2.490  12.525  23.101  0.00  0.00    +0.000 C 
ATOM     16  O   UNL     1      -3.623  12.078  23.283  0.00  0.00    +0.000 OA
BRANCH  13  18
ATOM     17  C   UNL     1      -2.551  15.187  25.624  0.00  0.00    +0.000 C 
ATOM     18  C   UNL     1      -3.095  14.557  24.338  0.00  0.00    +0.000 C 
ATOM     19  C   UNL     1      -3.730  15.620  23.437  0.00  0.00    +0.000 C 
ENDBRANCH  13  18
ENDBRANCH   7  15
ENDBRANCH   1  10
BRANCH   4  20
ATOM     20  O   UNL     1       3.329   6.452  17.702  0.00  0.00    +0.000 OA
BRANCH  20  21
ATOM     21  C   UNL     1       2.932   5.089  17.887  0.00  0.00    +0.000 C 
BRANCH  21  22
ATOM     22  C   UNL     1       4.145   4.180  17.857  0.00  0.00    +0.000 C 
BRANCH  22  23
ATOM     23  C   UNL     1       5.180   4.611  18.905  0.00  0.00    +0.000 C 
BRANCH  23  24
ATOM     24  N   UNL     1       6.572   4.609  18.414  0.00  0.00    +0.000 NA
ATOM     25  C   UNL     1       6.665   4.340  16.964  0.00  0.00    +0.000 C 
ATOM     26  C   UNL     1       7.031   5.646  16.267  0.00  0.00    +0.000 C 
ATOM     27  C   UNL     1       6.876   6.705  17.341  0.00  0.00    +0.000 C 
ATOM     28  C   UNL     1       7.205   5.927  18.610  0.00  0.00    +0.000 C 
BRANCH  27  29
ATOM     29  O   UNL     1       7.734   7.813  17.124  0.00  0.00    +0.000 OA
ATOM     30  H   UNL     1       7.242   8.480  16.610  0.00  0.00    +0.000 HD
ENDBRANCH  27  29
ENDBRANCH  23  24
ENDBRANCH  22  23
ENDBRANCH  21  22
ENDBRANCH  20  21
ENDBRANCH   4  20
TORSDOF 9
ENDMDL
MODEL 3
REMARK VINA RESULT:      -7.8      0.786      1.277
REMARK  Name = 
REMARK  12 active torsions:
REMARK  status: ('A' for Active; 'I' for Inactive)
REMARK    1  A    between atoms: C_1  and  C_2
REMARK    2  A    between atoms: C_2  and  C_3
REMARK    3  A    between atoms: C_2  and  N_4
REMARK    4  A    between atoms: N_4  and  C_5
REMARK    5  A    between atoms: C_6  and  C_8
REMARK    6  A    between atoms: C_11  and  C_12
REMARK    7  A    between atoms: C_15  and  O_16
REMARK    8  A    between atoms: O_16  and  C_17
REMARK    9  A    between atoms: C_17  and  C_18
REMARK   10  A    between atoms: C_18  and  C_19
REMARK   11  A    between atoms: C_19  and  N_20
REMARK   12  A    between atoms: C_23  and  O_24
REMARK                            x       y       z     vdW  Elec       q    Type
REMARK                         _______ _______ _______ _____ _____    ______ ____
ROOT
ATOM      1  C   UNL     1       1.014   9.167  20.037  0.00  0.00    +0.000 A 
ATOM      2  C   UNL     1       1.284   9.549  18.713  0.00  0.00    +0.000 A 
ATOM      3  C   UNL     1       2.037   8.753  17.861  0.00  0.00    +0.000 A 
ATOM      4  C   UNL     1       2.582   7.556  18.313  0.00  0.00    +0.000 A 
ATOM      5  C   UNL     1       2.369   7.171  19.636  0.00  0.00    +0.000 A 
ATOM      6  C   UNL     1       1.585   7.965  20.487  0.00  0.00    +0.000 A 
ENDROOT
BRANCH   1  10
ATOM      7  C   UNL     1      -1.598  11.666  22.388  0.00  0.00    +0.000 A 
ATOM      8  C   UNL     1      -1.433  11.885  21.026  0.00  0.00    +0.000 A 
ATOM      9  C   UNL     1      -0.633  11.030  20.276  0.00  0.00    +0.000 A 
ATOM     10  C   UNL     1       0.138  10.013  20.874  0.00  0.00    +0.000 A 
ATOM     11  C   UNL     1       0.049   9.875  22.267  0.00  0.00    +0.000 A 
ATOM     12  C   UNL     1      -0.823  10.680  23.013  0.00  0.00    +0.000 A 
BRANCH   7  15
ATOM     13  N   UNL     1      -2.171  13.732  23.708  0.00  0.00    +0.000 N 
ATOM     14  C   UNL     1      -0.964  14.463  23.309  0.00  0.00    +0.000 C 
ATOM     15  C   UNL     1      -2.543  12.470  23.209  0.00  0.00    +0.000 C 
ATOM     16  O   UNL     1      -3.658  11.985  23.405  0.00  0.00    +0.000 OA
BRANCH  13  18
ATOM     17  C   UNL     1      -2.617  15.118  25.764  0.00  0.00    +0.000 C 
ATOM     18  C   UNL     1      -3.181  14.456  24.503  0.00  0.00    +0.000 C 
ATOM     19  C   UNL     1      -3.904  15.482  23.626  0.00  0.00    +0.000 C 
ENDBRANCH  13  18
ENDBRANCH   7  15
ENDBRANCH   1  10
BRANCH   4  20
ATOM     20  O   UNL     1       3.328   6.702  17.539  0.00  0.00    +0.000 OA
BRANCH  20  21
ATOM     21  C   UNL     1       3.675   5.480  18.198  0.00  0.00    +0.000 C 
BRANCH  21  22
ATOM     22  C   UNL     1       3.150   4.293  17.415  0.00  0.00    +0.000 C 
BRANCH  22  23
ATOM     23  C   UNL     1       1.759   3.877  17.913  0.00  0.00    +0.000 C 
BRANCH  23  24
ATOM     24  N   UNL     1       1.753   2.644  18.724  0.00  0.00    +0.000 NA
ATOM     25  C   UNL     1       3.110   2.110  18.961  0.00  0.00    +0.000 C 
ATOM     26  C   UNL     1       3.472   2.378  20.418  0.00  0.00    +0.000 C 
ATOM     27  C   UNL     1       2.385   3.314  20.912  0.00  0.00    +0.000 C 
ATOM     28  C   UNL     1       1.190   2.895  20.065  0.00  0.00    +0.000 C 
BRANCH  27  29
ATOM     29  O   UNL     1       2.161   3.178  22.306  0.00  0.00    +0.000 OA
ATOM     30  H   UNL     1       2.984   2.852  22.715  0.00  0.00    +0.000 HD
ENDBRANCH  27  29
ENDBRANCH  23  24
ENDBRANCH  22  23
ENDBRANCH  21  22
ENDBRANCH  20  21
ENDBRANCH   4  20
TORSDOF 9
ENDMDL
MODEL 4
REMARK VINA RESULT:      -7.7      1.865      3.191
REMARK  Name = 
REMARK  12 active torsions:
REMARK  status: ('A' for Active; 'I' for Inactive)
REMARK    1  A    between atoms: C_1  and  C_2
REMARK    2  A    between atoms: C_2  and  C_3
REMARK    3  A    between atoms: C_2  and  N_4
REMARK    4  A    between atoms: N_4  and  C_5
REMARK    5  A    between atoms: C_6  and  C_8
REMARK    6  A    between atoms: C_11  and  C_12
REMARK    7  A    between atoms: C_15  and  O_16
REMARK    8  A    between atoms: O_16  and  C_17
REMARK    9  A    between atoms: C_17  and  C_18
REMARK   10  A    between atoms: C_18  and  C_19
REMARK   11  A    between atoms: C_19  and  N_20
REMARK   12  A    between atoms: C_23  and  O_24
REMARK                            x       y       z     vdW  Elec       q    Type
REMARK                         _______ _______ _______ _____ _____    ______ ____
ROOT
ATOM      1  C   UNL     1       0.890   9.104  20.089  0.00  0.00    +0.000 A 
ATOM      2  C   UNL     1       1.426   7.920  20.619  0.00  0.00    +0.000 A 
ATOM      3  C   UNL     1       2.284   7.112  19.885  0.00  0.00    +0.000 A 
ATOM      4  C   UNL     1       2.611   7.440  18.573  0.00  0.00    +0.000 A 
ATOM      5  C   UNL     1       2.060   8.586  18.004  0.00  0.00    +0.000 A 
ATOM      6  C   UNL     1       1.213   9.415  18.757  0.00  0.00    +0.000 A 
ENDROOT
BRANCH   1  10
ATOM      7  C   UNL     1      -1.622  11.657  22.490  0.00  0.00    +0.000 A 
ATOM      8  C   UNL     1      -1.466  11.883  21.129  0.00  0.00    +0.000 A 
ATOM      9  C   UNL     1      -0.700  11.011  20.362  0.00  0.00    +0.000 A 
ATOM     10  C   UNL     1       0.048   9.968  20.943  0.00  0.00    +0.000 A 
ATOM     11  C   UNL     1      -0.029   9.820  22.336  0.00  0.00    +0.000 A 
ATOM     12  C   UNL     1      -0.870  10.643  23.098  0.00  0.00    +0.000 A 
BRANCH   7  15
ATOM     13  N   UNL     1      -2.133  13.741  23.807  0.00  0.00    +0.000 N 
ATOM     14  C   UNL     1      -0.927  14.452  23.370  0.00  0.00    +0.000 C 
ATOM     15  C   UNL     1      -2.534  12.480  23.329  0.00  0.00    +0.000 C 
ATOM     16  O   UNL     1      -3.650  12.012  23.558  0.00  0.00    +0.000 OA
BRANCH  13  18
ATOM     17  C   UNL     1      -2.480  15.312  25.746  0.00  0.00    +0.000 C 
ATOM     18  C   UNL     1      -3.112  14.485  24.622  0.00  0.00    +0.000 C 
ATOM     19  C   UNL     1      -3.984  15.366  23.722  0.00  0.00    +0.000 C 
ENDBRANCH  13  18
ENDBRANCH   7  15
ENDBRANCH   1  10
BRANCH   4  20
ATOM     20  O   UNL     1       3.458   6.708  17.779  0.00  0.00    +0.000 OA
BRANCH  20  21
ATOM     21  C   UNL     1       3.340   5.293  17.962  0.00  0.00    +0.000 C 
BRANCH  21  22
ATOM     22  C   UNL     1       4.459   4.575  17.233  0.00  0.00    +0.000 C 
BRANCH  22  23
ATOM     23  C   UNL     1       5.362   5.571  16.493  0.00  0.00    +0.000 C 
BRANCH  23  24
ATOM     24  N   UNL     1       6.803   5.385  16.752  0.00  0.00    +0.000 NA
ATOM     25  C   UNL     1       7.531   6.666  16.871  0.00  0.00    +0.000 C 
ATOM     26  C   UNL     1       7.883   6.871  18.341  0.00  0.00    +0.000 C 
ATOM     27  C   UNL     1       7.095   5.800  19.072  0.00  0.00    +0.000 C 
ATOM     28  C   UNL     1       7.025   4.687  18.033  0.00  0.00    +0.000 C 
BRANCH  27  29
ATOM     29  O   UNL     1       7.729   5.404  20.277  0.00  0.00    +0.000 OA
ATOM     30  H   UNL     1       7.621   4.440  20.374  0.00  0.00    +0.000 HD
ENDBRANCH  27  29
ENDBRANCH  23  24
ENDBRANCH  22  23
ENDBRANCH  21  22
ENDBRANCH  20  21
ENDBRANCH   4  20
TORSDOF 9
ENDMDL
MODEL 5
REMARK VINA RESULT:      -7.6      0.681      1.186
REMARK  Name = 
REMARK  12 active torsions:
REMARK  status: ('A' for Active; 'I' for Inactive)
REMARK    1  A    between atoms: C_1  and  C_2
REMARK    2  A    between atoms: C_2  and  C_3
REMARK    3  A    between atoms: C_2  and  N_4
REMARK    4  A    between atoms: N_4  and  C_5
REMARK    5  A    between atoms: C_6  and  C_8
REMARK    6  A    between atoms: C_11  and  C_12
REMARK    7  A    between atoms: C_15  and  O_16
REMARK    8  A    between atoms: O_16  and  C_17
REMARK    9  A    between atoms: C_17  and  C_18
REMARK   10  A    between atoms: C_18  and  C_19
REMARK   11  A    between atoms: C_19  and  N_20
REMARK   12  A    between atoms: C_23  and  O_24
REMARK                            x       y       z     vdW  Elec       q    Type
REMARK                         _______ _______ _______ _____ _____    ______ ____
ROOT
ATOM      1  C   UNL     1       1.052   8.929  20.100  0.00  0.00    +0.000 A 
ATOM      2  C   UNL     1       1.377   9.228  18.768  0.00  0.00    +0.000 A 
ATOM      3  C   UNL     1       2.117   8.356  17.981  0.00  0.00    +0.000 A 
ATOM      4  C   UNL     1       2.595   7.162  18.511  0.00  0.00    +0.000 A 
ATOM      5  C   UNL     1       2.327   6.857  19.844  0.00  0.00    +0.000 A 
ATOM      6  C   UNL     1       1.556   7.729  20.629  0.00  0.00    +0.000 A 
ENDROOT
BRANCH   1  10
ATOM      7  C   UNL     1      -1.514  11.656  22.239  0.00  0.00    +0.000 A 
ATOM      8  C   UNL     1      -1.358  11.751  20.862  0.00  0.00    +0.000 A 
ATOM      9  C   UNL     1      -0.574  10.824  20.185  0.00  0.00    +0.000 A 
ATOM     10  C   UNL     1       0.192   9.856  20.866  0.00  0.00    +0.000 A 
ATOM     11  C   UNL     1       0.114   9.843  22.266  0.00  0.00    +0.000 A 
ATOM     12  C   UNL     1      -0.744  10.721  22.944  0.00  0.00    +0.000 A 
BRANCH   7  15
ATOM     13  N   UNL     1      -2.035  13.815  23.425  0.00  0.00    +0.000 N 
ATOM     14  C   UNL     1      -0.795  14.478  23.007  0.00  0.00    +0.000 C 
ATOM     15  C   UNL     1      -2.443  12.540  22.993  0.00  0.00    +0.000 C 
ATOM     16  O   UNL     1      -3.579  12.107  23.195  0.00  0.00    +0.000 OA
BRANCH  13  18
ATOM     17  C   UNL     1      -2.703  14.814  25.638  0.00  0.00    +0.000 C 
ATOM     18  C   UNL     1      -3.032  14.620  24.155  0.00  0.00    +0.000 C 
ATOM     19  C   UNL     1      -3.231  15.970  23.459  0.00  0.00    +0.000 C 
ENDBRANCH  13  18
ENDBRANCH   7  15
ENDBRANCH   1  10
BRANCH   4  20
ATOM     20  O   UNL     1       3.322   6.237  17.804  0.00  0.00    +0.000 OA
BRANCH  20  21
ATOM     21  C   UNL     1       4.711   6.211  18.149  0.00  0.00    +0.000 C 
BRANCH  21  22
ATOM     22  C   UNL     1       5.084   4.861  18.728  0.00  0.00    +0.000 C 
BRANCH  22  23
ATOM     23  C   UNL     1       4.370   3.727  17.981  0.00  0.00    +0.000 C 
BRANCH  23  24
ATOM     24  N   UNL     1       3.845   2.663  18.859  0.00  0.00    +0.000 NA
ATOM     25  C   UNL     1       3.272   3.190  20.114  0.00  0.00    +0.000 C 
ATOM     26  C   UNL     1       1.754   3.068  20.026  0.00  0.00    +0.000 C 
ATOM     27  C   UNL     1       1.487   2.705  18.577  0.00  0.00    +0.000 C 
ATOM     28  C   UNL     1       2.745   1.930  18.203  0.00  0.00    +0.000 C 
BRANCH  27  29
ATOM     29  O   UNL     1       0.297   1.950  18.429  0.00  0.00    +0.000 OA
ATOM     30  H   UNL     1       0.535   1.004  18.438  0.00  0.00    +0.000 HD
ENDBRANCH  27  29
ENDBRANCH  23  24
ENDBRANCH  22  23
ENDBRANCH  21  22
ENDBRANCH  20  21
ENDBRANCH   4  20
TORSDOF 9
ENDMDL
MODEL 6
REMARK VINA RESULT:      -7.5      0.782      1.241
REMARK  Name = 
REMARK  12 active torsions:
REMARK  status: ('A' for Active; 'I' for Inactive)
REMARK    1  A    between atoms: C_1  and  C_2
REMARK    2  A    between atoms: C_2  and  C_3
REMARK    3  A    between atoms: C_2  and  N_4
REMARK    4  A    between atoms: N_4  and  C_5
REMARK    5  A    between atoms: C_6  and  C_8
REMARK    6  A    between atoms: C_11  and  C_12
REMARK    7  A    between atoms: C_15  and  O_16
REMARK    8  A    between atoms: O_16  and  C_17
REMARK    9  A    between atoms: C_17  and  C_18
REMARK   10  A    between atoms: C_18  and  C_19
REMARK   11  A    between atoms: C_19  and  N_20
REMARK   12  A    between atoms: C_23  and  O_24
REMARK                            x       y       z     vdW  Elec       q    Type
REMARK                         _______ _______ _______ _____ _____    ______ ____
ROOT
ATOM      1  C   UNL     1       0.729   9.255  19.932  0.00  0.00    +0.000 A 
ATOM      2  C   UNL     1       1.334   8.119  20.493  0.00  0.00    +0.000 A 
ATOM      3  C   UNL     1       2.248   7.352  19.785  0.00  0.00    +0.000 A 
ATOM      4  C   UNL     1       2.566   7.671  18.469  0.00  0.00    +0.000 A 
ATOM      5  C   UNL     1       1.948   8.766  17.869  0.00  0.00    +0.000 A 
ATOM      6  C   UNL     1       1.044   9.556  18.597  0.00  0.00    +0.000 A 
ENDROOT
BRANCH   1  10
ATOM      7  C   UNL     1      -1.847  11.639  22.437  0.00  0.00    +0.000 A 
ATOM      8  C   UNL     1      -1.096  10.599  22.969  0.00  0.00    +0.000 A 
ATOM      9  C   UNL     1      -0.226   9.882  22.154  0.00  0.00    +0.000 A 
ATOM     10  C   UNL     1      -0.174  10.082  20.760  0.00  0.00    +0.000 A 
ATOM     11  C   UNL     1      -1.021  11.060  20.219  0.00  0.00    +0.000 A 
ATOM     12  C   UNL     1      -1.835  11.843  21.051  0.00  0.00    +0.000 A 
BRANCH   7  15
ATOM     13  N   UNL     1      -2.195  13.743  23.776  0.00  0.00    +0.000 N 
ATOM     14  C   UNL     1      -0.943  14.368  23.337  0.00  0.00    +0.000 C 
ATOM     15  C   UNL     1      -2.691  12.520  23.289  0.00  0.00    +0.000 C 
ATOM     16  O   UNL     1      -3.837  12.132  23.522  0.00  0.00    +0.000 OA
BRANCH  13  18
ATOM     17  C   UNL     1      -2.466  15.109  25.875  0.00  0.00    +0.000 C 
ATOM     18  C   UNL     1      -3.112  14.549  24.604  0.00  0.00    +0.000 C 
ATOM     19  C   UNL     1      -3.728  15.672  23.765  0.00  0.00    +0.000 C 
ENDBRANCH  13  18
ENDBRANCH   7  15
ENDBRANCH   1  10
BRANCH   4  20
ATOM     20  O   UNL     1       3.466   6.977  17.699  0.00  0.00    +0.000 OA
BRANCH  20  21
ATOM     21  C   UNL     1       3.916   5.757  18.297  0.00  0.00    +0.000 C 
BRANCH  21  22
ATOM     22  C   UNL     1       3.487   4.570  17.457  0.00  0.00    +0.000 C 
BRANCH  22  23
ATOM     23  C   UNL     1       2.082   4.097  17.851  0.00  0.00    +0.000 C 
BRANCH  23  24
ATOM     24  N   UNL     1       2.056   2.793  18.543  0.00  0.00    +0.000 NA
ATOM     25  C   UNL     1       3.409   2.265  18.816  0.00  0.00    +0.000 C 
ATOM     26  C   UNL     1       3.673   2.402  20.312  0.00  0.00    +0.000 C 
ATOM     27  C   UNL     1       2.534   3.266  20.820  0.00  0.00    +0.000 C 
ATOM     28  C   UNL     1       1.405   2.906  19.862  0.00  0.00    +0.000 C 
BRANCH  27  29
ATOM     29  O   UNL     1       2.227   2.996  22.178  0.00  0.00    +0.000 OA
ATOM     30  H   UNL     1       2.986   3.276  22.722  0.00  0.00    +0.000 HD
ENDBRANCH  27  29
ENDBRANCH  23  24
ENDBRANCH  22  23
ENDBRANCH  21  22
ENDBRANCH  20  21
ENDBRANCH   4  20
TORSDOF 9
ENDMDL
MODEL 7
REMARK VINA RESULT:      -7.4      1.080      1.588
REMARK  Name = 
REMARK  12 active torsions:
REMARK  status: ('A' for Active; 'I' for Inactive)
REMARK    1  A    between atoms: C_1  and  C_2
REMARK    2  A    between atoms: C_2  and  C_3
REMARK    3  A    between atoms: C_2  and  N_4
REMARK    4  A    between atoms: N_4  and  C_5
REMARK    5  A    between atoms: C_6  and  C_8
REMARK    6  A    between atoms: C_11  and  C_12
REMARK    7  A    between atoms: C_15  and  O_16
REMARK    8  A    between atoms: O_16  and  C_17
REMARK    9  A    between atoms: C_17  and  C_18
REMARK   10  A    between atoms: C_18  and  C_19
REMARK   11  A    between atoms: C_19  and  N_20
REMARK   12  A    between atoms: C_23  and  O_24
REMARK                            x       y       z     vdW  Elec       q    Type
REMARK                         _______ _______ _______ _____ _____    ______ ____
ROOT
ATOM      1  C   UNL     1       1.203   9.013  19.903  0.00  0.00    +0.000 A 
ATOM      2  C   UNL     1       1.545   7.830  20.577  0.00  0.00    +0.000 A 
ATOM      3  C   UNL     1       2.263   6.816  19.958  0.00  0.00    +0.000 A 
ATOM      4  C   UNL     1       2.638   6.932  18.623  0.00  0.00    +0.000 A 
ATOM      5  C   UNL     1       2.275   8.076  17.914  0.00  0.00    +0.000 A 
ATOM      6  C   UNL     1       1.572   9.111  18.551  0.00  0.00    +0.000 A 
ENDROOT
BRANCH   1  10
ATOM      7  C   UNL     1      -0.806  12.108  22.136  0.00  0.00    +0.000 A 
ATOM      8  C   UNL     1      -0.708  10.815  22.634  0.00  0.00    +0.000 A 
ATOM      9  C   UNL     1      -0.003   9.847  21.925  0.00  0.00    +0.000 A 
ATOM     10  C   UNL     1       0.510  10.093  20.636  0.00  0.00    +0.000 A 
ATOM     11  C   UNL     1       0.306  11.372  20.096  0.00  0.00    +0.000 A 
ATOM     12  C   UNL     1      -0.328  12.373  20.846  0.00  0.00    +0.000 A 
BRANCH   7  15
ATOM     13  N   UNL     1      -2.776  13.572  22.696  0.00  0.00    +0.000 N 
ATOM     14  C   UNL     1      -3.726  12.801  21.889  0.00  0.00    +0.000 C 
ATOM     15  C   UNL     1      -1.434  13.209  22.914  0.00  0.00    +0.000 C 
ATOM     16  O   UNL     1      -0.729  13.762  23.760  0.00  0.00    +0.000 OA
BRANCH  13  18
ATOM     17  C   UNL     1      -3.237  16.043  22.852  0.00  0.00    +0.000 C 
ATOM     18  C   UNL     1      -3.310  14.669  23.525  0.00  0.00    +0.000 C 
ATOM     19  C   UNL     1      -4.743  14.350  23.960  0.00  0.00    +0.000 C 
ENDBRANCH  13  18
ENDBRANCH   7  15
ENDBRANCH   1  10
BRANCH   4  20
ATOM     20  O   UNL     1       3.358   5.987  17.935  0.00  0.00    +0.000 OA
BRANCH  20  21
ATOM     21  C   UNL     1       4.719   5.876  18.364  0.00  0.00    +0.000 C 
BRANCH  21  22
ATOM     22  C   UNL     1       5.025   4.449  18.776  0.00  0.00    +0.000 C 
BRANCH  22  23
ATOM     23  C   UNL     1       4.160   3.454  17.992  0.00  0.00    +0.000 C 
BRANCH  23  24
ATOM     24  N   UNL     1       3.606   2.359  18.812  0.00  0.00    +0.000 NA
ATOM     25  C   UNL     1       3.895   2.522  20.252  0.00  0.00    +0.000 C 
ATOM     26  C   UNL     1       2.600   2.925  20.949  0.00  0.00    +0.000 C 
ATOM     27  C   UNL     1       1.643   3.242  19.815  0.00  0.00    +0.000 C 
ATOM     28  C   UNL     1       2.134   2.314  18.711  0.00  0.00    +0.000 C 
BRANCH  27  29
ATOM     29  O   UNL     1       0.292   3.014  20.181  0.00  0.00    +0.000 OA
ATOM     30  H   UNL     1      -0.058   3.836  20.572  0.00  0.00    +0.000 HD
ENDBRANCH  27  29
ENDBRANCH  23  24
ENDBRANCH  22  23
ENDBRANCH  21  22
ENDBRANCH  20  21
ENDBRANCH   4  20
TORSDOF 9
ENDMDL
MODEL 8
REMARK VINA RESULT:      -7.4      2.452     11.063
REMARK  Name = 
REMARK  12 active torsions:
REMARK  status: ('A' for Active; 'I' for Inactive)
REMARK    1  A    between atoms: C_1  and  C_2
REMARK    2  A    between atoms: C_2  and  C_3
REMARK    3  A    between atoms: C_2  and  N_4
REMARK    4  A    between atoms: N_4  and  C_5
REMARK    5  A    between atoms: C_6  and  C_8
REMARK    6  A    between atoms: C_11  and  C_12
REMARK    7  A    between atoms: C_15  and  O_16
REMARK    8  A    between atoms: O_16  and  C_17
REMARK    9  A    between atoms: C_17  and  C_18
REMARK   10  A    between atoms: C_18  and  C_19
REMARK   11  A    between atoms: C_19  and  N_20
REMARK   12  A    between atoms: C_23  and  O_24
REMARK                            x       y       z     vdW  Elec       q    Type
REMARK                         _______ _______ _______ _____ _____    ______ ____
ROOT
ATOM      1  C   UNL     1       0.845   9.051  20.812  0.00  0.00    +0.000 A 
ATOM      2  C   UNL     1       0.587  10.357  20.368  0.00  0.00    +0.000 A 
ATOM      3  C   UNL     1      -0.071  11.284  21.165  0.00  0.00    +0.000 A 
ATOM      4  C   UNL     1      -0.532  10.927  22.427  0.00  0.00    +0.000 A 
ATOM      5  C   UNL     1      -0.331   9.624  22.879  0.00  0.00    +0.000 A 
ATOM      6  C   UNL     1       0.358   8.696  22.082  0.00  0.00    +0.000 A 
ENDROOT
BRANCH   1  10
ATOM      7  C   UNL     1       3.085   6.283  18.379  0.00  0.00    +0.000 A 
ATOM      8  C   UNL     1       2.793   5.995  19.706  0.00  0.00    +0.000 A 
ATOM      9  C   UNL     1       2.017   6.874  20.455  0.00  0.00    +0.000 A 
ATOM     10  C   UNL     1       1.622   8.131  19.955  0.00  0.00    +0.000 A 
ATOM     11  C   UNL     1       2.020   8.458  18.650  0.00  0.00    +0.000 A 
ATOM     12  C   UNL     1       2.727   7.536  17.865  0.00  0.00    +0.000 A 
BRANCH   7  15
ATOM     13  N   UNL     1       5.081   5.606  17.003  0.00  0.00    +0.000 N 
ATOM     14  C   UNL     1       5.917   6.723  17.456  0.00  0.00    +0.000 C 
ATOM     15  C   UNL     1       3.797   5.318  17.499  0.00  0.00    +0.000 C 
ATOM     16  O   UNL     1       3.215   4.261  17.251  0.00  0.00    +0.000 OA
BRANCH  13  18
ATOM     17  C   UNL     1       5.547   4.846  14.647  0.00  0.00    +0.000 C 
ATOM     18  C   UNL     1       5.709   4.581  16.147  0.00  0.00    +0.000 C 
ATOM     19  C   UNL     1       7.186   4.419  16.516  0.00  0.00    +0.000 C 
ENDBRANCH  13  18
ENDBRANCH   7  15
ENDBRANCH   1  10
BRANCH   4  20
ATOM     20  O   UNL     1      -1.181  11.780  23.285  0.00  0.00    +0.000 OA
BRANCH  20  21
ATOM     21  C   UNL     1      -2.526  12.075  22.897  0.00  0.00    +0.000 C 
BRANCH  21  22
ATOM     22  C   UNL     1      -3.144  13.072  23.857  0.00  0.00    +0.000 C 
BRANCH  22  23
ATOM     23  C   UNL     1      -4.499  12.571  24.373  0.00  0.00    +0.000 C 
BRANCH  23  24
ATOM     24  N   UNL     1      -5.604  12.718  23.405  0.00  0.00    +0.000 NA
ATOM     25  C   UNL     1      -6.927  12.440  24.002  0.00  0.00    +0.000 C 
ATOM     26  C   UNL     1      -7.659  13.769  24.160  0.00  0.00    +0.000 C 
ATOM     27  C   UNL     1      -6.600  14.819  23.883  0.00  0.00    +0.000 C 
ATOM     28  C   UNL     1      -5.685  14.101  22.899  0.00  0.00    +0.000 C 
BRANCH  27  29
ATOM     29  O   UNL     1      -7.161  16.013  23.361  0.00  0.00    +0.000 OA
ATOM     30  H   UNL     1      -7.150  16.686  24.066  0.00  0.00    +0.000 HD
ENDBRANCH  27  29
ENDBRANCH  23  24
ENDBRANCH  22  23
ENDBRANCH  21  22
ENDBRANCH  20  21
ENDBRANCH   4  20
TORSDOF 9
ENDMDL
MODEL 9
REMARK VINA RESULT:      -7.3      2.201      3.421
REMARK  Name = 
REMARK  12 active torsions:
REMARK  status: ('A' for Active; 'I' for Inactive)
REMARK    1  A    between atoms: C_1  and  C_2
REMARK    2  A    between atoms: C_2  and  C_3
REMARK    3  A    between atoms: C_2  and  N_4
REMARK    4  A    between atoms: N_4  and  C_5
REMARK    5  A    between atoms: C_6  and  C_8
REMARK    6  A    between atoms: C_11  and  C_12
REMARK    7  A    between atoms: C_15  and  O_16
REMARK    8  A    between atoms: O_16  and  C_17
REMARK    9  A    between atoms: C_17  and  C_18
REMARK   10  A    between atoms: C_18  and  C_19
REMARK   11  A    between atoms: C_19  and  N_20
REMARK   12  A    between atoms: C_23  and  O_24
REMARK                            x       y       z     vdW  Elec       q    Type
REMARK                         _______ _______ _______ _____ _____    ______ ____
ROOT
ATOM      1  C   UNL     1       1.812   7.653  19.964  0.00  0.00    +0.000 A 
ATOM      2  C   UNL     1       2.468   7.752  18.728  0.00  0.00    +0.000 A 
ATOM      3  C   UNL     1       3.165   6.683  18.181  0.00  0.00    +0.000 A 
ATOM      4  C   UNL     1       3.264   5.480  18.871  0.00  0.00    +0.000 A 
ATOM      5  C   UNL     1       2.660   5.364  20.122  0.00  0.00    +0.000 A 
ATOM      6  C   UNL     1       1.934   6.439  20.660  0.00  0.00    +0.000 A 
ENDROOT
BRANCH   1  10
ATOM      7  C   UNL     1      -0.461  10.977  21.509  0.00  0.00    +0.000 A 
ATOM      8  C   UNL     1       0.097  10.034  22.362  0.00  0.00    +0.000 A 
ATOM      9  C   UNL     1       0.877   9.004  21.846  0.00  0.00    +0.000 A 
ATOM     10  C   UNL     1       1.016   8.796  20.460  0.00  0.00    +0.000 A 
ATOM     11  C   UNL     1       0.354   9.690  19.606  0.00  0.00    +0.000 A 
ATOM     12  C   UNL     1      -0.361  10.780  20.125  0.00  0.00    +0.000 A 
BRANCH   7  15
ATOM     13  N   UNL     1      -0.554  13.420  22.111  0.00  0.00    +0.000 N 
ATOM     14  C   UNL     1       0.758  13.731  21.535  0.00  0.00    +0.000 C 
ATOM     15  C   UNL     1      -1.191  12.169  22.017  0.00  0.00    +0.000 C 
ATOM     16  O   UNL     1      -2.372  12.005  22.327  0.00  0.00    +0.000 OA
BRANCH  13  18
ATOM     17  C   UNL     1      -1.291  14.722  24.137  0.00  0.00    +0.000 C 
ATOM     18  C   UNL     1      -1.366  14.542  22.618  0.00  0.00    +0.000 C 
ATOM     19  C   UNL     1      -0.982  15.837  21.897  0.00  0.00    +0.000 C 
ENDBRANCH  13  18
ENDBRANCH   7  15
ENDBRANCH   1  10
BRANCH   4  20
ATOM     20  O   UNL     1       3.921   4.369  18.403  0.00  0.00    +0.000 OA
BRANCH  20  21
ATOM     21  C   UNL     1       3.856   4.218  16.981  0.00  0.00    +0.000 C 
BRANCH  21  22
ATOM     22  C   UNL     1       5.252   4.133  16.397  0.00  0.00    +0.000 C 
BRANCH  22  23
ATOM     23  C   UNL     1       5.857   5.531  16.212  0.00  0.00    +0.000 C 
BRANCH  23  24
ATOM     24  N   UNL     1       7.265   5.640  16.640  0.00  0.00    +0.000 NA
ATOM     25  C   UNL     1       7.641   7.018  17.020  0.00  0.00    +0.000 C 
ATOM     26  C   UNL     1       7.780   7.066  18.538  0.00  0.00    +0.000 C 
ATOM     27  C   UNL     1       7.208   5.743  19.012  0.00  0.00    +0.000 C 
ATOM     28  C   UNL     1       7.520   4.820  17.840  0.00  0.00    +0.000 C 
BRANCH  27  29
ATOM     29  O   UNL     1       7.792   5.319  20.232  0.00  0.00    +0.000 OA
ATOM     30  H   UNL     1       7.342   4.501  20.515  0.00  0.00    +0.000 HD
ENDBRANCH  27  29
ENDBRANCH  23  24
ENDBRANCH  22  23
ENDBRANCH  21  22
ENDBRANCH  20  21
ENDBRANCH   4  20
TORSDOF 9
ENDMDL
