MODEL 1
REMARK VINA RESULT:      -6.3      0.000      0.000
REMARK  Name = 
REMARK  5 active torsions:
REMARK  status: ('A' for Active; 'I' for Inactive)
REMARK    1  A    between atoms: C_1  and  N_2
REMARK    2  A    between atoms: N_13  and  C_14
REMARK    3  A    between atoms: C_14  and  C_15
REMARK    4  A    between atoms: C_15  and  C_16
REMARK    5  A    between atoms: C_16  and  O_17
REMARK                            x       y       z     vdW  Elec       q    Type
REMARK                         _______ _______ _______ _____ _____    ______ ____
ROOT
ATOM      1  C   UNL     1       5.015   6.654  15.899  0.00  0.00    +0.000 C 
ATOM      2  N   UNL     1       4.815   5.619  16.893  0.00  0.00    +0.000 N 
ATOM      3  C   UNL     1       5.454   4.389  16.769  0.00  0.00    +0.000 A 
ATOM      4  O   UNL     1       6.208   4.094  15.847  0.00  0.00    +0.000 OA
ATOM      5  N   UNL     1       5.205   3.453  17.753  0.00  0.00    +0.000 N 
ATOM      6  C   UNL     1       4.364   3.587  18.845  0.00  0.00    +0.000 A 
ATOM      7  O   UNL     1       4.178   2.674  19.641  0.00  0.00    +0.000 OA
ATOM      8  C   UNL     1       3.749   4.869  18.916  0.00  0.00    +0.000 A 
ATOM      9  C   UNL     1       3.979   5.828  17.970  0.00  0.00    +0.000 A 
ATOM     10  N   UNL     1       3.297   6.972  18.221  0.00  0.00    +0.000 NA
ATOM     11  C   UNL     1       2.631   6.726  19.333  0.00  0.00    +0.000 A 
ATOM     12 BR   UNL     1       1.522   8.020  20.121  0.00  0.00    +0.000 Br
ATOM     13  N   UNL     1       2.867   5.446  19.799  0.00  0.00    +0.000 N 
ATOM     14  H   UNL     1       5.669   2.568  17.639  0.00  0.00    +0.000 HD
ENDROOT
BRANCH  13  15
ATOM     15  C   UNL     1       2.337   4.887  21.026  0.00  0.00    +0.000 C 
BRANCH  15  16
ATOM     16  C   UNL     1       1.203   3.882  20.840  0.00  0.00    +0.000 C 
BRANCH  16  17
ATOM     17  C   UNL     1       1.357   2.594  21.635  0.00  0.00    +0.000 C 
BRANCH  17  18
ATOM     18  O   UNL     1       2.719   2.450  22.026  0.00  0.00    +0.000 OA
ATOM     19  H   UNL     1       2.801   2.719  22.957  0.00  0.00    +0.000 HD
ENDBRANCH  17  18
ENDBRANCH  16  17
ENDBRANCH  15  16
ENDBRANCH  13  15
TORSDOF 4
ENDMDL
MODEL 2
REMARK VINA RESULT:      -6.3      1.500      4.654
REMARK  Name = 
REMARK  5 active torsions:
REMARK  status: ('A' for Active; 'I' for Inactive)
REMARK    1  A    between atoms: C_1  and  N_2
REMARK    2  A    between atoms: N_13  and  C_14
REMARK    3  A    between atoms: C_14  and  C_15
REMARK    4  A    between atoms: C_15  and  C_16
REMARK    5  A    between atoms: C_16  and  O_17
REMARK                            x       y       z     vdW  Elec       q    Type
REMARK                         _______ _______ _______ _____ _____    ______ ____
ROOT
ATOM      1  C   UNL     1       1.723   3.823  20.891  0.00  0.00    +0.000 C 
ATOM      2  N   UNL     1       2.981   3.925  20.179  0.00  0.00    +0.000 N 
ATOM      3  C   UNL     1       3.942   2.926  20.300  0.00  0.00    +0.000 A 
ATOM      4  O   UNL     1       3.808   1.919  20.989  0.00  0.00    +0.000 OA
ATOM      5  N   UNL     1       5.117   3.100  19.596  0.00  0.00    +0.000 N 
ATOM      6  C   UNL     1       5.465   4.176  18.798  0.00  0.00    +0.000 A 
ATOM      7  O   UNL     1       6.558   4.255  18.249  0.00  0.00    +0.000 OA
ATOM      8  C   UNL     1       4.438   5.157  18.712  0.00  0.00    +0.000 A 
ATOM      9  C   UNL     1       3.254   5.016  19.382  0.00  0.00    +0.000 A 
ATOM     10  N   UNL     1       2.416   6.059  19.169  0.00  0.00    +0.000 NA
ATOM     11  C   UNL     1       3.080   6.862  18.360  0.00  0.00    +0.000 A 
ATOM     12 BR   UNL     1       2.336   8.473  17.745  0.00  0.00    +0.000 Br
ATOM     13  N   UNL     1       4.330   6.359  18.053  0.00  0.00    +0.000 N 
ATOM     14  H   UNL     1       5.802   2.371  19.705  0.00  0.00    +0.000 HD
ENDROOT
BRANCH  13  15
ATOM     15  C   UNL     1       5.282   6.967  17.145  0.00  0.00    +0.000 C 
BRANCH  15  16
ATOM     16  C   UNL     1       5.100   6.595  15.675  0.00  0.00    +0.000 C 
BRANCH  16  17
ATOM     17  C   UNL     1       5.927   5.405  15.213  0.00  0.00    +0.000 C 
BRANCH  17  18
ATOM     18  O   UNL     1       7.272   5.576  15.652  0.00  0.00    +0.000 OA
ATOM     19  H   UNL     1       7.330   6.411  16.146  0.00  0.00    +0.000 HD
ENDBRANCH  17  18
ENDBRANCH  16  17
ENDBRANCH  15  16
ENDBRANCH  13  15
TORSDOF 4
ENDMDL
MODEL 3
REMARK VINA RESULT:      -6.1      1.484      1.522
REMARK  Name = 
REMARK  5 active torsions:
REMARK  status: ('A' for Active; 'I' for Inactive)
REMARK    1  A    between atoms: C_1  and  N_2
REMARK    2  A    between atoms: N_13  and  C_14
REMARK    3  A    between atoms: C_14  and  C_15
REMARK    4  A    between atoms: C_15  and  C_16
REMARK    5  A    between atoms: C_16  and  O_17
REMARK                            x       y       z     vdW  Elec       q    Type
REMARK                         _______ _______ _______ _____ _____    ______ ____
ROOT
ATOM      1  C   UNL     1       7.023   6.635  16.292  0.00  0.00    +0.000 C 
ATOM      2  N   UNL     1       6.366   5.779  17.259  0.00  0.00    +0.000 N 
ATOM      3  C   UNL     1       6.980   4.610  17.697  0.00  0.00    +0.000 A 
ATOM      4  O   UNL     1       8.082   4.225  17.318  0.00  0.00    +0.000 OA
ATOM      5  N   UNL     1       6.287   3.844  18.614  0.00  0.00    +0.000 N 
ATOM      6  C   UNL     1       5.027   4.092  19.131  0.00  0.00    +0.000 A 
ATOM      7  O   UNL     1       4.477   3.322  19.911  0.00  0.00    +0.000 OA
ATOM      8  C   UNL     1       4.458   5.305  18.648  0.00  0.00    +0.000 A 
ATOM      9  C   UNL     1       5.118   6.098  17.751  0.00  0.00    +0.000 A 
ATOM     10  N   UNL     1       4.404   7.201  17.418  0.00  0.00    +0.000 NA
ATOM     11  C   UNL     1       3.286   7.097  18.110  0.00  0.00    +0.000 A 
ATOM     12 BR   UNL     1       1.941   8.403  18.009  0.00  0.00    +0.000 Br
ATOM     13  N   UNL     1       3.265   5.947  18.877  0.00  0.00    +0.000 N 
ATOM     14  H   UNL     1       6.744   3.000  18.910  0.00  0.00    +0.000 HD
ENDROOT
BRANCH  13  15
ATOM     15  C   UNL     1       2.209   5.568  19.796  0.00  0.00    +0.000 C 
BRANCH  15  16
ATOM     16  C   UNL     1       1.407   4.336  19.384  0.00  0.00    +0.000 C 
BRANCH  16  17
ATOM     17  C   UNL     1       1.004   3.426  20.534  0.00  0.00    +0.000 C 
BRANCH  17  18
ATOM     18  O   UNL     1       2.044   3.418  21.507  0.00  0.00    +0.000 OA
ATOM     19  H   UNL     1       2.585   2.621  21.372  0.00  0.00    +0.000 HD
ENDBRANCH  17  18
ENDBRANCH  16  17
ENDBRANCH  15  16
ENDBRANCH  13  15
TORSDOF 4
ENDMDL
MODEL 4
REMARK VINA RESULT:      -6.0      1.057      1.176
REMARK  Name = 
REMARK  5 active torsions:
REMARK  status: ('A' for Active; 'I' for Inactive)
REMARK    1  A    between atoms: C_1  and  N_2
REMARK    2  A    between atoms: N_13  and  C_14
REMARK    3  A    between atoms: C_14  and  C_15
REMARK    4  A    between atoms: C_15  and  C_16
REMARK    5  A    between atoms: C_16  and  O_17
REMARK                            x       y       z     vdW  Elec       q    Type
REMARK                         _______ _______ _______ _____ _____    ______ ____
ROOT
ATOM      1  C   UNL     1       5.093   6.657  15.871  0.00  0.00    +0.000 C 
ATOM      2  N   UNL     1       4.838   5.478  16.674  0.00  0.00    +0.000 N 
ATOM      3  C   UNL     1       5.387   4.250  16.318  0.00  0.00    +0.000 A 
ATOM      4  O   UNL     1       6.104   4.073  15.338  0.00  0.00    +0.000 OA
ATOM      5  N   UNL     1       5.091   3.173  17.130  0.00  0.00    +0.000 N 
ATOM      6  C   UNL     1       4.280   3.167  18.252  0.00  0.00    +0.000 A 
ATOM      7  O   UNL     1       4.044   2.142  18.881  0.00  0.00    +0.000 OA
ATOM      8  C   UNL     1       3.756   4.453  18.564  0.00  0.00    +0.000 A 
ATOM      9  C   UNL     1       4.037   5.548  17.794  0.00  0.00    +0.000 A 
ATOM     10  N   UNL     1       3.440   6.671  18.261  0.00  0.00    +0.000 NA
ATOM     11  C   UNL     1       2.777   6.277  19.332  0.00  0.00    +0.000 A 
ATOM     12 BR   UNL     1       1.774   7.481  20.366  0.00  0.00    +0.000 Br
ATOM     13  N   UNL     1       2.932   4.922  19.559  0.00  0.00    +0.000 N 
ATOM     14  H   UNL     1       5.490   2.294  16.850  0.00  0.00    +0.000 HD
ENDROOT
BRANCH  13  15
ATOM     15  C   UNL     1       2.385   4.191  20.685  0.00  0.00    +0.000 C 
BRANCH  15  16
ATOM     16  C   UNL     1       0.978   3.637  20.471  0.00  0.00    +0.000 C 
BRANCH  16  17
ATOM     17  C   UNL     1       0.728   3.050  19.090  0.00  0.00    +0.000 C 
BRANCH  17  18
ATOM     18  O   UNL     1       1.218   1.714  19.058  0.00  0.00    +0.000 OA
ATOM     19  H   UNL     1       2.065   1.709  18.581  0.00  0.00    +0.000 HD
ENDBRANCH  17  18
ENDBRANCH  16  17
ENDBRANCH  15  16
ENDBRANCH  13  15
TORSDOF 4
ENDMDL
MODEL 5
REMARK VINA RESULT:      -6.0      1.998      2.112
REMARK  Name = 
REMARK  5 active torsions:
REMARK  status: ('A' for Active; 'I' for Inactive)
REMARK    1  A    between atoms: C_1  and  N_2
REMARK    2  A    between atoms: N_13  and  C_14
REMARK    3  A    between atoms: C_14  and  C_15
REMARK    4  A    between atoms: C_15  and  C_16
REMARK    5  A    between atoms: C_16  and  O_17
REMARK                            x       y       z     vdW  Elec       q    Type
REMARK                         _______ _______ _______ _____ _____    ______ ____
ROOT
ATOM      1  C   UNL     1       7.415   6.950  17.017  0.00  0.00    +0.000 C 
ATOM      2  N   UNL     1       6.604   5.929  17.651  0.00  0.00    +0.000 N 
ATOM      3  C   UNL     1       7.161   4.703  18.000  0.00  0.00    +0.000 A 
ATOM      4  O   UNL     1       8.334   4.398  17.809  0.00  0.00    +0.000 OA
ATOM      5  N   UNL     1       6.322   3.781  18.594  0.00  0.00    +0.000 N 
ATOM      6  C   UNL     1       4.971   3.926  18.859  0.00  0.00    +0.000 A 
ATOM      7  O   UNL     1       4.302   3.025  19.352  0.00  0.00    +0.000 OA
ATOM      8  C   UNL     1       4.466   5.204  18.485  0.00  0.00    +0.000 A 
ATOM      9  C   UNL     1       5.268   6.149  17.908  0.00  0.00    +0.000 A 
ATOM     10  N   UNL     1       4.594   7.291  17.627  0.00  0.00    +0.000 NA
ATOM     11  C   UNL     1       3.359   7.059  18.029  0.00  0.00    +0.000 A 
ATOM     12 BR   UNL     1       2.012   8.356  17.869  0.00  0.00    +0.000 Br
ATOM     13  N   UNL     1       3.225   5.789  18.559  0.00  0.00    +0.000 N 
ATOM     14  H   UNL     1       6.741   2.898  18.829  0.00  0.00    +0.000 HD
ENDROOT
BRANCH  13  15
ATOM     15  C   UNL     1       2.015   5.245  19.143  0.00  0.00    +0.000 C 
BRANCH  15  16
ATOM     16  C   UNL     1       1.360   4.122  18.343  0.00  0.00    +0.000 C 
BRANCH  16  17
ATOM     17  C   UNL     1       0.866   2.950  19.178  0.00  0.00    +0.000 C 
BRANCH  17  18
ATOM     18  O   UNL     1       0.652   1.829  18.326  0.00  0.00    +0.000 OA
ATOM     19  H   UNL     1      -0.297   1.777  18.121  0.00  0.00    +0.000 HD
ENDBRANCH  17  18
ENDBRANCH  16  17
ENDBRANCH  15  16
ENDBRANCH  13  15
TORSDOF 4
ENDMDL
MODEL 6
REMARK VINA RESULT:      -5.9      1.680      1.901
REMARK  Name = 
REMARK  5 active torsions:
REMARK  status: ('A' for Active; 'I' for Inactive)
REMARK    1  A    between atoms: C_1  and  N_2
REMARK    2  A    between atoms: N_13  and  C_14
REMARK    3  A    between atoms: C_14  and  C_15
REMARK    4  A    between atoms: C_15  and  C_16
REMARK    5  A    between atoms: C_16  and  O_17
REMARK                            x       y       z     vdW  Elec       q    Type
REMARK                         _______ _______ _______ _____ _____    ______ ____
ROOT
ATOM      1  C   UNL     1       7.311   7.154  17.080  0.00  0.00    +0.000 C 
ATOM      2  N   UNL     1       6.421   6.014  17.167  0.00  0.00    +0.000 N 
ATOM      3  C   UNL     1       6.902   4.727  16.948  0.00  0.00    +0.000 A 
ATOM      4  O   UNL     1       8.069   4.463  16.676  0.00  0.00    +0.000 OA
ATOM      5  N   UNL     1       5.990   3.694  17.041  0.00  0.00    +0.000 N 
ATOM      6  C   UNL     1       4.634   3.794  17.302  0.00  0.00    +0.000 A 
ATOM      7  O   UNL     1       3.898   2.814  17.320  0.00  0.00    +0.000 OA
ATOM      8  C   UNL     1       4.209   5.135  17.523  0.00  0.00    +0.000 A 
ATOM      9  C   UNL     1       5.084   6.184  17.453  0.00  0.00    +0.000 A 
ATOM     10  N   UNL     1       4.479   7.373  17.692  0.00  0.00    +0.000 NA
ATOM     11  C   UNL     1       3.214   7.067  17.910  0.00  0.00    +0.000 A 
ATOM     12 BR   UNL     1       1.938   8.386  18.306  0.00  0.00    +0.000 Br
ATOM     13  N   UNL     1       2.993   5.706  17.812  0.00  0.00    +0.000 N 
ATOM     14  H   UNL     1       6.356   2.774  16.870  0.00  0.00    +0.000 HD
ENDROOT
BRANCH  13  15
ATOM     15  C   UNL     1       1.729   5.040  18.055  0.00  0.00    +0.000 C 
BRANCH  15  16
ATOM     16  C   UNL     1       1.479   4.641  19.507  0.00  0.00    +0.000 C 
BRANCH  16  17
ATOM     17  C   UNL     1       1.245   3.154  19.727  0.00  0.00    +0.000 C 
BRANCH  17  18
ATOM     18  O   UNL     1       2.501   2.505  19.895  0.00  0.00    +0.000 OA
ATOM     19  H   UNL     1       2.691   1.990  19.093  0.00  0.00    +0.000 HD
ENDBRANCH  17  18
ENDBRANCH  16  17
ENDBRANCH  15  16
ENDBRANCH  13  15
TORSDOF 4
ENDMDL
MODEL 7
REMARK VINA RESULT:      -5.8      2.826      4.069
REMARK  Name = 
REMARK  5 active torsions:
REMARK  status: ('A' for Active; 'I' for Inactive)
REMARK    1  A    between atoms: C_1  and  N_2
REMARK    2  A    between atoms: N_13  and  C_14
REMARK    3  A    between atoms: C_14  and  C_15
REMARK    4  A    between atoms: C_15  and  C_16
REMARK    5  A    between atoms: C_16  and  O_17
REMARK                            x       y       z     vdW  Elec       q    Type
REMARK                         _______ _______ _______ _____ _____    ______ ____
ROOT
ATOM      1  C   UNL     1       2.577   8.654  17.929  0.00  0.00    +0.000 C 
ATOM      2  N   UNL     1       2.518   7.509  18.816  0.00  0.00    +0.000 N 
ATOM      3  C   UNL     1       1.825   7.585  20.020  0.00  0.00    +0.000 A 
ATOM      4  O   UNL     1       1.230   8.584  20.412  0.00  0.00    +0.000 OA
ATOM      5  N   UNL     1       1.822   6.454  20.812  0.00  0.00    +0.000 N 
ATOM      6  C   UNL     1       2.458   5.251  20.558  0.00  0.00    +0.000 A 
ATOM      7  O   UNL     1       2.430   4.317  21.352  0.00  0.00    +0.000 OA
ATOM      8  C   UNL     1       3.142   5.238  19.310  0.00  0.00    +0.000 A 
ATOM      9  C   UNL     1       3.158   6.332  18.490  0.00  0.00    +0.000 A 
ATOM     10  N   UNL     1       3.865   6.113  17.355  0.00  0.00    +0.000 NA
ATOM     11  C   UNL     1       4.299   4.872  17.465  0.00  0.00    +0.000 A 
ATOM     12 BR   UNL     1       5.338   4.070  16.123  0.00  0.00    +0.000 Br
ATOM     13  N   UNL     1       3.889   4.291  18.650  0.00  0.00    +0.000 N 
ATOM     14  H   UNL     1       1.323   6.533  21.681  0.00  0.00    +0.000 HD
ENDROOT
BRANCH  13  15
ATOM     15  C   UNL     1       4.146   2.920  19.048  0.00  0.00    +0.000 C 
BRANCH  15  16
ATOM     16  C   UNL     1       3.255   1.877  18.379  0.00  0.00    +0.000 C 
BRANCH  16  17
ATOM     17  C   UNL     1       1.774   2.224  18.357  0.00  0.00    +0.000 C 
BRANCH  17  18
ATOM     18  O   UNL     1       1.265   2.172  19.686  0.00  0.00    +0.000 OA
ATOM     19  H   UNL     1       0.575   1.487  19.724  0.00  0.00    +0.000 HD
ENDBRANCH  17  18
ENDBRANCH  16  17
ENDBRANCH  15  16
ENDBRANCH  13  15
TORSDOF 4
ENDMDL
MODEL 8
REMARK VINA RESULT:      -5.8      2.612      2.981
REMARK  Name = 
REMARK  5 active torsions:
REMARK  status: ('A' for Active; 'I' for Inactive)
REMARK    1  A    between atoms: C_1  and  N_2
REMARK    2  A    between atoms: N_13  and  C_14
REMARK    3  A    between atoms: C_14  and  C_15
REMARK    4  A    between atoms: C_15  and  C_16
REMARK    5  A    between atoms: C_16  and  O_17
REMARK                            x       y       z     vdW  Elec       q    Type
REMARK                         _______ _______ _______ _____ _____    ______ ____
ROOT
ATOM      1  C   UNL     1       5.587   4.387  14.490  0.00  0.00    +0.000 C 
ATOM      2  N   UNL     1       5.857   4.641  15.891  0.00  0.00    +0.000 N 
ATOM      3  C   UNL     1       6.939   5.430  16.268  0.00  0.00    +0.000 A 
ATOM      4  O   UNL     1       7.720   5.954  15.479  0.00  0.00    +0.000 OA
ATOM      5  N   UNL     1       7.134   5.618  17.622  0.00  0.00    +0.000 N 
ATOM      6  C   UNL     1       6.386   5.086  18.659  0.00  0.00    +0.000 A 
ATOM      7  O   UNL     1       6.670   5.280  19.835  0.00  0.00    +0.000 OA
ATOM      8  C   UNL     1       5.293   4.296  18.205  0.00  0.00    +0.000 A 
ATOM      9  C   UNL     1       5.057   4.096  16.872  0.00  0.00    +0.000 A 
ATOM     10  N   UNL     1       3.972   3.314  16.655  0.00  0.00    +0.000 NA
ATOM     11  C   UNL     1       3.525   3.019  17.860  0.00  0.00    +0.000 A 
ATOM     12 BR   UNL     1       2.003   1.948  18.109  0.00  0.00    +0.000 Br
ATOM     13  N   UNL     1       4.303   3.592  18.848  0.00  0.00    +0.000 N 
ATOM     14  H   UNL     1       7.926   6.184  17.873  0.00  0.00    +0.000 HD
ENDROOT
BRANCH  13  15
ATOM     15  C   UNL     1       4.047   3.512  20.273  0.00  0.00    +0.000 C 
BRANCH  15  16
ATOM     16  C   UNL     1       2.761   4.192  20.736  0.00  0.00    +0.000 C 
BRANCH  16  17
ATOM     17  C   UNL     1       1.914   3.368  21.694  0.00  0.00    +0.000 C 
BRANCH  17  18
ATOM     18  O   UNL     1       0.701   3.001  21.045  0.00  0.00    +0.000 OA
ATOM     19  H   UNL     1       0.243   3.813  20.768  0.00  0.00    +0.000 HD
ENDBRANCH  17  18
ENDBRANCH  16  17
ENDBRANCH  15  16
ENDBRANCH  13  15
TORSDOF 4
ENDMDL
MODEL 9
REMARK VINA RESULT:      -5.8      1.039      1.085
REMARK  Name = 
REMARK  5 active torsions:
REMARK  status: ('A' for Active; 'I' for Inactive)
REMARK    1  A    between atoms: C_1  and  N_2
REMARK    2  A    between atoms: N_13  and  C_14
REMARK    3  A    between atoms: C_14  and  C_15
REMARK    4  A    between atoms: C_15  and  C_16
REMARK    5  A    between atoms: C_16  and  O_17
REMARK                            x       y       z     vdW  Elec       q    Type
REMARK                         _______ _______ _______ _____ _____    ______ ____
ROOT
ATOM      1  C   UNL     1       6.399   6.690  17.082  0.00  0.00    +0.000 C 
ATOM      2  N   UNL     1       5.541   5.535  17.256  0.00  0.00    +0.000 N 
ATOM      3  C   UNL     1       5.880   4.312  16.683  0.00  0.00    +0.000 A 
ATOM      4  O   UNL     1       6.891   4.120  16.015  0.00  0.00    +0.000 OA
ATOM      5  N   UNL     1       5.006   3.263  16.888  0.00  0.00    +0.000 N 
ATOM      6  C   UNL     1       3.807   3.292  17.579  0.00  0.00    +0.000 A 
ATOM      7  O   UNL     1       3.079   2.310  17.666  0.00  0.00    +0.000 OA
ATOM      8  C   UNL     1       3.523   4.568  18.144  0.00  0.00    +0.000 A 
ATOM      9  C   UNL     1       4.369   5.629  17.976  0.00  0.00    +0.000 A 
ATOM     10  N   UNL     1       3.915   6.749  18.589  0.00  0.00    +0.000 NA
ATOM     11  C   UNL     1       2.774   6.387  19.144  0.00  0.00    +0.000 A 
ATOM     12 BR   UNL     1       1.737   7.596  20.138  0.00  0.00    +0.000 Br
ATOM     13  N   UNL     1       2.483   5.059  18.895  0.00  0.00    +0.000 N 
ATOM     14  H   UNL     1       5.265   2.391  16.459  0.00  0.00    +0.000 HD
ENDROOT
BRANCH  13  15
ATOM     15  C   UNL     1       1.337   4.339  19.413  0.00  0.00    +0.000 C 
BRANCH  15  16
ATOM     16  C   UNL     1       1.404   4.000  20.900  0.00  0.00    +0.000 C 
BRANCH  16  17
ATOM     17  C   UNL     1       1.668   2.534  21.208  0.00  0.00    +0.000 C 
BRANCH  17  18
ATOM     18  O   UNL     1       2.841   2.431  22.008  0.00  0.00    +0.000 OA
ATOM     19  H   UNL     1       3.454   3.139  21.747  0.00  0.00    +0.000 HD
ENDBRANCH  17  18
ENDBRANCH  16  17
ENDBRANCH  15  16
ENDBRANCH  13  15
TORSDOF 4
ENDMDL
