MODEL 1
REMARK VINA RESULT:      -9.2      0.000      0.000
REMARK  Name = 
REMARK  9 active torsions:
REMARK  status: ('A' for Active; 'I' for Inactive)
REMARK    1  A    between atoms: C_1  and  O_2
REMARK    2  A    between atoms: O_2  and  C_3
REMARK    3  A    between atoms: C_6  and  C_7
REMARK    4  A    between atoms: C_8  and  C_9
REMARK    5  A    between atoms: C_9  and  C_11
REMARK    6  A    between atoms: C_13  and  N_14
REMARK    7  A    between atoms: C_16  and  C_17
REMARK    8  A    between atoms: C_17  and  N_18
REMARK    9  A    between atoms: C_33  and  O_34
REMARK                            x       y       z     vdW  Elec       q    Type
REMARK                         _______ _______ _______ _____ _____    ______ ____
ROOT
ATOM      1  C   UNL     1       3.221   3.884  19.369  0.00  0.00    +0.000 A 
ATOM      2  C   UNL     1       2.882   5.133  18.780  0.00  0.00    +0.000 A 
ATOM      3  C   UNL     1       2.197   6.111  19.513  0.00  0.00    +0.000 A 
ATOM      4  C   UNL     1       1.728   5.780  20.796  0.00  0.00    +0.000 A 
ATOM      5  C   UNL     1       1.990   4.524  21.356  0.00  0.00    +0.000 A 
ATOM      6  C   UNL     1       2.766   3.593  20.661  0.00  0.00    +0.000 A 
ENDROOT
BRANCH   3   7
ATOM      7  N   UNL     1       2.094   7.465  19.064  0.00  0.00    +0.000 N 
ATOM      8  C   UNL     1       1.376   8.541  19.563  0.00  0.00    +0.000 A 
ATOM      9  C   UNL     1       1.504   9.546  18.611  0.00  0.00    +0.000 A 
ATOM     10  N   UNL     1       2.320   9.081  17.613  0.00  0.00    +0.000 NA
ATOM     11  N   UNL     1       2.698   7.850  17.912  0.00  0.00    +0.000 NA
BRANCH   9  12
ATOM     12  C   UNL     1       1.186  11.002  18.653  0.00  0.00    +0.000 C 
BRANCH  12  13
ATOM     13  N   UNL     1      -0.136  11.501  18.963  0.00  0.00    +0.000 N 
ATOM     14  C   UNL     1      -0.188  12.747  19.601  0.00  0.00    +0.000 C 
ATOM     15  O   UNL     1       0.727  13.485  19.909  0.00  0.00    +0.000 OA
ATOM     16  C   UNL     1      -1.670  13.082  19.792  0.00  0.00    +0.000 C 
ATOM     17  O   UNL     1      -2.135  14.004  20.420  0.00  0.00    +0.000 OA
ATOM     18  C   UNL     1      -2.387  12.057  19.046  0.00  0.00    +0.000 A 
ATOM     19  C   UNL     1      -3.751  12.004  18.820  0.00  0.00    +0.000 A 
ATOM     20  C   UNL     1      -4.201  11.002  17.971  0.00  0.00    +0.000 A 
ATOM     21  C   UNL     1      -3.276  10.107  17.397  0.00  0.00    +0.000 A 
ATOM     22  C   UNL     1      -1.887  10.169  17.672  0.00  0.00    +0.000 A 
ATOM     23  C   UNL     1      -1.439  11.159  18.521  0.00  0.00    +0.000 A 
ENDBRANCH  12  13
ENDBRANCH   9  12
ENDBRANCH   3   7
BRANCH   1  24
ATOM     24  C   UNL     1       4.258   3.091  18.650  0.00  0.00    +0.000 C 
ATOM     25  O   UNL     1       5.022   2.427  19.343  0.00  0.00    +0.000 OA
BRANCH  24  27
ATOM     26  C   UNL     1       5.178   3.893  16.433  0.00  0.00    +0.000 C 
ATOM     27  C   UNL     1       4.365   3.098  17.157  0.00  0.00    +0.000 C 
BRANCH  26  31
ATOM     28  C   UNL     1       7.620   7.043  18.006  0.00  0.00    +0.000 A 
ATOM     29  C   UNL     1       7.939   5.710  18.281  0.00  0.00    +0.000 A 
ATOM     30  C   UNL     1       7.167   4.667  17.755  0.00  0.00    +0.000 A 
ATOM     31  C   UNL     1       6.056   4.953  16.956  0.00  0.00    +0.000 A 
ATOM     32  C   UNL     1       5.750   6.287  16.667  0.00  0.00    +0.000 A 
ATOM     33  C   UNL     1       6.522   7.328  17.194  0.00  0.00    +0.000 A 
BRANCH  28  35
ATOM     34  C   UNL     1       8.340   9.299  18.099  0.00  0.00    +0.000 C 
ATOM     35  O   UNL     1       8.430   7.972  18.601  0.00  0.00    +0.000 OA
ENDBRANCH  28  35
ENDBRANCH  26  31
ENDBRANCH  24  27
ENDBRANCH   1  24
BRANCH   6  36
ATOM     36  O   UNL     1       3.120   2.439  21.300  0.00  0.00    +0.000 OA
ATOM     37  H   UNL     1       2.668   1.685  20.883  0.00  0.00    +0.000 HD
ENDBRANCH   6  36
TORSDOF 8
ENDMDL
MODEL 2
REMARK VINA RESULT:      -8.8      1.436      2.087
REMARK  Name = 
REMARK  9 active torsions:
REMARK  status: ('A' for Active; 'I' for Inactive)
REMARK    1  A    between atoms: C_1  and  O_2
REMARK    2  A    between atoms: O_2  and  C_3
REMARK    3  A    between atoms: C_6  and  C_7
REMARK    4  A    between atoms: C_8  and  C_9
REMARK    5  A    between atoms: C_9  and  C_11
REMARK    6  A    between atoms: C_13  and  N_14
REMARK    7  A    between atoms: C_16  and  C_17
REMARK    8  A    between atoms: C_17  and  N_18
REMARK    9  A    between atoms: C_33  and  O_34
REMARK                            x       y       z     vdW  Elec       q    Type
REMARK                         _______ _______ _______ _____ _____    ______ ____
ROOT
ATOM      1  C   UNL     1       3.188   4.101  19.235  0.00  0.00    +0.000 A 
ATOM      2  C   UNL     1       2.867   5.370  18.677  0.00  0.00    +0.000 A 
ATOM      3  C   UNL     1       2.143   6.316  19.413  0.00  0.00    +0.000 A 
ATOM      4  C   UNL     1       1.617   5.936  20.659  0.00  0.00    +0.000 A 
ATOM      5  C   UNL     1       1.862   4.662  21.184  0.00  0.00    +0.000 A 
ATOM      6  C   UNL     1       2.675   3.760  20.493  0.00  0.00    +0.000 A 
ENDROOT
BRANCH   3   7
ATOM      7  N   UNL     1       2.052   7.685  19.009  0.00  0.00    +0.000 N 
ATOM      8  C   UNL     1       1.553   8.800  19.665  0.00  0.00    +0.000 A 
ATOM      9  C   UNL     1       1.546   9.816  18.717  0.00  0.00    +0.000 A 
ATOM     10  N   UNL     1       2.078   9.317  17.558  0.00  0.00    +0.000 NA
ATOM     11  N   UNL     1       2.413   8.053  17.754  0.00  0.00    +0.000 NA
BRANCH   9  12
ATOM     12  C   UNL     1       1.363  11.291  18.841  0.00  0.00    +0.000 C 
BRANCH  12  13
ATOM     13  N   UNL     1       0.363  11.882  19.704  0.00  0.00    +0.000 N 
ATOM     14  C   UNL     1      -0.449  12.863  19.120  0.00  0.00    +0.000 C 
ATOM     15  O   UNL     1      -0.448  13.271  17.975  0.00  0.00    +0.000 OA
ATOM     16  C   UNL     1      -1.442  13.310  20.197  0.00  0.00    +0.000 C 
ATOM     17  O   UNL     1      -2.221  14.232  20.133  0.00  0.00    +0.000 OA
ATOM     18  C   UNL     1      -1.246  12.378  21.300  0.00  0.00    +0.000 A 
ATOM     19  C   UNL     1      -1.999  12.302  22.457  0.00  0.00    +0.000 A 
ATOM     20  C   UNL     1      -1.712  11.250  23.316  0.00  0.00    +0.000 A 
ATOM     21  C   UNL     1      -0.692  10.336  22.982  0.00  0.00    +0.000 A 
ATOM     22  C   UNL     1       0.082  10.459  21.802  0.00  0.00    +0.000 A 
ATOM     23  C   UNL     1      -0.198  11.507  20.951  0.00  0.00    +0.000 A 
ENDBRANCH  12  13
ENDBRANCH   9  12
ENDBRANCH   3   7
BRANCH   1  24
ATOM     24  C   UNL     1       4.262   3.341  18.537  0.00  0.00    +0.000 C 
ATOM     25  O   UNL     1       4.976   2.629  19.236  0.00  0.00    +0.000 OA
BRANCH  24  27
ATOM     26  C   UNL     1       5.311   4.273  16.431  0.00  0.00    +0.000 C 
ATOM     27  C   UNL     1       4.461   3.433  17.056  0.00  0.00    +0.000 C 
BRANCH  26  31
ATOM     28  C   UNL     1       7.855   7.210  18.238  0.00  0.00    +0.000 A 
ATOM     29  C   UNL     1       6.810   7.612  17.401  0.00  0.00    +0.000 A 
ATOM     30  C   UNL     1       5.953   6.668  16.822  0.00  0.00    +0.000 A 
ATOM     31  C   UNL     1       6.145   5.306  17.067  0.00  0.00    +0.000 A 
ATOM     32  C   UNL     1       7.180   4.906  17.919  0.00  0.00    +0.000 A 
ATOM     33  C   UNL     1       8.036   5.851  18.496  0.00  0.00    +0.000 A 
BRANCH  28  35
ATOM     34  C   UNL     1       8.431   9.507  18.144  0.00  0.00    +0.000 C 
ATOM     35  O   UNL     1       8.641   8.222  18.717  0.00  0.00    +0.000 OA
ENDBRANCH  28  35
ENDBRANCH  26  31
ENDBRANCH  24  27
ENDBRANCH   1  24
BRANCH   6  36
ATOM     36  O   UNL     1       3.006   2.586  21.105  0.00  0.00    +0.000 OA
ATOM     37  H   UNL     1       2.474   1.862  20.730  0.00  0.00    +0.000 HD
ENDBRANCH   6  36
TORSDOF 8
ENDMDL
MODEL 3
REMARK VINA RESULT:      -8.7      1.962      2.979
REMARK  Name = 
REMARK  9 active torsions:
REMARK  status: ('A' for Active; 'I' for Inactive)
REMARK    1  A    between atoms: C_1  and  O_2
REMARK    2  A    between atoms: O_2  and  C_3
REMARK    3  A    between atoms: C_6  and  C_7
REMARK    4  A    between atoms: C_8  and  C_9
REMARK    5  A    between atoms: C_9  and  C_11
REMARK    6  A    between atoms: C_13  and  N_14
REMARK    7  A    between atoms: C_16  and  C_17
REMARK    8  A    between atoms: C_17  and  N_18
REMARK    9  A    between atoms: C_33  and  O_34
REMARK                            x       y       z     vdW  Elec       q    Type
REMARK                         _______ _______ _______ _____ _____    ______ ____
ROOT
ATOM      1  C   UNL     1       3.732   4.873  19.627  0.00  0.00    +0.000 A 
ATOM      2  C   UNL     1       3.390   6.128  19.054  0.00  0.00    +0.000 A 
ATOM      3  C   UNL     1       2.198   6.776  19.402  0.00  0.00    +0.000 A 
ATOM      4  C   UNL     1       1.280   6.096  20.221  0.00  0.00    +0.000 A 
ATOM      5  C   UNL     1       1.574   4.825  20.729  0.00  0.00    +0.000 A 
ATOM      6  C   UNL     1       2.811   4.231  20.464  0.00  0.00    +0.000 A 
ENDROOT
BRANCH   3   7
ATOM      7  N   UNL     1       1.956   8.149  19.080  0.00  0.00    +0.000 N 
ATOM      8  C   UNL     1       1.191   9.116  19.714  0.00  0.00    +0.000 A 
ATOM      9  C   UNL     1       1.172  10.201  18.847  0.00  0.00    +0.000 A 
ATOM     10  N   UNL     1       1.951   9.891  17.763  0.00  0.00    +0.000 NA
ATOM     11  N   UNL     1       2.446   8.676  17.930  0.00  0.00    +0.000 NA
BRANCH   9  12
ATOM     12  C   UNL     1       0.742  11.616  19.035  0.00  0.00    +0.000 C 
BRANCH  12  13
ATOM     13  N   UNL     1      -0.130  12.029  20.114  0.00  0.00    +0.000 N 
ATOM     14  C   UNL     1       0.496  12.623  21.217  0.00  0.00    +0.000 C 
ATOM     15  O   UNL     1       1.675  12.866  21.385  0.00  0.00    +0.000 OA
ATOM     16  C   UNL     1      -0.614  13.005  22.200  0.00  0.00    +0.000 C 
ATOM     17  O   UNL     1      -0.480  13.418  23.327  0.00  0.00    +0.000 OA
ATOM     18  C   UNL     1      -1.856  12.772  21.474  0.00  0.00    +0.000 A 
ATOM     19  C   UNL     1      -3.133  13.084  21.904  0.00  0.00    +0.000 A 
ATOM     20  C   UNL     1      -4.161  12.889  20.992  0.00  0.00    +0.000 A 
ATOM     21  C   UNL     1      -3.866  12.390  19.706  0.00  0.00    +0.000 A 
ATOM     22  C   UNL     1      -2.550  12.051  19.306  0.00  0.00    +0.000 A 
ATOM     23  C   UNL     1      -1.529  12.238  20.214  0.00  0.00    +0.000 A 
ENDBRANCH  12  13
ENDBRANCH   9  12
ENDBRANCH   3   7
BRANCH   1  24
ATOM     24  C   UNL     1       5.159   4.467  19.490  0.00  0.00    +0.000 C 
ATOM     25  O   UNL     1       5.391   3.262  19.481  0.00  0.00    +0.000 OA
BRANCH  24  27
ATOM     26  C   UNL     1       6.786   5.919  18.206  0.00  0.00    +0.000 C 
ATOM     27  C   UNL     1       6.259   5.475  19.365  0.00  0.00    +0.000 C 
BRANCH  26  31
ATOM     28  C   UNL     1       5.759   4.431  14.322  0.00  0.00    +0.000 A 
ATOM     29  C   UNL     1       5.180   5.614  14.791  0.00  0.00    +0.000 A 
ATOM     30  C   UNL     1       5.523   6.129  16.047  0.00  0.00    +0.000 A 
ATOM     31  C   UNL     1       6.443   5.452  16.853  0.00  0.00    +0.000 A 
ATOM     32  C   UNL     1       7.033   4.278  16.375  0.00  0.00    +0.000 A 
ATOM     33  C   UNL     1       6.689   3.764  15.119  0.00  0.00    +0.000 A 
BRANCH  28  35
ATOM     34  C   UNL     1       6.286   3.381  12.264  0.00  0.00    +0.000 C 
ATOM     35  O   UNL     1       5.321   4.014  13.095  0.00  0.00    +0.000 OA
ENDBRANCH  28  35
ENDBRANCH  26  31
ENDBRANCH  24  27
ENDBRANCH   1  24
BRANCH   6  36
ATOM     36  O   UNL     1       3.114   3.059  21.096  0.00  0.00    +0.000 OA
ATOM     37  H   UNL     1       4.010   2.776  20.841  0.00  0.00    +0.000 HD
ENDBRANCH   6  36
TORSDOF 8
ENDMDL
MODEL 4
REMARK VINA RESULT:      -8.6      1.644      2.296
REMARK  Name = 
REMARK  9 active torsions:
REMARK  status: ('A' for Active; 'I' for Inactive)
REMARK    1  A    between atoms: C_1  and  O_2
REMARK    2  A    between atoms: O_2  and  C_3
REMARK    3  A    between atoms: C_6  and  C_7
REMARK    4  A    between atoms: C_8  and  C_9
REMARK    5  A    between atoms: C_9  and  C_11
REMARK    6  A    between atoms: C_13  and  N_14
REMARK    7  A    between atoms: C_16  and  C_17
REMARK    8  A    between atoms: C_17  and  N_18
REMARK    9  A    between atoms: C_33  and  O_34
REMARK                            x       y       z     vdW  Elec       q    Type
REMARK                         _______ _______ _______ _____ _____    ______ ____
ROOT
ATOM      1  C   UNL     1       2.991   4.186  19.155  0.00  0.00    +0.000 A 
ATOM      2  C   UNL     1       2.703   5.464  18.601  0.00  0.00    +0.000 A 
ATOM      3  C   UNL     1       2.106   6.466  19.378  0.00  0.00    +0.000 A 
ATOM      4  C   UNL     1       1.669   6.138  20.672  0.00  0.00    +0.000 A 
ATOM      5  C   UNL     1       1.879   4.859  21.200  0.00  0.00    +0.000 A 
ATOM      6  C   UNL     1       2.570   3.897  20.459  0.00  0.00    +0.000 A 
ENDROOT
BRANCH   3   7
ATOM      7  N   UNL     1       2.066   7.832  18.956  0.00  0.00    +0.000 N 
ATOM      8  C   UNL     1       1.278   8.894  19.374  0.00  0.00    +0.000 A 
ATOM      9  C   UNL     1       1.541   9.925  18.479  0.00  0.00    +0.000 A 
ATOM     10  N   UNL     1       2.497   9.488  17.600  0.00  0.00    +0.000 NA
ATOM     11  N   UNL     1       2.831   8.249  17.917  0.00  0.00    +0.000 NA
BRANCH   9  12
ATOM     12  C   UNL     1       1.214  11.379  18.514  0.00  0.00    +0.000 C 
BRANCH  12  13
ATOM     13  N   UNL     1       1.024  12.106  19.751  0.00  0.00    +0.000 N 
ATOM     14  C   UNL     1       2.010  13.049  20.067  0.00  0.00    +0.000 C 
ATOM     15  O   UNL     1       2.996  13.364  19.430  0.00  0.00    +0.000 OA
ATOM     16  C   UNL     1       1.582  13.709  21.382  0.00  0.00    +0.000 C 
ATOM     17  O   UNL     1       2.226  14.477  22.055  0.00  0.00    +0.000 OA
ATOM     18  C   UNL     1       0.234  13.215  21.629  0.00  0.00    +0.000 A 
ATOM     19  C   UNL     1      -0.620  13.621  22.639  0.00  0.00    +0.000 A 
ATOM     20  C   UNL     1      -1.909  13.105  22.607  0.00  0.00    +0.000 A 
ATOM     21  C   UNL     1      -2.278  12.214  21.578  0.00  0.00    +0.000 A 
ATOM     22  C   UNL     1      -1.371  11.794  20.575  0.00  0.00    +0.000 A 
ATOM     23  C   UNL     1      -0.088  12.300  20.609  0.00  0.00    +0.000 A 
ENDBRANCH  12  13
ENDBRANCH   9  12
ENDBRANCH   3   7
BRANCH   1  24
ATOM     24  C   UNL     1       3.951   3.349  18.382  0.00  0.00    +0.000 C 
ATOM     25  O   UNL     1       4.595   2.520  19.017  0.00  0.00    +0.000 OA
BRANCH  24  27
ATOM     26  C   UNL     1       4.998   4.328  16.297  0.00  0.00    +0.000 C 
ATOM     27  C   UNL     1       4.121   3.503  16.902  0.00  0.00    +0.000 C 
BRANCH  26  31
ATOM     28  C   UNL     1       7.731   7.034  18.186  0.00  0.00    +0.000 A 
ATOM     29  C   UNL     1       6.764   7.523  17.304  0.00  0.00    +0.000 A 
ATOM     30  C   UNL     1       5.846   6.656  16.696  0.00  0.00    +0.000 A 
ATOM     31  C   UNL     1       5.899   5.285  16.959  0.00  0.00    +0.000 A 
ATOM     32  C   UNL     1       6.856   4.800  17.857  0.00  0.00    +0.000 A 
ATOM     33  C   UNL     1       7.773   5.667  18.463  0.00  0.00    +0.000 A 
BRANCH  28  35
ATOM     34  C   UNL     1       8.402   9.306  18.231  0.00  0.00    +0.000 C 
ATOM     35  O   UNL     1       8.588   7.973  18.691  0.00  0.00    +0.000 OA
ENDBRANCH  28  35
ENDBRANCH  26  31
ENDBRANCH  24  27
ENDBRANCH   1  24
BRANCH   6  36
ATOM     36  O   UNL     1       2.881   2.713  21.064  0.00  0.00    +0.000 OA
ATOM     37  H   UNL     1       3.730   2.385  20.718  0.00  0.00    +0.000 HD
ENDBRANCH   6  36
TORSDOF 8
ENDMDL
MODEL 5
REMARK VINA RESULT:      -8.5      1.034      1.570
REMARK  Name = 
REMARK  9 active torsions:
REMARK  status: ('A' for Active; 'I' for Inactive)
REMARK    1  A    between atoms: C_1  and  O_2
REMARK    2  A    between atoms: O_2  and  C_3
REMARK    3  A    between atoms: C_6  and  C_7
REMARK    4  A    between atoms: C_8  and  C_9
REMARK    5  A    between atoms: C_9  and  C_11
REMARK    6  A    between atoms: C_13  and  N_14
REMARK    7  A    between atoms: C_16  and  C_17
REMARK    8  A    between atoms: C_17  and  N_18
REMARK    9  A    between atoms: C_33  and  O_34
REMARK                            x       y       z     vdW  Elec       q    Type
REMARK                         _______ _______ _______ _____ _____    ______ ____
ROOT
ATOM      1  C   UNL     1       3.156   3.979  19.494  0.00  0.00    +0.000 A 
ATOM      2  C   UNL     1       2.877   5.237  18.893  0.00  0.00    +0.000 A 
ATOM      3  C   UNL     1       2.102   6.195  19.558  0.00  0.00    +0.000 A 
ATOM      4  C   UNL     1       1.487   5.836  20.769  0.00  0.00    +0.000 A 
ATOM      5  C   UNL     1       1.692   4.571  21.332  0.00  0.00    +0.000 A 
ATOM      6  C   UNL     1       2.552   3.659  20.717  0.00  0.00    +0.000 A 
ENDROOT
BRANCH   3   7
ATOM      7  N   UNL     1       2.041   7.557  19.125  0.00  0.00    +0.000 N 
ATOM      8  C   UNL     1       1.431   8.668  19.688  0.00  0.00    +0.000 A 
ATOM      9  C   UNL     1       1.538   9.673  18.734  0.00  0.00    +0.000 A 
ATOM     10  N   UNL     1       2.239   9.172  17.668  0.00  0.00    +0.000 NA
ATOM     11  N   UNL     1       2.568   7.918  17.929  0.00  0.00    +0.000 NA
BRANCH   9  12
ATOM     12  C   UNL     1       1.309  11.144  18.809  0.00  0.00    +0.000 C 
BRANCH  12  13
ATOM     13  N   UNL     1       0.410  11.745  19.771  0.00  0.00    +0.000 N 
ATOM     14  C   UNL     1       1.010  12.514  20.776  0.00  0.00    +0.000 C 
ATOM     15  O   UNL     1       2.186  12.771  20.940  0.00  0.00    +0.000 OA
ATOM     16  C   UNL     1      -0.126  13.070  21.640  0.00  0.00    +0.000 C 
ATOM     17  O   UNL     1      -0.022  13.670  22.684  0.00  0.00    +0.000 OA
ATOM     18  C   UNL     1      -1.347  12.727  20.924  0.00  0.00    +0.000 A 
ATOM     19  C   UNL     1      -2.632  13.121  21.250  0.00  0.00    +0.000 A 
ATOM     20  C   UNL     1      -3.633  12.781  20.350  0.00  0.00    +0.000 A 
ATOM     21  C   UNL     1      -3.305  12.066  19.180  0.00  0.00    +0.000 A 
ATOM     22  C   UNL     1      -1.983  11.650  18.889  0.00  0.00    +0.000 A 
ATOM     23  C   UNL     1      -0.988  11.981  19.786  0.00  0.00    +0.000 A 
ENDBRANCH  12  13
ENDBRANCH   9  12
ENDBRANCH   3   7
BRANCH   1  24
ATOM     24  C   UNL     1       4.277   3.207  18.889  0.00  0.00    +0.000 C 
ATOM     25  O   UNL     1       5.140   2.793  19.658  0.00  0.00    +0.000 OA
BRANCH  24  27
ATOM     26  C   UNL     1       4.998   3.710  16.516  0.00  0.00    +0.000 C 
ATOM     27  C   UNL     1       4.352   2.943  17.417  0.00  0.00    +0.000 C 
BRANCH  26  31
ATOM     28  C   UNL     1       7.118   7.360  17.247  0.00  0.00    +0.000 A 
ATOM     29  C   UNL     1       5.912   7.384  16.541  0.00  0.00    +0.000 A 
ATOM     30  C   UNL     1       5.192   6.204  16.314  0.00  0.00    +0.000 A 
ATOM     31  C   UNL     1       5.685   4.983  16.784  0.00  0.00    +0.000 A 
ATOM     32  C   UNL     1       6.883   4.965  17.506  0.00  0.00    +0.000 A 
ATOM     33  C   UNL     1       7.601   6.144  17.731  0.00  0.00    +0.000 A 
BRANCH  28  35
ATOM     34  C   UNL     1       8.550   8.742  18.536  0.00  0.00    +0.000 C 
ATOM     35  O   UNL     1       7.742   8.571  17.377  0.00  0.00    +0.000 OA
ENDBRANCH  28  35
ENDBRANCH  26  31
ENDBRANCH  24  27
ENDBRANCH   1  24
BRANCH   6  36
ATOM     36  O   UNL     1       2.838   2.495  21.372  0.00  0.00    +0.000 OA
ATOM     37  H   UNL     1       2.013   2.099  21.705  0.00  0.00    +0.000 HD
ENDBRANCH   6  36
TORSDOF 8
ENDMDL
MODEL 6
REMARK VINA RESULT:      -8.3      2.351      9.850
REMARK  Name = 
REMARK  9 active torsions:
REMARK  status: ('A' for Active; 'I' for Inactive)
REMARK    1  A    between atoms: C_1  and  O_2
REMARK    2  A    between atoms: O_2  and  C_3
REMARK    3  A    between atoms: C_6  and  C_7
REMARK    4  A    between atoms: C_8  and  C_9
REMARK    5  A    between atoms: C_9  and  C_11
REMARK    6  A    between atoms: C_13  and  N_14
REMARK    7  A    between atoms: C_16  and  C_17
REMARK    8  A    between atoms: C_17  and  N_18
REMARK    9  A    between atoms: C_33  and  O_34
REMARK                            x       y       z     vdW  Elec       q    Type
REMARK                         _______ _______ _______ _____ _____    ______ ____
ROOT
ATOM      1  C   UNL     1      -1.427  12.073  21.326  0.00  0.00    +0.000 A 
ATOM      2  C   UNL     1      -0.420  11.353  20.626  0.00  0.00    +0.000 A 
ATOM      3  C   UNL     1       0.204  10.242  21.208  0.00  0.00    +0.000 A 
ATOM      4  C   UNL     1      -0.082   9.939  22.549  0.00  0.00    +0.000 A 
ATOM      5  C   UNL     1      -1.016  10.690  23.273  0.00  0.00    +0.000 A 
ATOM      6  C   UNL     1      -1.714  11.729  22.653  0.00  0.00    +0.000 A 
ENDROOT
BRANCH   3   7
ATOM      7  N   UNL     1       0.998   9.329  20.443  0.00  0.00    +0.000 N 
ATOM      8  C   UNL     1       1.296   9.290  19.090  0.00  0.00    +0.000 A 
ATOM      9  C   UNL     1       1.943   8.077  18.888  0.00  0.00    +0.000 A 
ATOM     10  N   UNL     1       2.064   7.455  20.102  0.00  0.00    +0.000 NA
ATOM     11  N   UNL     1       1.530   8.229  21.031  0.00  0.00    +0.000 NA
BRANCH   9  12
ATOM     12  C   UNL     1       2.722   7.546  17.732  0.00  0.00    +0.000 C 
BRANCH  12  13
ATOM     13  N   UNL     1       3.562   6.372  17.833  0.00  0.00    +0.000 N 
ATOM     14  C   UNL     1       2.900   5.138  17.799  0.00  0.00    +0.000 C 
ATOM     15  O   UNL     1       1.713   4.913  17.669  0.00  0.00    +0.000 OA
ATOM     16  C   UNL     1       3.981   4.057  17.881  0.00  0.00    +0.000 C 
ATOM     17  O   UNL     1       3.814   2.868  18.014  0.00  0.00    +0.000 OA
ATOM     18  C   UNL     1       5.242   4.775  17.754  0.00  0.00    +0.000 A 
ATOM     19  C   UNL     1       6.503   4.214  17.650  0.00  0.00    +0.000 A 
ATOM     20  C   UNL     1       7.553   5.089  17.408  0.00  0.00    +0.000 A 
ATOM     21  C   UNL     1       7.296   6.470  17.286  0.00  0.00    +0.000 A 
ATOM     22  C   UNL     1       5.997   7.017  17.427  0.00  0.00    +0.000 A 
ATOM     23  C   UNL     1       4.953   6.149  17.675  0.00  0.00    +0.000 A 
ENDBRANCH  12  13
ENDBRANCH   9  12
ENDBRANCH   3   7
BRANCH   1  24
ATOM     24  C   UNL     1      -2.277  12.971  20.493  0.00  0.00    +0.000 C 
ATOM     25  O   UNL     1      -1.690  13.779  19.780  0.00  0.00    +0.000 OA
BRANCH  24  27
ATOM     26  C   UNL     1      -4.538  12.255  19.611  0.00  0.00    +0.000 C 
ATOM     27  C   UNL     1      -3.771  12.893  20.519  0.00  0.00    +0.000 C 
BRANCH  26  31
ATOM     28  C   UNL     1      -3.165  10.424  15.989  0.00  0.00    +0.000 A 
ATOM     29  C   UNL     1      -2.542  10.121  17.203  0.00  0.00    +0.000 A 
ATOM     30  C   UNL     1      -2.993  10.691  18.400  0.00  0.00    +0.000 A 
ATOM     31  C   UNL     1      -4.069  11.583  18.389  0.00  0.00    +0.000 A 
ATOM     32  C   UNL     1      -4.703  11.870  17.175  0.00  0.00    +0.000 A 
ATOM     33  C   UNL     1      -4.250  11.301  15.979  0.00  0.00    +0.000 A 
BRANCH  28  35
ATOM     34  C   UNL     1      -3.349   9.950  13.674  0.00  0.00    +0.000 C 
ATOM     35  O   UNL     1      -2.615   9.830  14.886  0.00  0.00    +0.000 OA
ENDBRANCH  28  35
ENDBRANCH  26  31
ENDBRANCH  24  27
ENDBRANCH   1  24
BRANCH   6  36
ATOM     36  O   UNL     1      -2.717  12.341  23.349  0.00  0.00    +0.000 OA
ATOM     37  H   UNL     1      -2.929  13.194  22.930  0.00  0.00    +0.000 HD
ENDBRANCH   6  36
TORSDOF 8
ENDMDL
MODEL 7
REMARK VINA RESULT:      -8.3      2.908     10.871
REMARK  Name = 
REMARK  9 active torsions:
REMARK  status: ('A' for Active; 'I' for Inactive)
REMARK    1  A    between atoms: C_1  and  O_2
REMARK    2  A    between atoms: O_2  and  C_3
REMARK    3  A    between atoms: C_6  and  C_7
REMARK    4  A    between atoms: C_8  and  C_9
REMARK    5  A    between atoms: C_9  and  C_11
REMARK    6  A    between atoms: C_13  and  N_14
REMARK    7  A    between atoms: C_16  and  C_17
REMARK    8  A    between atoms: C_17  and  N_18
REMARK    9  A    between atoms: C_33  and  O_34
REMARK                            x       y       z     vdW  Elec       q    Type
REMARK                         _______ _______ _______ _____ _____    ______ ____
ROOT
ATOM      1  C   UNL     1      -1.427  12.325  20.217  0.00  0.00    +0.000 A 
ATOM      2  C   UNL     1      -0.383  11.360  20.174  0.00  0.00    +0.000 A 
ATOM      3  C   UNL     1      -0.426  10.296  19.265  0.00  0.00    +0.000 A 
ATOM      4  C   UNL     1      -1.587  10.120  18.494  0.00  0.00    +0.000 A 
ATOM      5  C   UNL     1      -2.654  11.021  18.584  0.00  0.00    +0.000 A 
ATOM      6  C   UNL     1      -2.560  12.141  19.415  0.00  0.00    +0.000 A 
ENDROOT
BRANCH   3   7
ATOM      7  N   UNL     1       0.720   9.484  18.991  0.00  0.00    +0.000 N 
ATOM      8  C   UNL     1       1.372   9.195  17.802  0.00  0.00    +0.000 A 
ATOM      9  C   UNL     1       2.293   8.202  18.117  0.00  0.00    +0.000 A 
ATOM     10  N   UNL     1       2.213   7.962  19.463  0.00  0.00    +0.000 NA
ATOM     11  N   UNL     1       1.297   8.761  19.983  0.00  0.00    +0.000 NA
BRANCH   9  12
ATOM     12  C   UNL     1       3.448   7.642  17.359  0.00  0.00    +0.000 C 
BRANCH  12  13
ATOM     13  N   UNL     1       3.895   6.275  17.518  0.00  0.00    +0.000 N 
ATOM     14  C   UNL     1       5.260   6.102  17.782  0.00  0.00    +0.000 C 
ATOM     15  O   UNL     1       6.122   6.946  17.924  0.00  0.00    +0.000 OA
ATOM     16  C   UNL     1       5.488   4.596  17.946  0.00  0.00    +0.000 C 
ATOM     17  O   UNL     1       6.548   4.026  18.050  0.00  0.00    +0.000 OA
ATOM     18  C   UNL     1       4.153   4.012  17.959  0.00  0.00    +0.000 A 
ATOM     19  C   UNL     1       3.835   2.688  18.204  0.00  0.00    +0.000 A 
ATOM     20  C   UNL     1       2.484   2.381  18.292  0.00  0.00    +0.000 A 
ATOM     21  C   UNL     1       1.525   3.400  18.128  0.00  0.00    +0.000 A 
ATOM     22  C   UNL     1       1.882   4.742  17.847  0.00  0.00    +0.000 A 
ATOM     23  C   UNL     1       3.224   5.048  17.753  0.00  0.00    +0.000 A 
ENDBRANCH  12  13
ENDBRANCH   9  12
ENDBRANCH   3   7
BRANCH   1  24
ATOM     24  C   UNL     1      -1.106  13.594  20.929  0.00  0.00    +0.000 C 
ATOM     25  O   UNL     1      -1.360  14.638  20.337  0.00  0.00    +0.000 OA
BRANCH  24  27
ATOM     26  C   UNL     1      -1.198  13.655  23.458  0.00  0.00    +0.000 C 
ATOM     27  C   UNL     1      -0.507  13.601  22.301  0.00  0.00    +0.000 C 
BRANCH  26  31
ATOM     28  C   UNL     1      -5.444  14.148  23.756  0.00  0.00    +0.000 A 
ATOM     29  C   UNL     1      -4.890  12.865  23.746  0.00  0.00    +0.000 A 
ATOM     30  C   UNL     1      -3.503  12.685  23.674  0.00  0.00    +0.000 A 
ATOM     31  C   UNL     1      -2.657  13.795  23.598  0.00  0.00    +0.000 A 
ATOM     32  C   UNL     1      -3.212  15.078  23.628  0.00  0.00    +0.000 A 
ATOM     33  C   UNL     1      -4.598  15.256  23.698  0.00  0.00    +0.000 A 
BRANCH  28  35
ATOM     34  C   UNL     1      -7.480  12.940  23.859  0.00  0.00    +0.000 C 
ATOM     35  O   UNL     1      -6.811  14.193  23.798  0.00  0.00    +0.000 OA
ENDBRANCH  28  35
ENDBRANCH  26  31
ENDBRANCH  24  27
ENDBRANCH   1  24
BRANCH   6  36
ATOM     36  O   UNL     1      -3.560  13.069  19.364  0.00  0.00    +0.000 OA
ATOM     37  H   UNL     1      -3.979  13.048  18.486  0.00  0.00    +0.000 HD
ENDBRANCH   6  36
TORSDOF 8
ENDMDL
MODEL 8
REMARK VINA RESULT:      -8.2      2.290      9.629
REMARK  Name = 
REMARK  9 active torsions:
REMARK  status: ('A' for Active; 'I' for Inactive)
REMARK    1  A    between atoms: C_1  and  O_2
REMARK    2  A    between atoms: O_2  and  C_3
REMARK    3  A    between atoms: C_6  and  C_7
REMARK    4  A    between atoms: C_8  and  C_9
REMARK    5  A    between atoms: C_9  and  C_11
REMARK    6  A    between atoms: C_13  and  N_14
REMARK    7  A    between atoms: C_16  and  C_17
REMARK    8  A    between atoms: C_17  and  N_18
REMARK    9  A    between atoms: C_33  and  O_34
REMARK                            x       y       z     vdW  Elec       q    Type
REMARK                         _______ _______ _______ _____ _____    ______ ____
ROOT
ATOM      1  C   UNL     1      -0.682  11.547  21.186  0.00  0.00    +0.000 A 
ATOM      2  C   UNL     1       0.242  10.980  20.265  0.00  0.00    +0.000 A 
ATOM      3  C   UNL     1       0.775   9.702  20.478  0.00  0.00    +0.000 A 
ATOM      4  C   UNL     1       0.490   9.051  21.689  0.00  0.00    +0.000 A 
ATOM      5  C   UNL     1      -0.358   9.635  22.638  0.00  0.00    +0.000 A 
ATOM      6  C   UNL     1      -0.971  10.861  22.372  0.00  0.00    +0.000 A 
ENDROOT
BRANCH   3   7
ATOM      7  N   UNL     1       1.468   8.987  19.450  0.00  0.00    +0.000 N 
ATOM      8  C   UNL     1       2.265   7.854  19.505  0.00  0.00    +0.000 A 
ATOM      9  C   UNL     1       2.823   7.733  18.238  0.00  0.00    +0.000 A 
ATOM     10  N   UNL     1       2.320   8.738  17.456  0.00  0.00    +0.000 NA
ATOM     11  N   UNL     1       1.481   9.460  18.179  0.00  0.00    +0.000 NA
BRANCH   9  12
ATOM     12  C   UNL     1       3.560   6.616  17.579  0.00  0.00    +0.000 C 
BRANCH  12  13
ATOM     13  N   UNL     1       3.585   5.274  18.118  0.00  0.00    +0.000 N 
ATOM     14  C   UNL     1       4.727   4.928  18.853  0.00  0.00    +0.000 C 
ATOM     15  O   UNL     1       5.693   5.612  19.126  0.00  0.00    +0.000 OA
ATOM     16  C   UNL     1       4.514   3.494  19.348  0.00  0.00    +0.000 C 
ATOM     17  O   UNL     1       5.320   2.787  19.902  0.00  0.00    +0.000 OA
ATOM     18  C   UNL     1       3.130   3.182  19.013  0.00  0.00    +0.000 A 
ATOM     19  C   UNL     1       2.435   2.040  19.366  0.00  0.00    +0.000 A 
ATOM     20  C   UNL     1       1.084   2.012  19.047  0.00  0.00    +0.000 A 
ATOM     21  C   UNL     1       0.500   3.115  18.391  0.00  0.00    +0.000 A 
ATOM     22  C   UNL     1       1.247   4.259  18.015  0.00  0.00    +0.000 A 
ATOM     23  C   UNL     1       2.590   4.285  18.326  0.00  0.00    +0.000 A 
ENDBRANCH  12  13
ENDBRANCH   9  12
ENDBRANCH   3   7
BRANCH   1  24
ATOM     24  C   UNL     1      -1.463  12.712  20.683  0.00  0.00    +0.000 C 
ATOM     25  O   UNL     1      -0.905  13.438  19.866  0.00  0.00    +0.000 OA
BRANCH  24  27
ATOM     26  C   UNL     1      -3.984  12.656  20.478  0.00  0.00    +0.000 C 
ATOM     27  C   UNL     1      -2.860  12.986  21.145  0.00  0.00    +0.000 C 
BRANCH  26  31
ATOM     28  C   UNL     1      -4.216  10.983  16.540  0.00  0.00    +0.000 A 
ATOM     29  C   UNL     1      -3.187  10.594  17.403  0.00  0.00    +0.000 A 
ATOM     30  C   UNL     1      -3.110  11.111  18.703  0.00  0.00    +0.000 A 
ATOM     31  C   UNL     1      -4.060  12.036  19.145  0.00  0.00    +0.000 A 
ATOM     32  C   UNL     1      -5.099  12.410  18.285  0.00  0.00    +0.000 A 
ATOM     33  C   UNL     1      -5.174  11.893  16.987  0.00  0.00    +0.000 A 
BRANCH  28  35
ATOM     34  C   UNL     1      -2.869  10.226  14.743  0.00  0.00    +0.000 C 
ATOM     35  O   UNL     1      -4.166  10.432  15.288  0.00  0.00    +0.000 OA
ENDBRANCH  28  35
ENDBRANCH  26  31
ENDBRANCH  24  27
ENDBRANCH   1  24
BRANCH   6  36
ATOM     36  O   UNL     1      -1.901  11.326  23.257  0.00  0.00    +0.000 OA
ATOM     37  H   UNL     1      -2.417  10.578  23.607  0.00  0.00    +0.000 HD
ENDBRANCH   6  36
TORSDOF 8
ENDMDL
MODEL 9
REMARK VINA RESULT:      -8.2      2.286      3.422
REMARK  Name = 
REMARK  9 active torsions:
REMARK  status: ('A' for Active; 'I' for Inactive)
REMARK    1  A    between atoms: C_1  and  O_2
REMARK    2  A    between atoms: O_2  and  C_3
REMARK    3  A    between atoms: C_6  and  C_7
REMARK    4  A    between atoms: C_8  and  C_9
REMARK    5  A    between atoms: C_9  and  C_11
REMARK    6  A    between atoms: C_13  and  N_14
REMARK    7  A    between atoms: C_16  and  C_17
REMARK    8  A    between atoms: C_17  and  N_18
REMARK    9  A    between atoms: C_33  and  O_34
REMARK                            x       y       z     vdW  Elec       q    Type
REMARK                         _______ _______ _______ _____ _____    ______ ____
ROOT
ATOM      1  C   UNL     1       3.877   4.720  19.561  0.00  0.00    +0.000 A 
ATOM      2  C   UNL     1       3.293   6.003  19.375  0.00  0.00    +0.000 A 
ATOM      3  C   UNL     1       2.081   6.337  19.993  0.00  0.00    +0.000 A 
ATOM      4  C   UNL     1       1.383   5.333  20.685  0.00  0.00    +0.000 A 
ATOM      5  C   UNL     1       1.913   4.044  20.809  0.00  0.00    +0.000 A 
ATOM      6  C   UNL     1       3.173   3.747  20.282  0.00  0.00    +0.000 A 
ENDROOT
BRANCH   3   7
ATOM      7  N   UNL     1       1.613   7.687  20.069  0.00  0.00    +0.000 N 
ATOM      8  C   UNL     1       1.594   8.702  19.124  0.00  0.00    +0.000 A 
ATOM      9  C   UNL     1       1.209   9.844  19.815  0.00  0.00    +0.000 A 
ATOM     10  N   UNL     1       0.958   9.488  21.115  0.00  0.00    +0.000 NA
ATOM     11  N   UNL     1       1.166   8.189  21.247  0.00  0.00    +0.000 NA
BRANCH   9  12
ATOM     12  C   UNL     1       0.767  11.189  19.346  0.00  0.00    +0.000 C 
BRANCH  12  13
ATOM     13  N   UNL     1      -0.599  11.649  19.473  0.00  0.00    +0.000 N 
ATOM     14  C   UNL     1      -1.490  11.208  18.487  0.00  0.00    +0.000 C 
ATOM     15  O   UNL     1      -1.282  10.465  17.548  0.00  0.00    +0.000 OA
ATOM     16  C   UNL     1      -2.863  11.784  18.845  0.00  0.00    +0.000 C 
ATOM     17  O   UNL     1      -3.868  11.746  18.176  0.00  0.00    +0.000 OA
ATOM     18  C   UNL     1      -2.691  12.373  20.167  0.00  0.00    +0.000 A 
ATOM     19  C   UNL     1      -3.683  12.913  20.964  0.00  0.00    +0.000 A 
ATOM     20  C   UNL     1      -3.309  13.303  22.243  0.00  0.00    +0.000 A 
ATOM     21  C   UNL     1      -1.972  13.140  22.658  0.00  0.00    +0.000 A 
ATOM     22  C   UNL     1      -0.971  12.611  21.806  0.00  0.00    +0.000 A 
ATOM     23  C   UNL     1      -1.340  12.229  20.533  0.00  0.00    +0.000 A 
ENDBRANCH  12  13
ENDBRANCH   9  12
ENDBRANCH   3   7
BRANCH   1  24
ATOM     24  C   UNL     1       5.315   4.605  19.188  0.00  0.00    +0.000 C 
ATOM     25  O   UNL     1       5.769   3.469  19.088  0.00  0.00    +0.000 OA
BRANCH  24  27
ATOM     26  C   UNL     1       6.563   6.256  17.731  0.00  0.00    +0.000 C 
ATOM     27  C   UNL     1       6.167   5.811  18.941  0.00  0.00    +0.000 C 
BRANCH  26  31
ATOM     28  C   UNL     1       5.905   4.278  13.988  0.00  0.00    +0.000 A 
ATOM     29  C   UNL     1       4.818   4.604  14.805  0.00  0.00    +0.000 A 
ATOM     30  C   UNL     1       5.012   5.273  16.020  0.00  0.00    +0.000 A 
ATOM     31  C   UNL     1       6.303   5.610  16.434  0.00  0.00    +0.000 A 
ATOM     32  C   UNL     1       7.388   5.299  15.607  0.00  0.00    +0.000 A 
ATOM     33  C   UNL     1       7.192   4.629  14.393  0.00  0.00    +0.000 A 
BRANCH  28  35
ATOM     34  C   UNL     1       6.685   3.200  12.027  0.00  0.00    +0.000 C 
ATOM     35  O   UNL     1       5.590   3.598  12.842  0.00  0.00    +0.000 OA
ENDBRANCH  28  35
ENDBRANCH  26  31
ENDBRANCH  24  27
ENDBRANCH   1  24
BRANCH   6  36
ATOM     36  O   UNL     1       3.716   2.524  20.549  0.00  0.00    +0.000 OA
ATOM     37  H   UNL     1       3.061   1.973  21.015  0.00  0.00    +0.000 HD
ENDBRANCH   6  36
TORSDOF 8
ENDMDL
