MODEL 1
REMARK VINA RESULT:      -8.8      0.000      0.000
REMARK  Name = 
REMARK  8 active torsions:
REMARK  status: ('A' for Active; 'I' for Inactive)
REMARK    1  A    between atoms: C_1  and  C_2
REMARK    2  A    between atoms: C_5  and  N_6
REMARK    3  A    between atoms: C_11  and  C_12
REMARK    4  A    between atoms: C_16  and  C_17
REMARK    5  A    between atoms: C_18  and  C_19
REMARK    6  A    between atoms: C_22  and  C_23
REMARK    7  A    between atoms: C_23  and  O_24
REMARK    8  A    between atoms: C_29  and  C_30
REMARK                            x       y       z     vdW  Elec       q    Type
REMARK                         _______ _______ _______ _____ _____    ______ ____
ROOT
ATOM      1  C   UNL     1       3.699   5.167  17.431  0.00  0.00    +0.000 C 
ATOM      2  O   UNL     1       3.066   4.162  17.108  0.00  0.00    +0.000 OA
ATOM      3  N   UNL     1       4.965   5.514  16.897  0.00  0.00    +0.000 N 
ATOM      4  C   UNL     1       5.661   6.725  17.344  0.00  0.00    +0.000 C 
ATOM      5  C   UNL     1       7.161   6.610  17.327  0.00  0.00    +0.000 C 
ATOM      6  C   UNL     1       7.665   6.196  15.952  0.00  0.00    +0.000 C 
ATOM      7  C   UNL     1       6.974   4.900  15.526  0.00  0.00    +0.000 C 
ATOM      8  C   UNL     1       5.431   5.002  15.579  0.00  0.00    +0.000 C 
ATOM      9  C   UNL     1       4.860   3.672  15.079  0.00  0.00    +0.000 C 
ENDROOT
BRANCH   1  15
ATOM     10  C   UNL     1       1.991   9.760  18.048  0.00  0.00    +0.000 C 
ATOM     11  C   UNL     1       2.056   8.370  18.604  0.00  0.00    +0.000 A 
ATOM     12  C   UNL     1       1.624   8.053  19.887  0.00  0.00    +0.000 A 
ATOM     13  C   UNL     1       1.818   6.764  20.386  0.00  0.00    +0.000 A 
ATOM     14  C   UNL     1       2.545   5.796  19.655  0.00  0.00    +0.000 A 
ATOM     15  C   UNL     1       3.002   6.114  18.366  0.00  0.00    +0.000 A 
ATOM     16  C   UNL     1       2.639   7.364  17.833  0.00  0.00    +0.000 A 
BRANCH  14  17
ATOM     17  N   UNL     1       2.762   4.538  20.264  0.00  0.00    +0.000 N 
ATOM     18  N   UNL     1       3.885   3.793  20.081  0.00  0.00    +0.000 NA
ATOM     19  C   UNL     1       3.603   2.691  20.790  0.00  0.00    +0.000 A 
ATOM     20  C   UNL     1       2.385   2.850  21.456  0.00  0.00    +0.000 A 
ATOM     21  N   UNL     1       1.896   4.067  21.216  0.00  0.00    +0.000 NA
ENDBRANCH  14  17
ENDBRANCH   1  15
BRANCH   5  22
ATOM     22  C   UNL     1       7.782   7.923  17.778  0.00  0.00    +0.000 C 
ATOM     23  C   UNL     1       8.315   9.048  18.164  0.00  0.00    +0.000 C 
BRANCH  23  24
ATOM     24  C   UNL     1       8.901  10.282  18.587  0.00  0.00    +0.000 A 
ATOM     25  C   UNL     1       9.619  10.369  19.768  0.00  0.00    +0.000 A 
ATOM     26  C   UNL     1      10.134  11.611  20.135  0.00  0.00    +0.000 A 
ATOM     27  C   UNL     1       9.908  12.727  19.323  0.00  0.00    +0.000 A 
ATOM     28  C   UNL     1       9.203  12.518  18.141  0.00  0.00    +0.000 A 
ATOM     29  N   UNL     1       8.686  11.326  17.759  0.00  0.00    +0.000 NA
BRANCH  27  30
ATOM     30  C   UNL     1      10.451  14.085  19.656  0.00  0.00    +0.000 C 
BRANCH  30  31
ATOM     31  O   UNL     1      11.430  14.499  18.711  0.00  0.00    +0.000 OA
ATOM     32  H   UNL     1      11.672  15.413  18.936  0.00  0.00    +0.000 HD
ENDBRANCH  30  31
ENDBRANCH  27  30
ENDBRANCH  23  24
ENDBRANCH   5  22
TORSDOF 6
ENDMDL
MODEL 2
REMARK VINA RESULT:      -8.7      3.606      9.700
REMARK  Name = 
REMARK  8 active torsions:
REMARK  status: ('A' for Active; 'I' for Inactive)
REMARK    1  A    between atoms: C_1  and  C_2
REMARK    2  A    between atoms: C_5  and  N_6
REMARK    3  A    between atoms: C_11  and  C_12
REMARK    4  A    between atoms: C_16  and  C_17
REMARK    5  A    between atoms: C_18  and  C_19
REMARK    6  A    between atoms: C_22  and  C_23
REMARK    7  A    between atoms: C_23  and  O_24
REMARK    8  A    between atoms: C_29  and  C_30
REMARK                            x       y       z     vdW  Elec       q    Type
REMARK                         _______ _______ _______ _____ _____    ______ ____
ROOT
ATOM      1  C   UNL     1       9.543  14.507  20.750  0.00  0.00    +0.000 C 
ATOM      2  O   UNL     1      10.016  15.623  20.962  0.00  0.00    +0.000 OA
ATOM      3  N   UNL     1      10.090  13.574  19.833  0.00  0.00    +0.000 N 
ATOM      4  C   UNL     1       9.460  12.265  19.629  0.00  0.00    +0.000 C 
ATOM      5  C   UNL     1       9.612  11.723  18.234  0.00  0.00    +0.000 C 
ATOM      6  C   UNL     1      11.077  11.667  17.823  0.00  0.00    +0.000 C 
ATOM      7  C   UNL     1      11.704  13.052  17.985  0.00  0.00    +0.000 C 
ATOM      8  C   UNL     1      11.516  13.629  19.409  0.00  0.00    +0.000 C 
ATOM      9  C   UNL     1      12.232  14.982  19.460  0.00  0.00    +0.000 C 
ENDROOT
BRANCH   1  15
ATOM     10  C   UNL     1       8.118  11.847  24.661  0.00  0.00    +0.000 C 
ATOM     11  C   UNL     1       7.722  12.868  23.636  0.00  0.00    +0.000 A 
ATOM     12  C   UNL     1       6.407  13.279  23.455  0.00  0.00    +0.000 A 
ATOM     13  C   UNL     1       6.088  14.146  22.408  0.00  0.00    +0.000 A 
ATOM     14  C   UNL     1       7.059  14.531  21.454  0.00  0.00    +0.000 A 
ATOM     15  C   UNL     1       8.386  14.103  21.618  0.00  0.00    +0.000 A 
ATOM     16  C   UNL     1       8.699  13.373  22.779  0.00  0.00    +0.000 A 
BRANCH  14  17
ATOM     17  N   UNL     1       6.636  15.350  20.381  0.00  0.00    +0.000 N 
ATOM     18  N   UNL     1       6.257  14.869  19.167  0.00  0.00    +0.000 NA
ATOM     19  C   UNL     1       6.015  15.997  18.487  0.00  0.00    +0.000 A 
ATOM     20  C   UNL     1       6.150  17.102  19.330  0.00  0.00    +0.000 A 
ATOM     21  N   UNL     1       6.436  16.693  20.566  0.00  0.00    +0.000 NA
ENDBRANCH  14  17
ENDBRANCH   1  15
BRANCH   5  22
ATOM     22  C   UNL     1       8.953  10.357  18.138  0.00  0.00    +0.000 C 
ATOM     23  C   UNL     1       8.387   9.185  18.055  0.00  0.00    +0.000 C 
BRANCH  23  24
ATOM     24  C   UNL     1       7.767   7.901  17.966  0.00  0.00    +0.000 A 
ATOM     25  C   UNL     1       8.192   6.841  18.752  0.00  0.00    +0.000 A 
ATOM     26  C   UNL     1       7.564   5.607  18.589  0.00  0.00    +0.000 A 
ATOM     27  C   UNL     1       6.543   5.465  17.643  0.00  0.00    +0.000 A 
ATOM     28  C   UNL     1       6.173   6.604  16.934  0.00  0.00    +0.000 A 
ATOM     29  N   UNL     1       6.766   7.813  17.066  0.00  0.00    +0.000 NA
BRANCH  27  30
ATOM     30  C   UNL     1       5.818   4.167  17.435  0.00  0.00    +0.000 C 
BRANCH  30  31
ATOM     31  O   UNL     1       5.582   3.501  18.669  0.00  0.00    +0.000 OA
ATOM     32  H   UNL     1       6.311   2.870  18.794  0.00  0.00    +0.000 HD
ENDBRANCH  30  31
ENDBRANCH  27  30
ENDBRANCH  23  24
ENDBRANCH   5  22
TORSDOF 6
ENDMDL
MODEL 3
REMARK VINA RESULT:      -8.2      0.848      1.271
REMARK  Name = 
REMARK  8 active torsions:
REMARK  status: ('A' for Active; 'I' for Inactive)
REMARK    1  A    between atoms: C_1  and  C_2
REMARK    2  A    between atoms: C_5  and  N_6
REMARK    3  A    between atoms: C_11  and  C_12
REMARK    4  A    between atoms: C_16  and  C_17
REMARK    5  A    between atoms: C_18  and  C_19
REMARK    6  A    between atoms: C_22  and  C_23
REMARK    7  A    between atoms: C_23  and  O_24
REMARK    8  A    between atoms: C_29  and  C_30
REMARK                            x       y       z     vdW  Elec       q    Type
REMARK                         _______ _______ _______ _____ _____    ______ ____
ROOT
ATOM      1  C   UNL     1       3.794   5.088  17.202  0.00  0.00    +0.000 C 
ATOM      2  O   UNL     1       3.175   4.093  16.828  0.00  0.00    +0.000 OA
ATOM      3  N   UNL     1       5.068   5.464  16.709  0.00  0.00    +0.000 N 
ATOM      4  C   UNL     1       5.746   6.661  17.216  0.00  0.00    +0.000 C 
ATOM      5  C   UNL     1       7.247   6.556  17.228  0.00  0.00    +0.000 C 
ATOM      6  C   UNL     1       7.783   6.197  15.849  0.00  0.00    +0.000 C 
ATOM      7  C   UNL     1       7.111   4.914  15.360  0.00  0.00    +0.000 C 
ATOM      8  C   UNL     1       5.566   5.004  15.383  0.00  0.00    +0.000 C 
ATOM      9  C   UNL     1       5.016   3.691  14.821  0.00  0.00    +0.000 C 
ENDROOT
BRANCH   1  15
ATOM     10  C   UNL     1       1.940   9.612  17.909  0.00  0.00    +0.000 C 
ATOM     11  C   UNL     1       2.052   8.215  18.438  0.00  0.00    +0.000 A 
ATOM     12  C   UNL     1       1.636   7.861  19.717  0.00  0.00    +0.000 A 
ATOM     13  C   UNL     1       1.874   6.570  20.192  0.00  0.00    +0.000 A 
ATOM     14  C   UNL     1       2.629   5.640  19.441  0.00  0.00    +0.000 A 
ATOM     15  C   UNL     1       3.071   5.995  18.156  0.00  0.00    +0.000 A 
ATOM     16  C   UNL     1       2.665   7.243  17.648  0.00  0.00    +0.000 A 
BRANCH  14  17
ATOM     17  N   UNL     1       2.889   4.378  20.027  0.00  0.00    +0.000 N 
ATOM     18  N   UNL     1       1.939   3.614  20.629  0.00  0.00    +0.000 NA
ATOM     19  C   UNL     1       2.661   2.576  21.072  0.00  0.00    +0.000 A 
ATOM     20  C   UNL     1       3.983   2.693  20.638  0.00  0.00    +0.000 A 
ATOM     21  N   UNL     1       4.112   3.780  19.877  0.00  0.00    +0.000 NA
ENDBRANCH  14  17
ENDBRANCH   1  15
BRANCH   5  22
ATOM     22  C   UNL     1       7.849   7.855  17.740  0.00  0.00    +0.000 C 
ATOM     23  C   UNL     1       8.366   8.969  18.180  0.00  0.00    +0.000 C 
BRANCH  23  24
ATOM     24  C   UNL     1       8.931  10.190  18.662  0.00  0.00    +0.000 A 
ATOM     25  C   UNL     1       9.146  11.266  17.816  0.00  0.00    +0.000 A 
ATOM     26  C   UNL     1       9.731  12.414  18.347  0.00  0.00    +0.000 A 
ATOM     27  C   UNL     1      10.094  12.450  19.697  0.00  0.00    +0.000 A 
ATOM     28  C   UNL     1       9.800  11.326  20.463  0.00  0.00    +0.000 A 
ATOM     29  N   UNL     1       9.237  10.195  19.976  0.00  0.00    +0.000 NA
BRANCH  27  30
ATOM     30  C   UNL     1      10.711  13.663  20.330  0.00  0.00    +0.000 C 
BRANCH  30  31
ATOM     31  O   UNL     1      10.186  13.893  21.631  0.00  0.00    +0.000 OA
ATOM     32  H   UNL     1      10.117  14.856  21.742  0.00  0.00    +0.000 HD
ENDBRANCH  30  31
ENDBRANCH  27  30
ENDBRANCH  23  24
ENDBRANCH   5  22
TORSDOF 6
ENDMDL
MODEL 4
REMARK VINA RESULT:      -8.2      3.611      9.352
REMARK  Name = 
REMARK  8 active torsions:
REMARK  status: ('A' for Active; 'I' for Inactive)
REMARK    1  A    between atoms: C_1  and  C_2
REMARK    2  A    between atoms: C_5  and  N_6
REMARK    3  A    between atoms: C_11  and  C_12
REMARK    4  A    between atoms: C_16  and  C_17
REMARK    5  A    between atoms: C_18  and  C_19
REMARK    6  A    between atoms: C_22  and  C_23
REMARK    7  A    between atoms: C_23  and  O_24
REMARK    8  A    between atoms: C_29  and  C_30
REMARK                            x       y       z     vdW  Elec       q    Type
REMARK                         _______ _______ _______ _____ _____    ______ ____
ROOT
ATOM      1  C   UNL     1       8.774  15.253  19.407  0.00  0.00    +0.000 C 
ATOM      2  O   UNL     1       9.207  16.400  19.517  0.00  0.00    +0.000 OA
ATOM      3  N   UNL     1       9.586  14.116  19.167  0.00  0.00    +0.000 N 
ATOM      4  C   UNL     1       8.990  12.782  19.038  0.00  0.00    +0.000 C 
ATOM      5  C   UNL     1       9.733  11.867  18.102  0.00  0.00    +0.000 C 
ATOM      6  C   UNL     1      11.198  11.749  18.499  0.00  0.00    +0.000 C 
ATOM      7  C   UNL     1      11.820  13.143  18.571  0.00  0.00    +0.000 C 
ATOM      8  C   UNL     1      11.036  14.099  19.503  0.00  0.00    +0.000 C 
ATOM      9  C   UNL     1      11.785  15.433  19.535  0.00  0.00    +0.000 C 
ENDROOT
BRANCH   1  15
ATOM     10  C   UNL     1       4.252  15.334  17.420  0.00  0.00    +0.000 C 
ATOM     11  C   UNL     1       5.077  15.004  18.627  0.00  0.00    +0.000 A 
ATOM     12  C   UNL     1       4.514  14.693  19.860  0.00  0.00    +0.000 A 
ATOM     13  C   UNL     1       5.337  14.510  20.972  0.00  0.00    +0.000 A 
ATOM     14  C   UNL     1       6.730  14.740  20.900  0.00  0.00    +0.000 A 
ATOM     15  C   UNL     1       7.305  15.075  19.664  0.00  0.00    +0.000 A 
ATOM     16  C   UNL     1       6.466  15.083  18.534  0.00  0.00    +0.000 A 
BRANCH  14  17
ATOM     17  N   UNL     1       7.481  14.605  22.092  0.00  0.00    +0.000 N 
ATOM     18  N   UNL     1       7.726  15.631  22.951  0.00  0.00    +0.000 NA
ATOM     19  C   UNL     1       8.509  15.042  23.865  0.00  0.00    +0.000 A 
ATOM     20  C   UNL     1       8.620  13.677  23.592  0.00  0.00    +0.000 A 
ATOM     21  N   UNL     1       7.878  13.369  22.528  0.00  0.00    +0.000 NA
ENDBRANCH  14  17
ENDBRANCH   1  15
BRANCH   5  22
ATOM     22  C   UNL     1       9.053  10.509  18.064  0.00  0.00    +0.000 C 
ATOM     23  C   UNL     1       8.469   9.343  18.031  0.00  0.00    +0.000 C 
BRANCH  23  24
ATOM     24  C   UNL     1       7.830   8.065  17.996  0.00  0.00    +0.000 A 
ATOM     25  C   UNL     1       8.260   7.023  18.801  0.00  0.00    +0.000 A 
ATOM     26  C   UNL     1       7.610   5.795  18.691  0.00  0.00    +0.000 A 
ATOM     27  C   UNL     1       6.564   5.639  17.776  0.00  0.00    +0.000 A 
ATOM     28  C   UNL     1       6.191   6.762  17.043  0.00  0.00    +0.000 A 
ATOM     29  N   UNL     1       6.805   7.966  17.123  0.00  0.00    +0.000 NA
BRANCH  27  30
ATOM     30  C   UNL     1       5.816   4.347  17.625  0.00  0.00    +0.000 C 
BRANCH  30  31
ATOM     31  O   UNL     1       5.578   3.735  18.886  0.00  0.00    +0.000 OA
ATOM     32  H   UNL     1       5.623   2.774  18.748  0.00  0.00    +0.000 HD
ENDBRANCH  30  31
ENDBRANCH  27  30
ENDBRANCH  23  24
ENDBRANCH   5  22
TORSDOF 6
ENDMDL
MODEL 5
REMARK VINA RESULT:      -7.6      4.955      9.496
REMARK  Name = 
REMARK  8 active torsions:
REMARK  status: ('A' for Active; 'I' for Inactive)
REMARK    1  A    between atoms: C_1  and  C_2
REMARK    2  A    between atoms: C_5  and  N_6
REMARK    3  A    between atoms: C_11  and  C_12
REMARK    4  A    between atoms: C_16  and  C_17
REMARK    5  A    between atoms: C_18  and  C_19
REMARK    6  A    between atoms: C_22  and  C_23
REMARK    7  A    between atoms: C_23  and  O_24
REMARK    8  A    between atoms: C_29  and  C_30
REMARK                            x       y       z     vdW  Elec       q    Type
REMARK                         _______ _______ _______ _____ _____    ______ ____
ROOT
ATOM      1  C   UNL     1       0.480  13.194  21.430  0.00  0.00    +0.000 C 
ATOM      2  O   UNL     1       0.036  14.212  21.962  0.00  0.00    +0.000 OA
ATOM      3  N   UNL     1       0.095  11.878  21.789  0.00  0.00    +0.000 N 
ATOM      4  C   UNL     1       0.679  10.715  21.113  0.00  0.00    +0.000 C 
ATOM      5  C   UNL     1       0.804   9.498  21.988  0.00  0.00    +0.000 C 
ATOM      6  C   UNL     1      -0.536   9.124  22.605  0.00  0.00    +0.000 C 
ATOM      7  C   UNL     1      -1.104  10.328  23.356  0.00  0.00    +0.000 C 
ATOM      8  C   UNL     1      -1.199  11.594  22.469  0.00  0.00    +0.000 C 
ATOM      9  C   UNL     1      -1.831  12.705  23.312  0.00  0.00    +0.000 C 
ENDROOT
BRANCH   1  15
ATOM     10  C   UNL     1       4.742  15.161  19.894  0.00  0.00    +0.000 C 
ATOM     11  C   UNL     1       3.574  14.290  19.544  0.00  0.00    +0.000 A 
ATOM     12  C   UNL     1       3.329  13.848  18.249  0.00  0.00    +0.000 A 
ATOM     13  C   UNL     1       2.162  13.135  17.968  0.00  0.00    +0.000 A 
ATOM     14  C   UNL     1       1.164  12.945  18.952  0.00  0.00    +0.000 A 
ATOM     15  C   UNL     1       1.395  13.406  20.258  0.00  0.00    +0.000 A 
ATOM     16  C   UNL     1       2.654  13.967  20.541  0.00  0.00    +0.000 A 
BRANCH  14  17
ATOM     17  N   UNL     1      -0.022  12.278  18.565  0.00  0.00    +0.000 N 
ATOM     18  N   UNL     1      -1.228  12.893  18.441  0.00  0.00    +0.000 NA
ATOM     19  C   UNL     1      -2.030  11.866  18.127  0.00  0.00    +0.000 A 
ATOM     20  C   UNL     1      -1.275  10.702  17.969  0.00  0.00    +0.000 A 
ATOM     21  N   UNL     1       0.018  10.978  18.136  0.00  0.00    +0.000 NA
ENDBRANCH  14  17
ENDBRANCH   1  15
BRANCH   5  22
ATOM     22  C   UNL     1       1.391   8.347  21.187  0.00  0.00    +0.000 C 
ATOM     23  C   UNL     1       1.893   7.359  20.499  0.00  0.00    +0.000 C 
BRANCH  23  24
ATOM     24  C   UNL     1       2.443   6.277  19.746  0.00  0.00    +0.000 A 
ATOM     25  C   UNL     1       2.484   4.990  20.259  0.00  0.00    +0.000 A 
ATOM     26  C   UNL     1       3.064   3.989  19.482  0.00  0.00    +0.000 A 
ATOM     27  C   UNL     1       3.596   4.302  18.227  0.00  0.00    +0.000 A 
ATOM     28  C   UNL     1       3.469   5.619  17.795  0.00  0.00    +0.000 A 
ATOM     29  N   UNL     1       2.916   6.614  18.528  0.00  0.00    +0.000 NA
BRANCH  27  30
ATOM     30  C   UNL     1       4.217   3.265  17.338  0.00  0.00    +0.000 C 
BRANCH  30  31
ATOM     31  O   UNL     1       4.111   1.965  17.905  0.00  0.00    +0.000 OA
ATOM     32  H   UNL     1       4.221   1.329  17.178  0.00  0.00    +0.000 HD
ENDBRANCH  30  31
ENDBRANCH  27  30
ENDBRANCH  23  24
ENDBRANCH   5  22
TORSDOF 6
ENDMDL
MODEL 6
REMARK VINA RESULT:      -7.6      4.903      9.511
REMARK  Name = 
REMARK  8 active torsions:
REMARK  status: ('A' for Active; 'I' for Inactive)
REMARK    1  A    between atoms: C_1  and  C_2
REMARK    2  A    between atoms: C_5  and  N_6
REMARK    3  A    between atoms: C_11  and  C_12
REMARK    4  A    between atoms: C_16  and  C_17
REMARK    5  A    between atoms: C_18  and  C_19
REMARK    6  A    between atoms: C_22  and  C_23
REMARK    7  A    between atoms: C_23  and  O_24
REMARK    8  A    between atoms: C_29  and  C_30
REMARK                            x       y       z     vdW  Elec       q    Type
REMARK                         _______ _______ _______ _____ _____    ______ ____
ROOT
ATOM      1  C   UNL     1       0.458  13.110  21.419  0.00  0.00    +0.000 C 
ATOM      2  O   UNL     1       0.002  14.113  21.968  0.00  0.00    +0.000 OA
ATOM      3  N   UNL     1       0.102  11.783  21.767  0.00  0.00    +0.000 N 
ATOM      4  C   UNL     1       0.700  10.639  21.070  0.00  0.00    +0.000 C 
ATOM      5  C   UNL     1       0.859   9.414  21.930  0.00  0.00    +0.000 C 
ATOM      6  C   UNL     1      -0.467   9.008  22.557  0.00  0.00    +0.000 C 
ATOM      7  C   UNL     1      -1.049  10.192  23.328  0.00  0.00    +0.000 C 
ATOM      8  C   UNL     1      -1.178  11.466  22.458  0.00  0.00    +0.000 C 
ATOM      9  C   UNL     1      -1.821  12.555  23.321  0.00  0.00    +0.000 C 
ENDROOT
BRANCH   1  15
ATOM     10  C   UNL     1       4.671  15.164  19.861  0.00  0.00    +0.000 C 
ATOM     11  C   UNL     1       3.512  14.280  19.513  0.00  0.00    +0.000 A 
ATOM     12  C   UNL     1       3.258  13.853  18.214  0.00  0.00    +0.000 A 
ATOM     13  C   UNL     1       2.098  13.127  17.937  0.00  0.00    +0.000 A 
ATOM     14  C   UNL     1       1.116  12.907  18.930  0.00  0.00    +0.000 A 
ATOM     15  C   UNL     1       1.355  13.353  20.240  0.00  0.00    +0.000 A 
ATOM     16  C   UNL     1       2.609  13.929  20.515  0.00  0.00    +0.000 A 
BRANCH  14  17
ATOM     17  N   UNL     1      -0.065  12.228  18.547  0.00  0.00    +0.000 N 
ATOM     18  N   UNL     1      -0.098  10.920  18.179  0.00  0.00    +0.000 NA
ATOM     19  C   UNL     1      -1.388  10.759  17.854  0.00  0.00    +0.000 A 
ATOM     20  C   UNL     1      -2.102  11.926  18.134  0.00  0.00    +0.000 A 
ATOM     21  N   UNL     1      -1.288  12.830  18.681  0.00  0.00    +0.000 NA
ENDBRANCH  14  17
ENDBRANCH   1  15
BRANCH   5  22
ATOM     22  C   UNL     1       1.458   8.284  21.108  0.00  0.00    +0.000 C 
ATOM     23  C   UNL     1       1.971   7.314  20.403  0.00  0.00    +0.000 C 
BRANCH  23  24
ATOM     24  C   UNL     1       2.533   6.252  19.630  0.00  0.00    +0.000 A 
ATOM     25  C   UNL     1       2.986   6.464  18.338  0.00  0.00    +0.000 A 
ATOM     26  C   UNL     1       3.492   5.375  17.630  0.00  0.00    +0.000 A 
ATOM     27  C   UNL     1       3.519   4.110  18.225  0.00  0.00    +0.000 A 
ATOM     28  C   UNL     1       3.071   4.017  19.539  0.00  0.00    +0.000 A 
ATOM     29  N   UNL     1       2.570   5.054  20.251  0.00  0.00    +0.000 NA
BRANCH  27  30
ATOM     30  C   UNL     1       4.067   2.904  17.520  0.00  0.00    +0.000 C 
BRANCH  30  31
ATOM     31  O   UNL     1       4.014   1.749  18.349  0.00  0.00    +0.000 OA
ATOM     32  H   UNL     1       3.743   2.049  19.234  0.00  0.00    +0.000 HD
ENDBRANCH  30  31
ENDBRANCH  27  30
ENDBRANCH  23  24
ENDBRANCH   5  22
TORSDOF 6
ENDMDL
MODEL 7
REMARK VINA RESULT:      -7.4      4.092      9.588
REMARK  Name = 
REMARK  8 active torsions:
REMARK  status: ('A' for Active; 'I' for Inactive)
REMARK    1  A    between atoms: C_1  and  C_2
REMARK    2  A    between atoms: C_5  and  N_6
REMARK    3  A    between atoms: C_11  and  C_12
REMARK    4  A    between atoms: C_16  and  C_17
REMARK    5  A    between atoms: C_18  and  C_19
REMARK    6  A    between atoms: C_22  and  C_23
REMARK    7  A    between atoms: C_23  and  O_24
REMARK    8  A    between atoms: C_29  and  C_30
REMARK                            x       y       z     vdW  Elec       q    Type
REMARK                         _______ _______ _______ _____ _____    ______ ____
ROOT
ATOM      1  C   UNL     1       8.505  15.317  20.294  0.00  0.00    +0.000 C 
ATOM      2  O   UNL     1       8.738  16.519  20.415  0.00  0.00    +0.000 OA
ATOM      3  N   UNL     1       9.200  14.459  19.405  0.00  0.00    +0.000 N 
ATOM      4  C   UNL     1       8.854  13.037  19.311  0.00  0.00    +0.000 C 
ATOM      5  C   UNL     1       9.062  12.446  17.943  0.00  0.00    +0.000 C 
ATOM      6  C   UNL     1      10.487  12.669  17.459  0.00  0.00    +0.000 C 
ATOM      7  C   UNL     1      10.813  14.162  17.506  0.00  0.00    +0.000 C 
ATOM      8  C   UNL     1      10.563  14.783  18.902  0.00  0.00    +0.000 C 
ATOM      9  C   UNL     1      10.977  16.256  18.836  0.00  0.00    +0.000 C 
ENDROOT
BRANCH   1  15
ATOM     10  C   UNL     1       7.834  12.840  24.514  0.00  0.00    +0.000 C 
ATOM     11  C   UNL     1       7.185  13.612  23.405  0.00  0.00    +0.000 A 
ATOM     12  C   UNL     1       5.806  13.664  23.235  0.00  0.00    +0.000 A 
ATOM     13  C   UNL     1       5.269  14.304  22.116  0.00  0.00    +0.000 A 
ATOM     14  C   UNL     1       6.101  14.808  21.090  0.00  0.00    +0.000 A 
ATOM     15  C   UNL     1       7.495  14.740  21.244  0.00  0.00    +0.000 A 
ATOM     16  C   UNL     1       7.994  14.243  22.462  0.00  0.00    +0.000 A 
BRANCH  14  17
ATOM     17  N   UNL     1       5.475  15.373  19.954  0.00  0.00    +0.000 N 
ATOM     18  N   UNL     1       5.025  14.645  18.898  0.00  0.00    +0.000 NA
ATOM     19  C   UNL     1       4.584  15.602  18.071  0.00  0.00    +0.000 A 
ATOM     20  C   UNL     1       4.682  16.851  18.689  0.00  0.00    +0.000 A 
ATOM     21  N   UNL     1       5.144  16.703  19.931  0.00  0.00    +0.000 NA
ENDBRANCH  14  17
ENDBRANCH   1  15
BRANCH   5  22
ATOM     22  C   UNL     1       8.704  10.968  17.961  0.00  0.00    +0.000 C 
ATOM     23  C   UNL     1       8.397   9.701  17.977  0.00  0.00    +0.000 C 
BRANCH  23  24
ATOM     24  C   UNL     1       8.060   8.312  17.993  0.00  0.00    +0.000 A 
ATOM     25  C   UNL     1       8.421   7.497  19.054  0.00  0.00    +0.000 A 
ATOM     26  C   UNL     1       8.089   6.145  18.987  0.00  0.00    +0.000 A 
ATOM     27  C   UNL     1       7.420   5.646  17.865  0.00  0.00    +0.000 A 
ATOM     28  C   UNL     1       7.074   6.561  16.875  0.00  0.00    +0.000 A 
ATOM     29  N   UNL     1       7.387   7.878  16.908  0.00  0.00    +0.000 NA
BRANCH  27  30
ATOM     30  C   UNL     1       7.020   4.205  17.745  0.00  0.00    +0.000 C 
BRANCH  30  31
ATOM     31  O   UNL     1       5.659   4.075  17.352  0.00  0.00    +0.000 OA
ATOM     32  H   UNL     1       5.648   4.028  16.381  0.00  0.00    +0.000 HD
ENDBRANCH  30  31
ENDBRANCH  27  30
ENDBRANCH  23  24
ENDBRANCH   5  22
TORSDOF 6
ENDMDL
MODEL 8
REMARK VINA RESULT:      -7.2      4.638      8.916
REMARK  Name = 
REMARK  8 active torsions:
REMARK  status: ('A' for Active; 'I' for Inactive)
REMARK    1  A    between atoms: C_1  and  C_2
REMARK    2  A    between atoms: C_5  and  N_6
REMARK    3  A    between atoms: C_11  and  C_12
REMARK    4  A    between atoms: C_16  and  C_17
REMARK    5  A    between atoms: C_18  and  C_19
REMARK    6  A    between atoms: C_22  and  C_23
REMARK    7  A    between atoms: C_23  and  O_24
REMARK    8  A    between atoms: C_29  and  C_30
REMARK                            x       y       z     vdW  Elec       q    Type
REMARK                         _______ _______ _______ _____ _____    ______ ____
ROOT
ATOM      1  C   UNL     1       0.468  12.386  21.463  0.00  0.00    +0.000 C 
ATOM      2  O   UNL     1      -0.074  13.229  22.179  0.00  0.00    +0.000 OA
ATOM      3  N   UNL     1       0.263  10.989  21.586  0.00  0.00    +0.000 N 
ATOM      4  C   UNL     1       0.956  10.049  20.699  0.00  0.00    +0.000 C 
ATOM      5  C   UNL     1       1.267   8.722  21.337  0.00  0.00    +0.000 C 
ATOM      6  C   UNL     1       0.011   8.077  21.903  0.00  0.00    +0.000 C 
ATOM      7  C   UNL     1      -0.668   9.046  22.870  0.00  0.00    +0.000 C 
ATOM      8  C   UNL     1      -0.955  10.425  22.230  0.00  0.00    +0.000 C 
ATOM      9  C   UNL     1      -1.682  11.279  23.272  0.00  0.00    +0.000 C 
ENDROOT
BRANCH   1  15
ATOM     10  C   UNL     1       4.508  14.945  20.227  0.00  0.00    +0.000 C 
ATOM     11  C   UNL     1       3.376  14.092  19.741  0.00  0.00    +0.000 A 
ATOM     12  C   UNL     1       3.083  13.932  18.391  0.00  0.00    +0.000 A 
ATOM     13  C   UNL     1       1.946  13.218  18.008  0.00  0.00    +0.000 A 
ATOM     14  C   UNL     1       1.021  12.743  18.966  0.00  0.00    +0.000 A 
ATOM     15  C   UNL     1       1.299  12.918  20.331  0.00  0.00    +0.000 A 
ATOM     16  C   UNL     1       2.536  13.491  20.678  0.00  0.00    +0.000 A 
BRANCH  14  17
ATOM     17  N   UNL     1      -0.144  12.095  18.490  0.00  0.00    +0.000 N 
ATOM     18  N   UNL     1      -1.323  12.733  18.262  0.00  0.00    +0.000 NA
ATOM     19  C   UNL     1      -2.118  11.718  17.894  0.00  0.00    +0.000 A 
ATOM     20  C   UNL     1      -1.377  10.537  17.810  0.00  0.00    +0.000 A 
ATOM     21  N   UNL     1      -0.096  10.789  18.079  0.00  0.00    +0.000 NA
ENDBRANCH  14  17
ENDBRANCH   1  15
BRANCH   5  22
ATOM     22  C   UNL     1       1.955   7.816  20.328  0.00  0.00    +0.000 C 
ATOM     23  C   UNL     1       2.545   7.038  19.464  0.00  0.00    +0.000 C 
BRANCH  23  24
ATOM     24  C   UNL     1       3.192   6.186  18.517  0.00  0.00    +0.000 A 
ATOM     25  C   UNL     1       2.751   4.891  18.295  0.00  0.00    +0.000 A 
ATOM     26  C   UNL     1       3.450   4.104  17.382  0.00  0.00    +0.000 A 
ATOM     27  C   UNL     1       4.571   4.625  16.729  0.00  0.00    +0.000 A 
ATOM     28  C   UNL     1       4.905   5.949  17.000  0.00  0.00    +0.000 A 
ATOM     29  N   UNL     1       4.250   6.736  17.885  0.00  0.00    +0.000 NA
BRANCH  27  30
ATOM     30  C   UNL     1       5.353   3.833  15.722  0.00  0.00    +0.000 C 
BRANCH  30  31
ATOM     31  O   UNL     1       5.203   4.365  14.412  0.00  0.00    +0.000 OA
ATOM     32  H   UNL     1       4.282   4.669  14.334  0.00  0.00    +0.000 HD
ENDBRANCH  30  31
ENDBRANCH  27  30
ENDBRANCH  23  24
ENDBRANCH   5  22
TORSDOF 6
ENDMDL
MODEL 9
REMARK VINA RESULT:      -7.2      5.739      8.247
REMARK  Name = 
REMARK  8 active torsions:
REMARK  status: ('A' for Active; 'I' for Inactive)
REMARK    1  A    between atoms: C_1  and  C_2
REMARK    2  A    between atoms: C_5  and  N_6
REMARK    3  A    between atoms: C_11  and  C_12
REMARK    4  A    between atoms: C_16  and  C_17
REMARK    5  A    between atoms: C_18  and  C_19
REMARK    6  A    between atoms: C_22  and  C_23
REMARK    7  A    between atoms: C_23  and  O_24
REMARK    8  A    between atoms: C_29  and  C_30
REMARK                            x       y       z     vdW  Elec       q    Type
REMARK                         _______ _______ _______ _____ _____    ______ ____
ROOT
ATOM      1  C   UNL     1       0.156  14.117  18.956  0.00  0.00    +0.000 C 
ATOM      2  O   UNL     1      -1.040  14.410  18.956  0.00  0.00    +0.000 OA
ATOM      3  N   UNL     1       1.194  15.017  18.611  0.00  0.00    +0.000 N 
ATOM      4  C   UNL     1       2.596  14.587  18.624  0.00  0.00    +0.000 C 
ATOM      5  C   UNL     1       3.458  15.274  17.600  0.00  0.00    +0.000 C 
ATOM      6  C   UNL     1       3.376  16.787  17.740  0.00  0.00    +0.000 C 
ATOM      7  C   UNL     1       1.913  17.227  17.664  0.00  0.00    +0.000 C 
ATOM      8  C   UNL     1       1.016  16.494  18.690  0.00  0.00    +0.000 C 
ATOM      9  C   UNL     1      -0.401  17.057  18.555  0.00  0.00    +0.000 C 
ENDROOT
BRANCH   1  15
ATOM     10  C   UNL     1       1.749   9.599  17.753  0.00  0.00    +0.000 C 
ATOM     11  C   UNL     1       1.407  10.545  18.864  0.00  0.00    +0.000 A 
ATOM     12  C   UNL     1       1.309  10.141  20.191  0.00  0.00    +0.000 A 
ATOM     13  C   UNL     1       0.874  11.045  21.161  0.00  0.00    +0.000 A 
ATOM     14  C   UNL     1       0.425  12.339  20.809  0.00  0.00    +0.000 A 
ATOM     15  C   UNL     1       0.501  12.748  19.468  0.00  0.00    +0.000 A 
ATOM     16  C   UNL     1       1.103  11.869  18.550  0.00  0.00    +0.000 A 
BRANCH  14  17
ATOM     17  N   UNL     1      -0.071  13.166  21.844  0.00  0.00    +0.000 N 
ATOM     18  N   UNL     1      -1.119  12.830  22.644  0.00  0.00    +0.000 NA
ATOM     19  C   UNL     1      -1.250  13.928  23.401  0.00  0.00    +0.000 A 
ATOM     20  C   UNL     1      -0.226  14.833  23.112  0.00  0.00    +0.000 A 
ATOM     21  N   UNL     1       0.594  14.309  22.201  0.00  0.00    +0.000 NA
ENDBRANCH  14  17
ENDBRANCH   1  15
BRANCH   5  22
ATOM     22  C   UNL     1       4.891  14.780  17.718  0.00  0.00    +0.000 C 
ATOM     23  C   UNL     1       6.120  14.355  17.820  0.00  0.00    +0.000 C 
BRANCH  23  24
ATOM     24  C   UNL     1       7.466  13.890  17.932  0.00  0.00    +0.000 A 
ATOM     25  C   UNL     1       7.845  12.656  17.429  0.00  0.00    +0.000 A 
ATOM     26  C   UNL     1       9.168  12.252  17.603  0.00  0.00    +0.000 A 
ATOM     27  C   UNL     1      10.066  13.082  18.282  0.00  0.00    +0.000 A 
ATOM     28  C   UNL     1       9.587  14.315  18.714  0.00  0.00    +0.000 A 
ATOM     29  N   UNL     1       8.308  14.734  18.565  0.00  0.00    +0.000 NA
BRANCH  27  30
ATOM     30  C   UNL     1      11.505  12.709  18.485  0.00  0.00    +0.000 C 
BRANCH  30  31
ATOM     31  O   UNL     1      12.134  12.376  17.254  0.00  0.00    +0.000 OA
ATOM     32  H   UNL     1      12.885  12.984  17.146  0.00  0.00    +0.000 HD
ENDBRANCH  30  31
ENDBRANCH  27  30
ENDBRANCH  23  24
ENDBRANCH   5  22
TORSDOF 6
ENDMDL
