MODEL 1
REMARK VINA RESULT:      -9.0      0.000      0.000
REMARK  Name = 
REMARK  11 active torsions:
REMARK  status: ('A' for Active; 'I' for Inactive)
REMARK    1  A    between atoms: C_1  and  O_2
REMARK    2  A    between atoms: O_2  and  C_3
REMARK    3  A    between atoms: C_3  and  C_5
REMARK    4  A    between atoms: C_10  and  N_11
REMARK    5  A    between atoms: C_12  and  C_14
REMARK    6  A    between atoms: C_14  and  N_15
REMARK    7  A    between atoms: C_14  and  C_31
REMARK    8  A    between atoms: C_16  and  C_18
REMARK    9  A    between atoms: N_29  and  C_30
REMARK   10  A    between atoms: C_31  and  C_32
REMARK   11  A    between atoms: C_31  and  O_33
REMARK                            x       y       z     vdW  Elec       q    Type
REMARK                         _______ _______ _______ _____ _____    ______ ____
ROOT
ATOM      1  C   UNL     1       2.842   5.035  20.042  0.00  0.00    +0.000 C 
ENDROOT
BRANCH   1   3
ATOM      2  N   UNL     1       4.684   5.093  18.356  0.00  0.00    +0.000 N 
ATOM      3  C   UNL     1       3.319   4.916  18.574  0.00  0.00    +0.000 C 
ATOM      4  O   UNL     1       2.511   4.609  17.697  0.00  0.00    +0.000 OA
ATOM      5  H   UNL     1       5.280   5.223  19.177  0.00  0.00    +0.000 HD
BRANCH   2  11
ATOM      6  C   UNL     1       6.562   5.604  16.789  0.00  0.00    +0.000 A 
ATOM      7  C   UNL     1       7.202   5.349  15.549  0.00  0.00    +0.000 A 
ATOM      8  C   UNL     1       6.664   4.470  14.614  0.00  0.00    +0.000 A 
ATOM      9  C   UNL     1       5.462   3.851  14.890  0.00  0.00    +0.000 A 
ATOM     10  C   UNL     1       4.813   4.099  16.103  0.00  0.00    +0.000 A 
ATOM     11  C   UNL     1       5.351   4.943  17.096  0.00  0.00    +0.000 A 
BRANCH   6  12
ATOM     12  C   UNL     1       7.309   6.555  17.663  0.00  0.00    +0.000 C 
ATOM     13  O   UNL     1       7.567   6.318  18.834  0.00  0.00    +0.000 OA
BRANCH  12  15
ATOM     14  C   UNL     1       8.092   8.729  17.918  0.00  0.00    +0.000 C 
ATOM     15  O   UNL     1       7.655   7.697  17.022  0.00  0.00    +0.000 OA
ENDBRANCH  12  15
ENDBRANCH   6  12
ENDBRANCH   2  11
ENDBRANCH   1   3
BRANCH   1  16
ATOM     16  N   UNL     1       2.051   6.264  20.218  0.00  0.00    +0.000 N 
ATOM     17  C   UNL     1       2.310   7.439  19.558  0.00  0.00    +0.000 C 
ATOM     18  O   UNL     1       3.203   7.549  18.726  0.00  0.00    +0.000 OA
ATOM     19  H   UNL     1       1.317   6.272  20.926  0.00  0.00    +0.000 HD
BRANCH  17  20
ATOM     20  C   UNL     1       1.420   8.590  19.894  0.00  0.00    +0.000 A 
ATOM     21  C   UNL     1       0.873   9.361  18.876  0.00  0.00    +0.000 A 
ATOM     22  N   UNL     1       0.001  10.381  19.111  0.00  0.00    +0.000 NA
ATOM     23  C   UNL     1      -0.317  10.616  20.411  0.00  0.00    +0.000 A 
ATOM     24  C   UNL     1       0.259   9.842  21.422  0.00  0.00    +0.000 A 
ATOM     25  N   UNL     1       1.137   8.818  21.203  0.00  0.00    +0.000 NA
ATOM     26  C   UNL     1      -0.125  10.139  22.815  0.00  0.00    +0.000 A 
ATOM     27  O   UNL     1       0.329   9.516  23.769  0.00  0.00    +0.000 OA
ATOM     28  N   UNL     1      -1.031  11.157  22.992  0.00  0.00    +0.000 N 
ATOM     29  C   UNL     1      -1.627  11.909  22.016  0.00  0.00    +0.000 A 
ATOM     30  O   UNL     1      -2.445  12.769  22.332  0.00  0.00    +0.000 OA
ATOM     31  N   UNL     1      -1.253  11.632  20.719  0.00  0.00    +0.000 N 
ATOM     32  C   UNL     1      -1.842  12.371  19.615  0.00  0.00    +0.000 C 
ATOM     33  H   UNL     1      -1.311  11.359  23.942  0.00  0.00    +0.000 HD
ENDBRANCH  17  20
ENDBRANCH   1  16
BRANCH   1  34
ATOM     34  C   UNL     1       1.982   3.797  20.433  0.00  0.00    +0.000 C 
ATOM     35  C   UNL     1       2.185   3.297  21.866  0.00  0.00    +0.000 C 
BRANCH  34  36
ATOM     36  O   UNL     1       0.585   4.106  20.281  0.00  0.00    +0.000 OA
ATOM     37  H   UNL     1       0.507   5.061  20.110  0.00  0.00    +0.000 HD
ENDBRANCH  34  36
ENDBRANCH   1  34
TORSDOF 8
ENDMDL
MODEL 2
REMARK VINA RESULT:      -8.9      1.522      1.833
REMARK  Name = 
REMARK  11 active torsions:
REMARK  status: ('A' for Active; 'I' for Inactive)
REMARK    1  A    between atoms: C_1  and  O_2
REMARK    2  A    between atoms: O_2  and  C_3
REMARK    3  A    between atoms: C_3  and  C_5
REMARK    4  A    between atoms: C_10  and  N_11
REMARK    5  A    between atoms: C_12  and  C_14
REMARK    6  A    between atoms: C_14  and  N_15
REMARK    7  A    between atoms: C_14  and  C_31
REMARK    8  A    between atoms: C_16  and  C_18
REMARK    9  A    between atoms: N_29  and  C_30
REMARK   10  A    between atoms: C_31  and  C_32
REMARK   11  A    between atoms: C_31  and  O_33
REMARK                            x       y       z     vdW  Elec       q    Type
REMARK                         _______ _______ _______ _____ _____    ______ ____
ROOT
ATOM      1  C   UNL     1       3.046   4.103  18.808  0.00  0.00    +0.000 C 
ENDROOT
BRANCH   1   3
ATOM      2  N   UNL     1       4.123   4.502  16.590  0.00  0.00    +0.000 N 
ATOM      3  C   UNL     1       4.290   4.028  17.890  0.00  0.00    +0.000 C 
ATOM      4  O   UNL     1       5.361   3.633  18.350  0.00  0.00    +0.000 OA
ATOM      5  H   UNL     1       3.220   4.921  16.353  0.00  0.00    +0.000 HD
BRANCH   2  11
ATOM      6  C   UNL     1       6.195   5.564  15.681  0.00  0.00    +0.000 A 
ATOM      7  C   UNL     1       7.226   5.557  14.706  0.00  0.00    +0.000 A 
ATOM      8  C   UNL     1       7.242   4.637  13.662  0.00  0.00    +0.000 A 
ATOM      9  C   UNL     1       6.212   3.724  13.558  0.00  0.00    +0.000 A 
ATOM     10  C   UNL     1       5.184   3.722  14.504  0.00  0.00    +0.000 A 
ATOM     11  C   UNL     1       5.158   4.605  15.603  0.00  0.00    +0.000 A 
BRANCH   6  12
ATOM     12  C   UNL     1       6.371   6.608  16.731  0.00  0.00    +0.000 C 
ATOM     13  O   UNL     1       5.441   7.057  17.384  0.00  0.00    +0.000 OA
BRANCH  12  15
ATOM     14  C   UNL     1       7.804   8.147  17.722  0.00  0.00    +0.000 C 
ATOM     15  O   UNL     1       7.660   7.003  16.868  0.00  0.00    +0.000 OA
ENDBRANCH  12  15
ENDBRANCH   6  12
ENDBRANCH   2  11
ENDBRANCH   1   3
BRANCH   1  16
ATOM     16  N   UNL     1       2.640   5.505  18.996  0.00  0.00    +0.000 N 
ATOM     17  C   UNL     1       2.149   6.004  20.176  0.00  0.00    +0.000 C 
ATOM     18  O   UNL     1       2.050   5.326  21.193  0.00  0.00    +0.000 OA
ATOM     19  H   UNL     1       2.648   6.126  18.188  0.00  0.00    +0.000 HD
BRANCH  17  20
ATOM     20  C   UNL     1       1.756   7.445  20.165  0.00  0.00    +0.000 A 
ATOM     21  C   UNL     1       1.917   8.196  19.009  0.00  0.00    +0.000 A 
ATOM     22  N   UNL     1       1.517   9.495  18.911  0.00  0.00    +0.000 NA
ATOM     23  C   UNL     1       0.941  10.033  20.018  0.00  0.00    +0.000 A 
ATOM     24  C   UNL     1       0.806   9.267  21.178  0.00  0.00    +0.000 A 
ATOM     25  N   UNL     1       1.205   7.965  21.293  0.00  0.00    +0.000 NA
ATOM     26  C   UNL     1       0.171   9.903  22.349  0.00  0.00    +0.000 A 
ATOM     27  O   UNL     1       0.010   9.312  23.411  0.00  0.00    +0.000 OA
ATOM     28  N   UNL     1      -0.242  11.203  22.185  0.00  0.00    +0.000 N 
ATOM     29  C   UNL     1      -0.144  11.962  21.051  0.00  0.00    +0.000 A 
ATOM     30  O   UNL     1      -0.589  13.108  21.050  0.00  0.00    +0.000 OA
ATOM     31  N   UNL     1       0.462  11.364  19.967  0.00  0.00    +0.000 N 
ATOM     32  C   UNL     1       0.600  12.089  18.714  0.00  0.00    +0.000 C 
ATOM     33  H   UNL     1      -0.691  11.643  22.976  0.00  0.00    +0.000 HD
ENDBRANCH  17  20
ENDBRANCH   1  16
BRANCH   1  34
ATOM     34  C   UNL     1       1.869   3.293  18.189  0.00  0.00    +0.000 C 
ATOM     35  C   UNL     1       0.888   2.699  19.204  0.00  0.00    +0.000 C 
BRANCH  34  36
ATOM     36  O   UNL     1       1.111   4.137  17.302  0.00  0.00    +0.000 OA
ATOM     37  H   UNL     1       1.732   4.547  16.676  0.00  0.00    +0.000 HD
ENDBRANCH  34  36
ENDBRANCH   1  34
TORSDOF 8
ENDMDL
MODEL 3
REMARK VINA RESULT:      -8.9      1.938      2.782
REMARK  Name = 
REMARK  11 active torsions:
REMARK  status: ('A' for Active; 'I' for Inactive)
REMARK    1  A    between atoms: C_1  and  O_2
REMARK    2  A    between atoms: O_2  and  C_3
REMARK    3  A    between atoms: C_3  and  C_5
REMARK    4  A    between atoms: C_10  and  N_11
REMARK    5  A    between atoms: C_12  and  C_14
REMARK    6  A    between atoms: C_14  and  N_15
REMARK    7  A    between atoms: C_14  and  C_31
REMARK    8  A    between atoms: C_16  and  C_18
REMARK    9  A    between atoms: N_29  and  C_30
REMARK   10  A    between atoms: C_31  and  C_32
REMARK   11  A    between atoms: C_31  and  O_33
REMARK                            x       y       z     vdW  Elec       q    Type
REMARK                         _______ _______ _______ _____ _____    ______ ____
ROOT
ATOM      1  C   UNL     1       3.151   3.899  18.949  0.00  0.00    +0.000 C 
ENDROOT
BRANCH   1   3
ATOM      2  N   UNL     1       4.175   4.372  16.721  0.00  0.00    +0.000 N 
ATOM      3  C   UNL     1       4.394   3.937  18.027  0.00  0.00    +0.000 C 
ATOM      4  O   UNL     1       5.500   3.657  18.488  0.00  0.00    +0.000 OA
ATOM      5  H   UNL     1       3.234   4.695  16.483  0.00  0.00    +0.000 HD
BRANCH   2  11
ATOM      6  C   UNL     1       6.124   5.626  15.786  0.00  0.00    +0.000 A 
ATOM      7  C   UNL     1       7.148   5.709  14.806  0.00  0.00    +0.000 A 
ATOM      8  C   UNL     1       7.256   4.777  13.778  0.00  0.00    +0.000 A 
ATOM      9  C   UNL     1       6.325   3.761  13.693  0.00  0.00    +0.000 A 
ATOM     10  C   UNL     1       5.305   3.670  14.644  0.00  0.00    +0.000 A 
ATOM     11  C   UNL     1       5.192   4.564  15.728  0.00  0.00    +0.000 A 
BRANCH   6  12
ATOM     12  C   UNL     1       6.194   6.701  16.817  0.00  0.00    +0.000 C 
ATOM     13  O   UNL     1       5.203   7.180  17.346  0.00  0.00    +0.000 OA
BRANCH  12  15
ATOM     14  C   UNL     1       7.885   6.727  18.412  0.00  0.00    +0.000 C 
ATOM     15  O   UNL     1       7.465   7.086  17.088  0.00  0.00    +0.000 OA
ENDBRANCH  12  15
ENDBRANCH   6  12
ENDBRANCH   2  11
ENDBRANCH   1   3
BRANCH   1  16
ATOM     16  N   UNL     1       2.628   5.261  19.149  0.00  0.00    +0.000 N 
ATOM     17  C   UNL     1       2.163   5.730  20.352  0.00  0.00    +0.000 C 
ATOM     18  O   UNL     1       2.187   5.061  21.379  0.00  0.00    +0.000 OA
ATOM     19  H   UNL     1       2.530   5.868  18.336  0.00  0.00    +0.000 HD
BRANCH  17  20
ATOM     20  C   UNL     1       1.638   7.128  20.351  0.00  0.00    +0.000 A 
ATOM     21  C   UNL     1       0.959   7.611  21.462  0.00  0.00    +0.000 A 
ATOM     22  N   UNL     1       0.514   8.896  21.553  0.00  0.00    +0.000 NA
ATOM     23  C   UNL     1       0.769   9.699  20.487  0.00  0.00    +0.000 A 
ATOM     24  C   UNL     1       1.436   9.189  19.371  0.00  0.00    +0.000 A 
ATOM     25  N   UNL     1       1.885   7.903  19.264  0.00  0.00    +0.000 NA
ATOM     26  C   UNL     1       1.688  10.107  18.244  0.00  0.00    +0.000 A 
ATOM     27  O   UNL     1       2.264   9.751  17.222  0.00  0.00    +0.000 OA
ATOM     28  N   UNL     1       1.246  11.399  18.402  0.00  0.00    +0.000 N 
ATOM     29  C   UNL     1       0.616  11.926  19.496  0.00  0.00    +0.000 A 
ATOM     30  O   UNL     1       0.305  13.115  19.500  0.00  0.00    +0.000 OA
ATOM     31  N   UNL     1       0.373  11.057  20.538  0.00  0.00    +0.000 N 
ATOM     32  C   UNL     1      -0.280  11.531  21.747  0.00  0.00    +0.000 C 
ATOM     33  H   UNL     1       1.427  12.039  17.642  0.00  0.00    +0.000 HD
ENDBRANCH  17  20
ENDBRANCH   1  16
BRANCH   1  34
ATOM     34  C   UNL     1       2.044   2.997  18.329  0.00  0.00    +0.000 C 
ATOM     35  C   UNL     1       1.084   2.365  19.339  0.00  0.00    +0.000 C 
BRANCH  34  36
ATOM     36  O   UNL     1       1.251   3.764  17.405  0.00  0.00    +0.000 OA
ATOM     37  H   UNL     1       0.392   3.943  17.825  0.00  0.00    +0.000 HD
ENDBRANCH  34  36
ENDBRANCH   1  34
TORSDOF 8
ENDMDL
MODEL 4
REMARK VINA RESULT:      -8.7      2.933      9.262
REMARK  Name = 
REMARK  11 active torsions:
REMARK  status: ('A' for Active; 'I' for Inactive)
REMARK    1  A    between atoms: C_1  and  O_2
REMARK    2  A    between atoms: O_2  and  C_3
REMARK    3  A    between atoms: C_3  and  C_5
REMARK    4  A    between atoms: C_10  and  N_11
REMARK    5  A    between atoms: C_12  and  C_14
REMARK    6  A    between atoms: C_14  and  N_15
REMARK    7  A    between atoms: C_14  and  C_31
REMARK    8  A    between atoms: C_16  and  C_18
REMARK    9  A    between atoms: N_29  and  C_30
REMARK   10  A    between atoms: C_31  and  C_32
REMARK   11  A    between atoms: C_31  and  O_33
REMARK                            x       y       z     vdW  Elec       q    Type
REMARK                         _______ _______ _______ _____ _____    ______ ____
ROOT
ATOM      1  C   UNL     1       0.964  10.830  19.861  0.00  0.00    +0.000 C 
ENDROOT
BRANCH   1   3
ATOM      2  N   UNL     1      -1.254  11.600  19.009  0.00  0.00    +0.000 N 
ATOM      3  C   UNL     1      -0.574  10.915  20.014  0.00  0.00    +0.000 C 
ATOM      4  O   UNL     1      -1.124  10.333  20.949  0.00  0.00    +0.000 OA
ATOM      5  H   UNL     1      -0.705  11.939  18.215  0.00  0.00    +0.000 HD
BRANCH   2  11
ATOM      6  C   UNL     1      -3.437  11.050  17.924  0.00  0.00    +0.000 A 
ATOM      7  C   UNL     1      -4.851  11.167  17.931  0.00  0.00    +0.000 A 
ATOM      8  C   UNL     1      -5.518  11.942  18.875  0.00  0.00    +0.000 A 
ATOM      9  C   UNL     1      -4.781  12.638  19.812  0.00  0.00    +0.000 A 
ATOM     10  C   UNL     1      -3.387  12.542  19.813  0.00  0.00    +0.000 A 
ATOM     11  C   UNL     1      -2.678  11.728  18.906  0.00  0.00    +0.000 A 
BRANCH   6  12
ATOM     12  C   UNL     1      -2.916  10.153  16.852  0.00  0.00    +0.000 C 
ATOM     13  O   UNL     1      -1.817   9.622  16.905  0.00  0.00    +0.000 OA
BRANCH  12  15
ATOM     14  C   UNL     1      -3.194  10.293  14.548  0.00  0.00    +0.000 C 
ATOM     15  O   UNL     1      -3.785  10.005  15.823  0.00  0.00    +0.000 OA
ENDBRANCH  12  15
ENDBRANCH   6  12
ENDBRANCH   2  11
ENDBRANCH   1   3
BRANCH   1  16
ATOM     16  N   UNL     1       1.357   9.471  19.452  0.00  0.00    +0.000 N 
ATOM     17  C   UNL     1       1.668   8.469  20.336  0.00  0.00    +0.000 C 
ATOM     18  O   UNL     1       1.601   8.612  21.551  0.00  0.00    +0.000 OA
ATOM     19  H   UNL     1       1.482   9.280  18.458  0.00  0.00    +0.000 HD
BRANCH  17  20
ATOM     20  C   UNL     1       2.079   7.167  19.732  0.00  0.00    +0.000 A 
ATOM     21  C   UNL     1       2.680   7.145  18.480  0.00  0.00    +0.000 A 
ATOM     22  N   UNL     1       3.139   5.999  17.902  0.00  0.00    +0.000 NA
ATOM     23  C   UNL     1       2.981   4.856  18.620  0.00  0.00    +0.000 A 
ATOM     24  C   UNL     1       2.357   4.896  19.869  0.00  0.00    +0.000 A 
ATOM     25  N   UNL     1       1.888   6.036  20.460  0.00  0.00    +0.000 NA
ATOM     26  C   UNL     1       2.215   3.626  20.605  0.00  0.00    +0.000 A 
ATOM     27  O   UNL     1       1.680   3.560  21.706  0.00  0.00    +0.000 OA
ATOM     28  N   UNL     1       2.723   2.507  19.990  0.00  0.00    +0.000 N 
ATOM     29  C   UNL     1       3.362   2.449  18.781  0.00  0.00    +0.000 A 
ATOM     30  O   UNL     1       3.790   1.372  18.375  0.00  0.00    +0.000 OA
ATOM     31  N   UNL     1       3.478   3.639  18.096  0.00  0.00    +0.000 N 
ATOM     32  C   UNL     1       4.153   3.678  16.808  0.00  0.00    +0.000 C 
ATOM     33  H   UNL     1       2.643   1.634  20.493  0.00  0.00    +0.000 HD
ENDBRANCH  17  20
ENDBRANCH   1  16
BRANCH   1  34
ATOM     34  C   UNL     1       1.460  11.861  18.804  0.00  0.00    +0.000 C 
ATOM     35  C   UNL     1       2.299  13.010  19.367  0.00  0.00    +0.000 C 
BRANCH  34  36
ATOM     36  O   UNL     1       2.259  11.193  17.810  0.00  0.00    +0.000 OA
ATOM     37  H   UNL     1       2.971  11.799  17.542  0.00  0.00    +0.000 HD
ENDBRANCH  34  36
ENDBRANCH   1  34
TORSDOF 8
ENDMDL
MODEL 5
REMARK VINA RESULT:      -8.6      2.984      5.321
REMARK  Name = 
REMARK  11 active torsions:
REMARK  status: ('A' for Active; 'I' for Inactive)
REMARK    1  A    between atoms: C_1  and  O_2
REMARK    2  A    between atoms: O_2  and  C_3
REMARK    3  A    between atoms: C_3  and  C_5
REMARK    4  A    between atoms: C_10  and  N_11
REMARK    5  A    between atoms: C_12  and  C_14
REMARK    6  A    between atoms: C_14  and  N_15
REMARK    7  A    between atoms: C_14  and  C_31
REMARK    8  A    between atoms: C_16  and  C_18
REMARK    9  A    between atoms: N_29  and  C_30
REMARK   10  A    between atoms: C_31  and  C_32
REMARK   11  A    between atoms: C_31  and  O_33
REMARK                            x       y       z     vdW  Elec       q    Type
REMARK                         _______ _______ _______ _____ _____    ______ ____
ROOT
ATOM      1  C   UNL     1       1.450   9.239  20.093  0.00  0.00    +0.000 C 
ENDROOT
BRANCH   1   3
ATOM      2  N   UNL     1       2.750   7.252  19.316  0.00  0.00    +0.000 N 
ATOM      3  C   UNL     1       1.945   8.327  18.944  0.00  0.00    +0.000 C 
ATOM      4  O   UNL     1       1.563   8.541  17.794  0.00  0.00    +0.000 OA
ATOM      5  H   UNL     1       2.903   7.102  20.317  0.00  0.00    +0.000 HD
BRANCH   2  11
ATOM      6  C   UNL     1       2.740   4.919  18.422  0.00  0.00    +0.000 A 
ATOM      7  C   UNL     1       3.230   3.991  17.467  0.00  0.00    +0.000 A 
ATOM      8  C   UNL     1       4.207   4.341  16.539  0.00  0.00    +0.000 A 
ATOM      9  C   UNL     1       4.733   5.616  16.568  0.00  0.00    +0.000 A 
ATOM     10  C   UNL     1       4.269   6.540  17.509  0.00  0.00    +0.000 A 
ATOM     11  C   UNL     1       3.246   6.240  18.431  0.00  0.00    +0.000 A 
BRANCH   6  12
ATOM     12  C   UNL     1       1.678   4.361  19.309  0.00  0.00    +0.000 C 
ATOM     13  O   UNL     1       0.825   3.581  18.914  0.00  0.00    +0.000 OA
BRANCH  12  15
ATOM     14  C   UNL     1       2.227   3.822  21.502  0.00  0.00    +0.000 C 
ATOM     15  O   UNL     1       1.763   4.819  20.581  0.00  0.00    +0.000 OA
ENDBRANCH  12  15
ENDBRANCH   6  12
ENDBRANCH   2  11
ENDBRANCH   1   3
BRANCH   1  16
ATOM     16  N   UNL     1       0.116   9.773  19.777  0.00  0.00    +0.000 N 
ATOM     17  C   UNL     1      -0.208  11.104  19.844  0.00  0.00    +0.000 C 
ATOM     18  O   UNL     1       0.608  11.972  20.133  0.00  0.00    +0.000 OA
ATOM     19  H   UNL     1      -0.635   9.114  19.572  0.00  0.00    +0.000 HD
BRANCH  17  20
ATOM     20  C   UNL     1      -1.624  11.452  19.520  0.00  0.00    +0.000 A 
ATOM     21  C   UNL     1      -2.347  12.274  20.374  0.00  0.00    +0.000 A 
ATOM     22  N   UNL     1      -3.618  12.683  20.104  0.00  0.00    +0.000 NA
ATOM     23  C   UNL     1      -4.158  12.243  18.938  0.00  0.00    +0.000 A 
ATOM     24  C   UNL     1      -3.423  11.400  18.101  0.00  0.00    +0.000 A 
ATOM     25  N   UNL     1      -2.149  10.979  18.360  0.00  0.00    +0.000 NA
ATOM     26  C   UNL     1      -4.058  10.956  16.846  0.00  0.00    +0.000 A 
ATOM     27  O   UNL     1      -3.493  10.215  16.049  0.00  0.00    +0.000 OA
ATOM     28  N   UNL     1      -5.329  11.424  16.609  0.00  0.00    +0.000 N 
ATOM     29  C   UNL     1      -6.056  12.270  17.401  0.00  0.00    +0.000 A 
ATOM     30  O   UNL     1      -7.175  12.625  17.038  0.00  0.00    +0.000 OA
ATOM     31  N   UNL     1      -5.459  12.670  18.577  0.00  0.00    +0.000 N 
ATOM     32  C   UNL     1      -6.151  13.578  19.476  0.00  0.00    +0.000 C 
ATOM     33  H   UNL     1      -5.767  11.136  15.746  0.00  0.00    +0.000 HD
ENDBRANCH  17  20
ENDBRANCH   1  16
BRANCH   1  34
ATOM     34  C   UNL     1       1.394   8.441  21.430  0.00  0.00    +0.000 C 
ATOM     35  C   UNL     1       0.871   9.231  22.633  0.00  0.00    +0.000 C 
BRANCH  34  36
ATOM     36  O   UNL     1       0.547   7.288  21.273  0.00  0.00    +0.000 OA
ATOM     37  H   UNL     1      -0.222   7.552  20.737  0.00  0.00    +0.000 HD
ENDBRANCH  34  36
ENDBRANCH   1  34
TORSDOF 8
ENDMDL
MODEL 6
REMARK VINA RESULT:      -8.6      2.523      9.398
REMARK  Name = 
REMARK  11 active torsions:
REMARK  status: ('A' for Active; 'I' for Inactive)
REMARK    1  A    between atoms: C_1  and  O_2
REMARK    2  A    between atoms: O_2  and  C_3
REMARK    3  A    between atoms: C_3  and  C_5
REMARK    4  A    between atoms: C_10  and  N_11
REMARK    5  A    between atoms: C_12  and  C_14
REMARK    6  A    between atoms: C_14  and  N_15
REMARK    7  A    between atoms: C_14  and  C_31
REMARK    8  A    between atoms: C_16  and  C_18
REMARK    9  A    between atoms: N_29  and  C_30
REMARK   10  A    between atoms: C_31  and  C_32
REMARK   11  A    between atoms: C_31  and  O_33
REMARK                            x       y       z     vdW  Elec       q    Type
REMARK                         _______ _______ _______ _____ _____    ______ ____
ROOT
ATOM      1  C   UNL     1      -0.978  11.514  17.647  0.00  0.00    +0.000 C 
ENDROOT
BRANCH   1   3
ATOM      2  N   UNL     1      -2.141  11.919  19.820  0.00  0.00    +0.000 N 
ATOM      3  C   UNL     1      -1.295  12.442  18.845  0.00  0.00    +0.000 C 
ATOM      4  O   UNL     1      -0.748  13.543  18.921  0.00  0.00    +0.000 OA
ATOM      5  H   UNL     1      -2.440  10.946  19.713  0.00  0.00    +0.000 HD
BRANCH   2  11
ATOM      6  C   UNL     1      -1.717  12.464  22.222  0.00  0.00    +0.000 A 
ATOM      7  C   UNL     1      -2.094  13.195  23.377  0.00  0.00    +0.000 A 
ATOM      8  C   UNL     1      -3.223  14.009  23.394  0.00  0.00    +0.000 A 
ATOM      9  C   UNL     1      -4.012  14.085  22.264  0.00  0.00    +0.000 A 
ATOM     10  C   UNL     1      -3.660  13.363  21.120  0.00  0.00    +0.000 A 
ATOM     11  C   UNL     1      -2.498  12.568  21.047  0.00  0.00    +0.000 A 
BRANCH   6  12
ATOM     12  C   UNL     1      -0.464  11.673  22.396  0.00  0.00    +0.000 C 
ATOM     13  O   UNL     1       0.504  11.790  21.661  0.00  0.00    +0.000 OA
BRANCH  12  15
ATOM     14  C   UNL     1      -0.262   9.457  23.067  0.00  0.00    +0.000 C 
ATOM     15  O   UNL     1      -0.527  10.815  23.443  0.00  0.00    +0.000 OA
ENDBRANCH  12  15
ENDBRANCH   6  12
ENDBRANCH   2  11
ENDBRANCH   1   3
BRANCH   1  16
ATOM     16  N   UNL     1      -0.249  10.322  18.110  0.00  0.00    +0.000 N 
ATOM     17  C   UNL     1       1.096  10.308  18.379  0.00  0.00    +0.000 C 
ATOM     18  O   UNL     1       1.800  11.308  18.298  0.00  0.00    +0.000 OA
ATOM     19  H   UNL     1      -0.750   9.436  18.161  0.00  0.00    +0.000 HD
BRANCH  17  20
ATOM     20  C   UNL     1       1.666   8.994  18.805  0.00  0.00    +0.000 A 
ATOM     21  C   UNL     1       1.213   8.390  19.970  0.00  0.00    +0.000 A 
ATOM     22  N   UNL     1       1.641   7.162  20.379  0.00  0.00    +0.000 NA
ATOM     23  C   UNL     1       2.548   6.543  19.579  0.00  0.00    +0.000 A 
ATOM     24  C   UNL     1       3.006   7.176  18.421  0.00  0.00    +0.000 A 
ATOM     25  N   UNL     1       2.589   8.407  18.000  0.00  0.00    +0.000 NA
ATOM     26  C   UNL     1       3.989   6.455  17.590  0.00  0.00    +0.000 A 
ATOM     27  O   UNL     1       4.450   6.930  16.557  0.00  0.00    +0.000 OA
ATOM     28  N   UNL     1       4.362   5.209  18.032  0.00  0.00    +0.000 N 
ATOM     29  C   UNL     1       3.906   4.560  19.147  0.00  0.00    +0.000 A 
ATOM     30  O   UNL     1       4.314   3.428  19.396  0.00  0.00    +0.000 OA
ATOM     31  N   UNL     1       2.998   5.246  19.924  0.00  0.00    +0.000 N 
ATOM     32  C   UNL     1       2.449   4.631  21.122  0.00  0.00    +0.000 C 
ATOM     33  H   UNL     1       5.024   4.701  17.462  0.00  0.00    +0.000 HD
ENDBRANCH  17  20
ENDBRANCH   1  16
BRANCH   1  34
ATOM     34  C   UNL     1      -2.294  11.082  16.936  0.00  0.00    +0.000 C 
ATOM     35  C   UNL     1      -2.821   9.701  17.334  0.00  0.00    +0.000 C 
BRANCH  34  36
ATOM     36  O   UNL     1      -3.334  12.036  17.216  0.00  0.00    +0.000 OA
ATOM     37  H   UNL     1      -4.140  11.746  16.753  0.00  0.00    +0.000 HD
ENDBRANCH  34  36
ENDBRANCH   1  34
TORSDOF 8
ENDMDL
MODEL 7
REMARK VINA RESULT:      -8.5      1.418      1.607
REMARK  Name = 
REMARK  11 active torsions:
REMARK  status: ('A' for Active; 'I' for Inactive)
REMARK    1  A    between atoms: C_1  and  O_2
REMARK    2  A    between atoms: O_2  and  C_3
REMARK    3  A    between atoms: C_3  and  C_5
REMARK    4  A    between atoms: C_10  and  N_11
REMARK    5  A    between atoms: C_12  and  C_14
REMARK    6  A    between atoms: C_14  and  N_15
REMARK    7  A    between atoms: C_14  and  C_31
REMARK    8  A    between atoms: C_16  and  C_18
REMARK    9  A    between atoms: N_29  and  C_30
REMARK   10  A    between atoms: C_31  and  C_32
REMARK   11  A    between atoms: C_31  and  O_33
REMARK                            x       y       z     vdW  Elec       q    Type
REMARK                         _______ _______ _______ _____ _____    ______ ____
ROOT
ATOM      1  C   UNL     1       2.898   3.717  19.225  0.00  0.00    +0.000 C 
ENDROOT
BRANCH   1   3
ATOM      2  N   UNL     1       4.329   4.594  17.375  0.00  0.00    +0.000 N 
ATOM      3  C   UNL     1       3.683   3.482  17.912  0.00  0.00    +0.000 C 
ATOM      4  O   UNL     1       3.760   2.344  17.447  0.00  0.00    +0.000 OA
ATOM      5  H   UNL     1       4.296   5.463  17.914  0.00  0.00    +0.000 HD
BRANCH   2  11
ATOM      6  C   UNL     1       6.559   4.880  16.284  0.00  0.00    +0.000 A 
ATOM      7  C   UNL     1       7.349   4.780  15.109  0.00  0.00    +0.000 A 
ATOM      8  C   UNL     1       6.800   4.407  13.886  0.00  0.00    +0.000 A 
ATOM      9  C   UNL     1       5.444   4.156  13.808  0.00  0.00    +0.000 A 
ATOM     10  C   UNL     1       4.650   4.260  14.953  0.00  0.00    +0.000 A 
ATOM     11  C   UNL     1       5.177   4.585  16.219  0.00  0.00    +0.000 A 
BRANCH   6  12
ATOM     12  C   UNL     1       7.336   5.267  17.497  0.00  0.00    +0.000 C 
ATOM     13  O   UNL     1       7.396   4.569  18.498  0.00  0.00    +0.000 OA
BRANCH  12  15
ATOM     14  C   UNL     1       7.046   7.573  17.478  0.00  0.00    +0.000 C 
ATOM     15  O   UNL     1       7.952   6.466  17.365  0.00  0.00    +0.000 OA
ENDBRANCH  12  15
ENDBRANCH   6  12
ENDBRANCH   2  11
ENDBRANCH   1   3
BRANCH   1  16
ATOM     16  N   UNL     1       2.304   5.064  19.225  0.00  0.00    +0.000 N 
ATOM     17  C   UNL     1       3.015   6.210  19.476  0.00  0.00    +0.000 C 
ATOM     18  O   UNL     1       4.224   6.210  19.678  0.00  0.00    +0.000 OA
ATOM     19  H   UNL     1       1.294   5.150  19.110  0.00  0.00    +0.000 HD
BRANCH  17  20
ATOM     20  C   UNL     1       2.232   7.482  19.467  0.00  0.00    +0.000 A 
ATOM     21  C   UNL     1       1.875   8.066  18.259  0.00  0.00    +0.000 A 
ATOM     22  N   UNL     1       1.106   9.187  18.181  0.00  0.00    +0.000 NA
ATOM     23  C   UNL     1       0.694   9.720  19.361  0.00  0.00    +0.000 A 
ATOM     24  C   UNL     1       1.079   9.129  20.567  0.00  0.00    +0.000 A 
ATOM     25  N   UNL     1       1.853   8.007  20.662  0.00  0.00    +0.000 NA
ATOM     26  C   UNL     1       0.600   9.748  21.817  0.00  0.00    +0.000 A 
ATOM     27  O   UNL     1       0.887   9.303  22.923  0.00  0.00    +0.000 OA
ATOM     28  N   UNL     1      -0.199  10.858  21.679  0.00  0.00    +0.000 N 
ATOM     29  C   UNL     1      -0.610  11.437  20.509  0.00  0.00    +0.000 A 
ATOM     30  O   UNL     1      -1.352  12.415  20.547  0.00  0.00    +0.000 OA
ATOM     31  N   UNL     1      -0.147  10.859  19.347  0.00  0.00    +0.000 N 
ATOM     32  C   UNL     1      -0.541  11.397  18.055  0.00  0.00    +0.000 C 
ATOM     33  H   UNL     1      -0.543  11.281  22.529  0.00  0.00    +0.000 HD
ENDBRANCH  17  20
ENDBRANCH   1  16
BRANCH   1  34
ATOM     34  C   UNL     1       1.776   2.648  19.382  0.00  0.00    +0.000 C 
ATOM     35  C   UNL     1       0.901   2.808  20.628  0.00  0.00    +0.000 C 
BRANCH  34  36
ATOM     36  O   UNL     1       0.904   2.686  18.238  0.00  0.00    +0.000 OA
ATOM     37  H   UNL     1       0.537   1.793  18.111  0.00  0.00    +0.000 HD
ENDBRANCH  34  36
ENDBRANCH   1  34
TORSDOF 8
ENDMDL
MODEL 8
REMARK VINA RESULT:      -8.5      3.154      9.374
REMARK  Name = 
REMARK  11 active torsions:
REMARK  status: ('A' for Active; 'I' for Inactive)
REMARK    1  A    between atoms: C_1  and  O_2
REMARK    2  A    between atoms: O_2  and  C_3
REMARK    3  A    between atoms: C_3  and  C_5
REMARK    4  A    between atoms: C_10  and  N_11
REMARK    5  A    between atoms: C_12  and  C_14
REMARK    6  A    between atoms: C_14  and  N_15
REMARK    7  A    between atoms: C_14  and  C_31
REMARK    8  A    between atoms: C_16  and  C_18
REMARK    9  A    between atoms: N_29  and  C_30
REMARK   10  A    between atoms: C_31  and  C_32
REMARK   11  A    between atoms: C_31  and  O_33
REMARK                            x       y       z     vdW  Elec       q    Type
REMARK                         _______ _______ _______ _____ _____    ______ ____
ROOT
ATOM      1  C   UNL     1       0.413  12.180  19.886  0.00  0.00    +0.000 C 
ENDROOT
BRANCH   1   3
ATOM      2  N   UNL     1      -2.011  11.736  19.477  0.00  0.00    +0.000 N 
ATOM      3  C   UNL     1      -0.872  12.422  19.058  0.00  0.00    +0.000 C 
ATOM      4  O   UNL     1      -0.855  13.237  18.136  0.00  0.00    +0.000 OA
ATOM      5  H   UNL     1      -1.938  11.178  20.331  0.00  0.00    +0.000 HD
BRANCH   2  11
ATOM      6  C   UNL     1      -3.659  11.368  17.635  0.00  0.00    +0.000 A 
ATOM      7  C   UNL     1      -4.996  11.480  17.173  0.00  0.00    +0.000 A 
ATOM      8  C   UNL     1      -5.988  12.087  17.936  0.00  0.00    +0.000 A 
ATOM      9  C   UNL     1      -5.656  12.620  19.165  0.00  0.00    +0.000 A 
ATOM     10  C   UNL     1      -4.341  12.527  19.632  0.00  0.00    +0.000 A 
ATOM     11  C   UNL     1      -3.321  11.876  18.911  0.00  0.00    +0.000 A 
BRANCH   6  12
ATOM     12  C   UNL     1      -2.754  10.662  16.683  0.00  0.00    +0.000 C 
ATOM     13  O   UNL     1      -1.976   9.786  17.031  0.00  0.00    +0.000 OA
BRANCH  12  15
ATOM     14  C   UNL     1      -2.992  10.036  14.457  0.00  0.00    +0.000 C 
ATOM     15  O   UNL     1      -2.884  11.104  15.409  0.00  0.00    +0.000 OA
ENDBRANCH  12  15
ENDBRANCH   6  12
ENDBRANCH   2  11
ENDBRANCH   1   3
BRANCH   1  16
ATOM     16  N   UNL     1       1.114  10.983  19.394  0.00  0.00    +0.000 N 
ATOM     17  C   UNL     1       0.826   9.707  19.805  0.00  0.00    +0.000 C 
ATOM     18  O   UNL     1      -0.078   9.452  20.592  0.00  0.00    +0.000 OA
ATOM     19  H   UNL     1       1.912  11.110  18.771  0.00  0.00    +0.000 HD
BRANCH  17  20
ATOM     20  C   UNL     1       1.670   8.623  19.220  0.00  0.00    +0.000 A 
ATOM     21  C   UNL     1       2.342   8.840  18.024  0.00  0.00    +0.000 A 
ATOM     22  N   UNL     1       3.180   7.919  17.471  0.00  0.00    +0.000 NA
ATOM     23  C   UNL     1       3.333   6.755  18.156  0.00  0.00    +0.000 A 
ATOM     24  C   UNL     1       2.634   6.548  19.347  0.00  0.00    +0.000 A 
ATOM     25  N   UNL     1       1.787   7.460  19.912  0.00  0.00    +0.000 NA
ATOM     26  C   UNL     1       2.841   5.267  20.049  0.00  0.00    +0.000 A 
ATOM     27  O   UNL     1       2.270   4.993  21.099  0.00  0.00    +0.000 OA
ATOM     28  N   UNL     1       3.721   4.388  19.464  0.00  0.00    +0.000 N 
ATOM     29  C   UNL     1       4.436   4.582  18.313  0.00  0.00    +0.000 A 
ATOM     30  O   UNL     1       5.210   3.709  17.930  0.00  0.00    +0.000 OA
ATOM     31  N   UNL     1       4.226   5.776  17.658  0.00  0.00    +0.000 N 
ATOM     32  C   UNL     1       4.951   6.075  16.434  0.00  0.00    +0.000 C 
ATOM     33  H   UNL     1       3.880   3.514  19.945  0.00  0.00    +0.000 HD
ENDBRANCH  17  20
ENDBRANCH   1  16
BRANCH   1  34
ATOM     34  C   UNL     1       1.355  13.417  19.795  0.00  0.00    +0.000 C 
ATOM     35  C   UNL     1       2.146  13.532  18.490  0.00  0.00    +0.000 C 
BRANCH  34  36
ATOM     36  O   UNL     1       0.587  14.625  19.941  0.00  0.00    +0.000 OA
ATOM     37  H   UNL     1       0.315  14.915  19.052  0.00  0.00    +0.000 HD
ENDBRANCH  34  36
ENDBRANCH   1  34
TORSDOF 8
ENDMDL
MODEL 9
REMARK VINA RESULT:      -8.4      1.432      1.688
REMARK  Name = 
REMARK  11 active torsions:
REMARK  status: ('A' for Active; 'I' for Inactive)
REMARK    1  A    between atoms: C_1  and  O_2
REMARK    2  A    between atoms: O_2  and  C_3
REMARK    3  A    between atoms: C_3  and  C_5
REMARK    4  A    between atoms: C_10  and  N_11
REMARK    5  A    between atoms: C_12  and  C_14
REMARK    6  A    between atoms: C_14  and  N_15
REMARK    7  A    between atoms: C_14  and  C_31
REMARK    8  A    between atoms: C_16  and  C_18
REMARK    9  A    between atoms: N_29  and  C_30
REMARK   10  A    between atoms: C_31  and  C_32
REMARK   11  A    between atoms: C_31  and  O_33
REMARK                            x       y       z     vdW  Elec       q    Type
REMARK                         _______ _______ _______ _____ _____    ______ ____
ROOT
ATOM      1  C   UNL     1       3.516   4.014  20.099  0.00  0.00    +0.000 C 
ENDROOT
BRANCH   1   3
ATOM      2  N   UNL     1       4.677   4.788  18.027  0.00  0.00    +0.000 N 
ATOM      3  C   UNL     1       4.132   3.704  18.713  0.00  0.00    +0.000 C 
ATOM      4  O   UNL     1       4.176   2.540  18.316  0.00  0.00    +0.000 OA
ATOM      5  H   UNL     1       4.692   5.691  18.508  0.00  0.00    +0.000 HD
BRANCH   2  11
ATOM      6  C   UNL     1       6.780   4.725  16.679  0.00  0.00    +0.000 A 
ATOM      7  C   UNL     1       7.395   4.576  15.409  0.00  0.00    +0.000 A 
ATOM      8  C   UNL     1       6.647   4.431  14.245  0.00  0.00    +0.000 A 
ATOM      9  C   UNL     1       5.269   4.461  14.325  0.00  0.00    +0.000 A 
ATOM     10  C   UNL     1       4.647   4.616  15.567  0.00  0.00    +0.000 A 
ATOM     11  C   UNL     1       5.369   4.716  16.774  0.00  0.00    +0.000 A 
BRANCH   6  12
ATOM     12  C   UNL     1       7.752   4.840  17.805  0.00  0.00    +0.000 C 
ATOM     13  O   UNL     1       8.644   4.028  17.998  0.00  0.00    +0.000 OA
BRANCH  12  15
ATOM     14  C   UNL     1       7.703   7.163  17.874  0.00  0.00    +0.000 C 
ATOM     15  O   UNL     1       7.529   5.928  18.582  0.00  0.00    +0.000 OA
ENDBRANCH  12  15
ENDBRANCH   6  12
ENDBRANCH   2  11
ENDBRANCH   1   3
BRANCH   1  16
ATOM     16  N   UNL     1       3.045   5.408  20.143  0.00  0.00    +0.000 N 
ATOM     17  C   UNL     1       2.311   5.997  19.145  0.00  0.00    +0.000 C 
ATOM     18  O   UNL     1       1.946   5.390  18.144  0.00  0.00    +0.000 OA
ATOM     19  H   UNL     1       3.343   5.997  20.920  0.00  0.00    +0.000 HD
BRANCH  17  20
ATOM     20  C   UNL     1       1.954   7.432  19.352  0.00  0.00    +0.000 A 
ATOM     21  C   UNL     1       2.118   8.342  18.316  0.00  0.00    +0.000 A 
ATOM     22  N   UNL     1       1.749   9.649  18.417  0.00  0.00    +0.000 NA
ATOM     23  C   UNL     1       1.203  10.032  19.601  0.00  0.00    +0.000 A 
ATOM     24  C   UNL     1       1.065   9.107  20.638  0.00  0.00    +0.000 A 
ATOM     25  N   UNL     1       1.432   7.793  20.553  0.00  0.00    +0.000 NA
ATOM     26  C   UNL     1       0.462   9.577  21.900  0.00  0.00    +0.000 A 
ATOM     27  O   UNL     1       0.301   8.840  22.867  0.00  0.00    +0.000 OA
ATOM     28  N   UNL     1       0.080  10.897  21.937  0.00  0.00    +0.000 N 
ATOM     29  C   UNL     1       0.182  11.813  20.925  0.00  0.00    +0.000 A 
ATOM     30  O   UNL     1      -0.234  12.955  21.100  0.00  0.00    +0.000 OA
ATOM     31  N   UNL     1       0.757  11.367  19.754  0.00  0.00    +0.000 N 
ATOM     32  C   UNL     1       0.896  12.265  18.620  0.00  0.00    +0.000 C 
ATOM     33  H   UNL     1      -0.346  11.225  22.792  0.00  0.00    +0.000 HD
ENDBRANCH  17  20
ENDBRANCH   1  16
BRANCH   1  34
ATOM     34  C   UNL     1       2.329   3.049  20.391  0.00  0.00    +0.000 C 
ATOM     35  C   UNL     1       1.339   3.544  21.449  0.00  0.00    +0.000 C 
BRANCH  34  36
ATOM     36  O   UNL     1       1.584   2.814  19.183  0.00  0.00    +0.000 OA
ATOM     37  H   UNL     1       0.880   3.484  19.130  0.00  0.00    +0.000 HD
ENDBRANCH  34  36
ENDBRANCH   1  34
TORSDOF 8
ENDMDL
