MODEL 1
REMARK VINA RESULT:      -8.2      0.000      0.000
REMARK  Name = 
REMARK  3 active torsions:
REMARK  status: ('A' for Active; 'I' for Inactive)
REMARK    1  A    between atoms: N_4  and  C_5
REMARK    2  A    between atoms: C_5  and  C_6
REMARK    3  A    between atoms: C_6  and  N_7
REMARK                            x       y       z     vdW  Elec       q    Type
REMARK                         _______ _______ _______ _____ _____    ______ ____
ROOT
ATOM      1  C   UNL     1       2.836   6.251  18.836  0.00  0.00    +0.000 C 
ENDROOT
BRANCH   1   5
ATOM      2  C   UNL     1       1.064   9.897  18.071  0.00  0.00    +0.000 A 
ATOM      3  N   UNL     1       1.761   8.781  18.349  0.00  0.00    +0.000 NA
ATOM      4  C   UNL     1       1.771   8.302  19.620  0.00  0.00    +0.000 A 
ATOM      5  N   UNL     1       2.531   7.173  19.936  0.00  0.00    +0.000 N 
ATOM      6  C   UNL     1       1.025   9.007  20.593  0.00  0.00    +0.000 A 
ATOM      7  C   UNL     1       0.802   8.811  22.002  0.00  0.00    +0.000 A 
ATOM      8  C   UNL     1      -0.003   9.781  22.558  0.00  0.00    +0.000 A 
ATOM      9  S   UNL     1      -0.492  10.942  21.405  0.00  0.00    +0.000 S 
ATOM     10  C   UNL     1       0.358  10.145  20.160  0.00  0.00    +0.000 A 
ATOM     11  N   UNL     1       0.336  10.640  18.913  0.00  0.00    +0.000 NA
ATOM     12  H   UNL     1       2.225   6.684  20.771  0.00  0.00    +0.000 HD
ENDBRANCH   1   5
BRANCH   1  13
ATOM     13  C   UNL     1       2.811   4.716  19.305  0.00  0.00    +0.000 C 
ATOM     14  C   UNL     1       1.578   4.046  18.624  0.00  0.00    +0.000 C 
ATOM     15  C   UNL     1       1.143   2.695  19.204  0.00  0.00    +0.000 C 
ATOM     16  C   UNL     1       1.020   2.658  20.721  0.00  0.00    +0.000 C 
ATOM     17  C   UNL     1       2.059   3.461  21.491  0.00  0.00    +0.000 C 
ATOM     18  C   UNL     1       2.475   4.769  20.828  0.00  0.00    +0.000 C 
BRANCH  13  19
ATOM     19  N   UNL     1       4.129   4.129  18.906  0.00  0.00    +0.000 NA
ATOM     20  C   UNL     1       5.405   4.797  19.193  0.00  0.00    +0.000 C 
ATOM     21  C   UNL     1       5.888   5.744  18.085  0.00  0.00    +0.000 C 
ATOM     22  O   UNL     1       5.964   5.077  16.818  0.00  0.00    +0.000 OA
ATOM     23  C   UNL     1       4.733   4.433  16.471  0.00  0.00    +0.000 C 
ATOM     24  C   UNL     1       4.230   3.493  17.581  0.00  0.00    +0.000 C 
ENDBRANCH  13  19
ENDBRANCH   1  13
TORSDOF 3
ENDMDL
MODEL 2
REMARK VINA RESULT:      -8.0      1.693      3.574
REMARK  Name = 
REMARK  3 active torsions:
REMARK  status: ('A' for Active; 'I' for Inactive)
REMARK    1  A    between atoms: N_4  and  C_5
REMARK    2  A    between atoms: C_5  and  C_6
REMARK    3  A    between atoms: C_6  and  N_7
REMARK                            x       y       z     vdW  Elec       q    Type
REMARK                         _______ _______ _______ _____ _____    ______ ____
ROOT
ATOM      1  C   UNL     1       2.740   5.492  18.151  0.00  0.00    +0.000 C 
ENDROOT
BRANCH   1   5
ATOM      2  C   UNL     1       1.884   9.507  17.744  0.00  0.00    +0.000 A 
ATOM      3  N   UNL     1       2.294   8.237  17.917  0.00  0.00    +0.000 NA
ATOM      4  C   UNL     1       2.121   7.642  19.125  0.00  0.00    +0.000 A 
ATOM      5  N   UNL     1       2.587   6.342  19.337  0.00  0.00    +0.000 N 
ATOM      6  C   UNL     1       1.497   8.396  20.146  0.00  0.00    +0.000 A 
ATOM      7  C   UNL     1       1.154   8.114  21.515  0.00  0.00    +0.000 A 
ATOM      8  C   UNL     1       0.557   9.183  22.150  0.00  0.00    +0.000 A 
ATOM      9  S   UNL     1       0.410  10.536  21.119  0.00  0.00    +0.000 S 
ATOM     10  C   UNL     1       1.131   9.696  19.822  0.00  0.00    +0.000 A 
ATOM     11  N   UNL     1       1.294  10.307  18.639  0.00  0.00    +0.000 NA
ATOM     12  H   UNL     1       2.131   5.853  20.102  0.00  0.00    +0.000 HD
ENDBRANCH   1   5
BRANCH   1  13
ATOM     13  C   UNL     1       4.170   4.763  18.107  0.00  0.00    +0.000 C 
ATOM     14  C   UNL     1       5.078   5.465  19.163  0.00  0.00    +0.000 C 
ATOM     15  C   UNL     1       6.581   5.187  19.045  0.00  0.00    +0.000 C 
ATOM     16  C   UNL     1       7.154   5.337  17.643  0.00  0.00    +0.000 C 
ATOM     17  C   UNL     1       6.254   4.872  16.506  0.00  0.00    +0.000 C 
ATOM     18  C   UNL     1       4.769   5.141  16.717  0.00  0.00    +0.000 C 
BRANCH  13  19
ATOM     19  N   UNL     1       3.915   3.313  18.380  0.00  0.00    +0.000 NA
ATOM     20  C   UNL     1       2.808   2.579  17.756  0.00  0.00    +0.000 C 
ATOM     21  C   UNL     1       1.500   2.599  18.562  0.00  0.00    +0.000 C 
ATOM     22  O   UNL     1       1.699   2.129  19.901  0.00  0.00    +0.000 OA
ATOM     23  C   UNL     1       2.750   2.835  20.571  0.00  0.00    +0.000 C 
ATOM     24  C   UNL     1       4.061   2.835  19.766  0.00  0.00    +0.000 C 
ENDBRANCH  13  19
ENDBRANCH   1  13
TORSDOF 3
ENDMDL
MODEL 3
REMARK VINA RESULT:      -7.8      1.092      1.215
REMARK  Name = 
REMARK  3 active torsions:
REMARK  status: ('A' for Active; 'I' for Inactive)
REMARK    1  A    between atoms: N_4  and  C_5
REMARK    2  A    between atoms: C_5  and  C_6
REMARK    3  A    between atoms: C_6  and  N_7
REMARK                            x       y       z     vdW  Elec       q    Type
REMARK                         _______ _______ _______ _____ _____    ______ ____
ROOT
ATOM      1  C   UNL     1       3.215   6.124  17.981  0.00  0.00    +0.000 C 
ENDROOT
BRANCH   1   5
ATOM      2  C   UNL     1       1.779   9.988  17.843  0.00  0.00    +0.000 A 
ATOM      3  N   UNL     1       2.365   8.782  17.947  0.00  0.00    +0.000 NA
ATOM      4  C   UNL     1       2.171   8.042  19.069  0.00  0.00    +0.000 A 
ATOM      5  N   UNL     1       2.813   6.810  19.214  0.00  0.00    +0.000 N 
ATOM      6  C   UNL     1       1.337   8.582  20.076  0.00  0.00    +0.000 A 
ATOM      7  C   UNL     1       0.910   8.108  21.366  0.00  0.00    +0.000 A 
ATOM      8  C   UNL     1       0.092   9.002  22.023  0.00  0.00    +0.000 A 
ATOM      9  S   UNL     1      -0.165  10.422  21.108  0.00  0.00    +0.000 S 
ATOM     10  C   UNL     1       0.804   9.841  19.831  0.00  0.00    +0.000 A 
ATOM     11  N   UNL     1       0.984  10.592  18.734  0.00  0.00    +0.000 NA
ATOM     12  H   UNL     1       2.367   6.181  19.874  0.00  0.00    +0.000 HD
ENDBRANCH   1   5
BRANCH   1  13
ATOM     13  C   UNL     1       3.499   4.562  18.220  0.00  0.00    +0.000 C 
ATOM     14  C   UNL     1       2.396   3.770  17.453  0.00  0.00    +0.000 C 
ATOM     15  C   UNL     1       2.246   2.291  17.830  0.00  0.00    +0.000 C 
ATOM     16  C   UNL     1       2.180   2.014  19.325  0.00  0.00    +0.000 C 
ATOM     17  C   UNL     1       3.070   2.885  20.201  0.00  0.00    +0.000 C 
ATOM     18  C   UNL     1       3.208   4.330  19.736  0.00  0.00    +0.000 C 
BRANCH  13  19
ATOM     19  N   UNL     1       4.892   4.304  17.736  0.00  0.00    +0.000 NA
ATOM     20  C   UNL     1       6.060   4.991  18.303  0.00  0.00    +0.000 C 
ATOM     21  C   UNL     1       6.430   6.301  17.592  0.00  0.00    +0.000 C 
ATOM     22  O   UNL     1       6.620   6.103  16.185  0.00  0.00    +0.000 OA
ATOM     23  C   UNL     1       5.494   5.464  15.573  0.00  0.00    +0.000 C 
ATOM     24  C   UNL     1       5.104   4.157  16.286  0.00  0.00    +0.000 C 
ENDBRANCH  13  19
ENDBRANCH   1  13
TORSDOF 3
ENDMDL
MODEL 4
REMARK VINA RESULT:      -7.6      1.946      4.094
REMARK  Name = 
REMARK  3 active torsions:
REMARK  status: ('A' for Active; 'I' for Inactive)
REMARK    1  A    between atoms: N_4  and  C_5
REMARK    2  A    between atoms: C_5  and  C_6
REMARK    3  A    between atoms: C_6  and  N_7
REMARK                            x       y       z     vdW  Elec       q    Type
REMARK                         _______ _______ _______ _____ _____    ______ ____
ROOT
ATOM      1  C   UNL     1       3.775   5.543  19.336  0.00  0.00    +0.000 C 
ENDROOT
BRANCH   1   5
ATOM      2  C   UNL     1       0.961   7.723  21.420  0.00  0.00    +0.000 A 
ATOM      3  N   UNL     1       1.769   6.949  20.674  0.00  0.00    +0.000 NA
ATOM      4  C   UNL     1       2.209   7.410  19.475  0.00  0.00    +0.000 A 
ATOM      5  N   UNL     1       3.008   6.599  18.664  0.00  0.00    +0.000 N 
ATOM      6  C   UNL     1       1.798   8.703  19.076  0.00  0.00    +0.000 A 
ATOM      7  C   UNL     1       2.051   9.505  17.908  0.00  0.00    +0.000 A 
ATOM      8  C   UNL     1       1.412  10.727  17.947  0.00  0.00    +0.000 A 
ATOM      9  S   UNL     1       0.495  10.921  19.375  0.00  0.00    +0.000 S 
ATOM     10  C   UNL     1       0.959   9.384  19.948  0.00  0.00    +0.000 A 
ATOM     11  N   UNL     1       0.508   8.950  21.135  0.00  0.00    +0.000 NA
ATOM     12  H   UNL     1       3.568   7.106  17.987  0.00  0.00    +0.000 HD
ENDBRANCH   1   5
BRANCH   1  13
ATOM     13  C   UNL     1       4.700   4.721  18.314  0.00  0.00    +0.000 C 
ATOM     14  C   UNL     1       6.184   5.011  18.699  0.00  0.00    +0.000 C 
ATOM     15  C   UNL     1       7.236   4.633  17.650  0.00  0.00    +0.000 C 
ATOM     16  C   UNL     1       6.933   5.111  16.236  0.00  0.00    +0.000 C 
ATOM     17  C   UNL     1       5.469   5.070  15.822  0.00  0.00    +0.000 C 
ATOM     18  C   UNL     1       4.481   5.412  16.932  0.00  0.00    +0.000 C 
BRANCH  13  19
ATOM     19  N   UNL     1       4.300   3.284  18.440  0.00  0.00    +0.000 NA
ATOM     20  C   UNL     1       3.175   2.713  17.690  0.00  0.00    +0.000 C 
ATOM     21  C   UNL     1       1.824   2.790  18.417  0.00  0.00    +0.000 C 
ATOM     22  O   UNL     1       1.891   2.192  19.719  0.00  0.00    +0.000 OA
ATOM     23  C   UNL     1       2.955   2.737  20.509  0.00  0.00    +0.000 C 
ATOM     24  C   UNL     1       4.311   2.680  19.784  0.00  0.00    +0.000 C 
ENDBRANCH  13  19
ENDBRANCH   1  13
TORSDOF 3
ENDMDL
MODEL 5
REMARK VINA RESULT:      -7.5      1.617      1.921
REMARK  Name = 
REMARK  3 active torsions:
REMARK  status: ('A' for Active; 'I' for Inactive)
REMARK    1  A    between atoms: N_4  and  C_5
REMARK    2  A    between atoms: C_5  and  C_6
REMARK    3  A    between atoms: C_6  and  N_7
REMARK                            x       y       z     vdW  Elec       q    Type
REMARK                         _______ _______ _______ _____ _____    ______ ____
ROOT
ATOM      1  C   UNL     1       2.745   6.235  17.649  0.00  0.00    +0.000 C 
ENDROOT
BRANCH   1   5
ATOM      2  C   UNL     1       1.709  10.214  17.988  0.00  0.00    +0.000 A 
ATOM      3  N   UNL     1       2.176   8.954  17.924  0.00  0.00    +0.000 NA
ATOM      4  C   UNL     1       2.041   8.140  19.003  0.00  0.00    +0.000 A 
ATOM      5  N   UNL     1       2.565   6.845  18.972  0.00  0.00    +0.000 N 
ATOM      6  C   UNL     1       1.395   8.665  20.146  0.00  0.00    +0.000 A 
ATOM      7  C   UNL     1       1.078   8.121  21.440  0.00  0.00    +0.000 A 
ATOM      8  C   UNL     1       0.440   9.027  22.262  0.00  0.00    +0.000 A 
ATOM      9  S   UNL     1       0.225  10.539  21.497  0.00  0.00    +0.000 S 
ATOM     10  C   UNL     1       0.969   9.984  20.067  0.00  0.00    +0.000 A 
ATOM     11  N   UNL     1       1.093  10.809  19.016  0.00  0.00    +0.000 NA
ATOM     12  H   UNL     1       2.139   6.205  19.634  0.00  0.00    +0.000 HD
ENDBRANCH   1   5
BRANCH   1  13
ATOM     13  C   UNL     1       3.624   4.894  17.713  0.00  0.00    +0.000 C 
ATOM     14  C   UNL     1       2.653   3.695  17.485  0.00  0.00    +0.000 C 
ATOM     15  C   UNL     1       3.196   2.311  17.863  0.00  0.00    +0.000 C 
ATOM     16  C   UNL     1       3.853   2.232  19.234  0.00  0.00    +0.000 C 
ATOM     17  C   UNL     1       4.662   3.452  19.653  0.00  0.00    +0.000 C 
ATOM     18  C   UNL     1       4.084   4.788  19.200  0.00  0.00    +0.000 C 
BRANCH  13  19
ATOM     19  N   UNL     1       4.687   5.033  16.668  0.00  0.00    +0.000 NA
ATOM     20  C   UNL     1       5.858   4.149  16.616  0.00  0.00    +0.000 C 
ATOM     21  C   UNL     1       7.069   4.653  17.415  0.00  0.00    +0.000 C 
ATOM     22  O   UNL     1       7.445   5.979  17.021  0.00  0.00    +0.000 OA
ATOM     23  C   UNL     1       6.345   6.894  17.084  0.00  0.00    +0.000 C 
ATOM     24  C   UNL     1       5.120   6.392  16.300  0.00  0.00    +0.000 C 
ENDBRANCH  13  19
ENDBRANCH   1  13
TORSDOF 3
ENDMDL
MODEL 6
REMARK VINA RESULT:      -7.5      1.168      1.608
REMARK  Name = 
REMARK  3 active torsions:
REMARK  status: ('A' for Active; 'I' for Inactive)
REMARK    1  A    between atoms: N_4  and  C_5
REMARK    2  A    between atoms: C_5  and  C_6
REMARK    3  A    between atoms: C_6  and  N_7
REMARK                            x       y       z     vdW  Elec       q    Type
REMARK                         _______ _______ _______ _____ _____    ______ ____
ROOT
ATOM      1  C   UNL     1       2.076   7.586  18.799  0.00  0.00    +0.000 C 
ENDROOT
BRANCH   1   5
ATOM      2  C   UNL     1       0.377  11.344  18.922  0.00  0.00    +0.000 A 
ATOM      3  N   UNL     1       1.051  10.179  18.929  0.00  0.00    +0.000 NA
ATOM      4  C   UNL     1       1.027   9.405  20.044  0.00  0.00    +0.000 A 
ATOM      5  N   UNL     1       1.763   8.217  20.086  0.00  0.00    +0.000 N 
ATOM      6  C   UNL     1       0.273   9.864  21.149  0.00  0.00    +0.000 A 
ATOM      7  C   UNL     1       0.019   9.335  22.462  0.00  0.00    +0.000 A 
ATOM      8  C   UNL     1      -0.783  10.156  23.227  0.00  0.00    +0.000 A 
ATOM      9  S   UNL     1      -1.231  11.573  22.384  0.00  0.00    +0.000 S 
ATOM     10  C   UNL     1      -0.367  11.087  20.996  0.00  0.00    +0.000 A 
ATOM     11  N   UNL     1      -0.356  11.872  19.908  0.00  0.00    +0.000 NA
ATOM     12  H   UNL     1       1.433   7.545  20.772  0.00  0.00    +0.000 HD
ENDBRANCH   1   5
BRANCH   1  13
ATOM     13  C   UNL     1       2.520   6.053  18.966  0.00  0.00    +0.000 C 
ATOM     14  C   UNL     1       1.700   5.220  17.934  0.00  0.00    +0.000 C 
ATOM     15  C   UNL     1       1.686   3.703  18.157  0.00  0.00    +0.000 C 
ATOM     16  C   UNL     1       1.379   3.266  19.583  0.00  0.00    +0.000 C 
ATOM     17  C   UNL     1       1.962   4.141  20.684  0.00  0.00    +0.000 C 
ATOM     18  C   UNL     1       1.985   5.632  20.370  0.00  0.00    +0.000 C 
BRANCH  13  19
ATOM     19  N   UNL     1       4.002   6.015  18.751  0.00  0.00    +0.000 NA
ATOM     20  C   UNL     1       4.610   6.242  17.434  0.00  0.00    +0.000 C 
ATOM     21  C   UNL     1       4.809   4.968  16.600  0.00  0.00    +0.000 C 
ATOM     22  O   UNL     1       5.561   3.980  17.317  0.00  0.00    +0.000 OA
ATOM     23  C   UNL     1       4.992   3.695  18.600  0.00  0.00    +0.000 C 
ATOM     24  C   UNL     1       4.773   4.966  19.440  0.00  0.00    +0.000 C 
ENDBRANCH  13  19
ENDBRANCH   1  13
TORSDOF 3
ENDMDL
MODEL 7
REMARK VINA RESULT:      -7.5      1.304      1.828
REMARK  Name = 
REMARK  3 active torsions:
REMARK  status: ('A' for Active; 'I' for Inactive)
REMARK    1  A    between atoms: N_4  and  C_5
REMARK    2  A    between atoms: C_5  and  C_6
REMARK    3  A    between atoms: C_6  and  N_7
REMARK                            x       y       z     vdW  Elec       q    Type
REMARK                         _______ _______ _______ _____ _____    ______ ____
ROOT
ATOM      1  C   UNL     1       2.745   6.269  18.901  0.00  0.00    +0.000 C 
ENDROOT
BRANCH   1   5
ATOM      2  C   UNL     1       1.012   9.931  18.124  0.00  0.00    +0.000 A 
ATOM      3  N   UNL     1       1.697   8.808  18.405  0.00  0.00    +0.000 NA
ATOM      4  C   UNL     1       1.710   8.337  19.678  0.00  0.00    +0.000 A 
ATOM      5  N   UNL     1       2.458   7.201  19.997  0.00  0.00    +0.000 N 
ATOM      6  C   UNL     1       0.978   9.056  20.652  0.00  0.00    +0.000 A 
ATOM      7  C   UNL     1       0.762   8.872  22.063  0.00  0.00    +0.000 A 
ATOM      8  C   UNL     1      -0.029   9.855  22.619  0.00  0.00    +0.000 A 
ATOM      9  S   UNL     1      -0.512  11.014  21.460  0.00  0.00    +0.000 S 
ATOM     10  C   UNL     1       0.322  10.199  20.216  0.00  0.00    +0.000 A 
ATOM     11  N   UNL     1       0.298  10.687  18.966  0.00  0.00    +0.000 NA
ATOM     12  H   UNL     1       2.152   6.720  20.837  0.00  0.00    +0.000 HD
ENDBRANCH   1   5
BRANCH   1  13
ATOM     13  C   UNL     1       2.640   4.736  19.364  0.00  0.00    +0.000 C 
ATOM     14  C   UNL     1       1.235   4.217  18.929  0.00  0.00    +0.000 C 
ATOM     15  C   UNL     1       0.772   2.908  19.580  0.00  0.00    +0.000 C 
ATOM     16  C   UNL     1       0.934   2.851  21.093  0.00  0.00    +0.000 C 
ATOM     17  C   UNL     1       2.182   3.521  21.652  0.00  0.00    +0.000 C 
ATOM     18  C   UNL     1       2.606   4.790  20.923  0.00  0.00    +0.000 C 
BRANCH  13  19
ATOM     19  N   UNL     1       3.787   4.018  18.722  0.00  0.00    +0.000 NA
ATOM     20  C   UNL     1       3.625   3.204  17.511  0.00  0.00    +0.000 C 
ATOM     21  C   UNL     1       3.308   1.725  17.781  0.00  0.00    +0.000 C 
ATOM     22  O   UNL     1       4.284   1.125  18.642  0.00  0.00    +0.000 OA
ATOM     23  C   UNL     1       4.460   1.863  19.857  0.00  0.00    +0.000 C 
ATOM     24  C   UNL     1       4.763   3.350  19.600  0.00  0.00    +0.000 C 
ENDBRANCH  13  19
ENDBRANCH   1  13
TORSDOF 3
ENDMDL
MODEL 8
REMARK VINA RESULT:      -7.5      1.047      1.372
REMARK  Name = 
REMARK  3 active torsions:
REMARK  status: ('A' for Active; 'I' for Inactive)
REMARK    1  A    between atoms: N_4  and  C_5
REMARK    2  A    between atoms: C_5  and  C_6
REMARK    3  A    between atoms: C_6  and  N_7
REMARK                            x       y       z     vdW  Elec       q    Type
REMARK                         _______ _______ _______ _____ _____    ______ ____
ROOT
ATOM      1  C   UNL     1       2.511   6.996  18.022  0.00  0.00    +0.000 C 
ENDROOT
BRANCH   1   5
ATOM      2  C   UNL     1       0.235  10.419  18.372  0.00  0.00    +0.000 A 
ATOM      3  N   UNL     1       1.092   9.386  18.272  0.00  0.00    +0.000 NA
ATOM      4  C   UNL     1       1.469   8.723  19.395  0.00  0.00    +0.000 A 
ATOM      5  N   UNL     1       2.397   7.682  19.314  0.00  0.00    +0.000 N 
ATOM      6  C   UNL     1       0.921   9.152  20.627  0.00  0.00    +0.000 A 
ATOM      7  C   UNL     1       1.080   8.711  21.987  0.00  0.00    +0.000 A 
ATOM      8  C   UNL     1       0.343   9.456  22.883  0.00  0.00    +0.000 A 
ATOM      9  S   UNL     1      -0.537  10.697  22.108  0.00  0.00    +0.000 S 
ATOM     10  C   UNL     1       0.053  10.235  20.576  0.00  0.00    +0.000 A 
ATOM     11  N   UNL     1      -0.332  10.908  19.481  0.00  0.00    +0.000 NA
ATOM     12  H   UNL     1       2.363   7.030  20.092  0.00  0.00    +0.000 HD
ENDBRANCH   1   5
BRANCH   1  13
ATOM     13  C   UNL     1       2.829   5.432  18.191  0.00  0.00    +0.000 C 
ATOM     14  C   UNL     1       1.527   4.654  17.829  0.00  0.00    +0.000 C 
ATOM     15  C   UNL     1       1.480   3.185  18.265  0.00  0.00    +0.000 C 
ATOM     16  C   UNL     1       1.887   2.930  19.710  0.00  0.00    +0.000 C 
ATOM     17  C   UNL     1       3.024   3.793  20.240  0.00  0.00    +0.000 C 
ATOM     18  C   UNL     1       3.030   5.228  19.725  0.00  0.00    +0.000 C 
BRANCH  13  19
ATOM     19  N   UNL     1       3.993   5.136  17.296  0.00  0.00    +0.000 NA
ATOM     20  C   UNL     1       5.002   4.123  17.628  0.00  0.00    +0.000 C 
ATOM     21  C   UNL     1       6.201   4.660  18.424  0.00  0.00    +0.000 C 
ATOM     22  O   UNL     1       6.825   5.765  17.757  0.00  0.00    +0.000 OA
ATOM     23  C   UNL     1       5.889   6.801  17.437  0.00  0.00    +0.000 C 
ATOM     24  C   UNL     1       4.676   6.272  16.652  0.00  0.00    +0.000 C 
ENDBRANCH  13  19
ENDBRANCH   1  13
TORSDOF 3
ENDMDL
MODEL 9
REMARK VINA RESULT:      -7.4      1.156      1.922
REMARK  Name = 
REMARK  3 active torsions:
REMARK  status: ('A' for Active; 'I' for Inactive)
REMARK    1  A    between atoms: N_4  and  C_5
REMARK    2  A    between atoms: C_5  and  C_6
REMARK    3  A    between atoms: C_6  and  N_7
REMARK                            x       y       z     vdW  Elec       q    Type
REMARK                         _______ _______ _______ _____ _____    ______ ____
ROOT
ATOM      1  C   UNL     1       3.129   6.722  19.644  0.00  0.00    +0.000 C 
ENDROOT
BRANCH   1   5
ATOM      2  C   UNL     1       1.193   9.177  22.335  0.00  0.00    +0.000 A 
ATOM      3  N   UNL     1       1.712   8.290  21.467  0.00  0.00    +0.000 NA
ATOM      4  C   UNL     1       1.465   8.436  20.140  0.00  0.00    +0.000 A 
ATOM      5  N   UNL     1       1.954   7.495  19.230  0.00  0.00    +0.000 N 
ATOM      6  C   UNL     1       0.676   9.539  19.736  0.00  0.00    +0.000 A 
ATOM      7  C   UNL     1       0.214  10.008  18.456  0.00  0.00    +0.000 A 
ATOM      8  C   UNL     1      -0.562  11.144  18.549  0.00  0.00    +0.000 A 
ATOM      9  S   UNL     1      -0.755  11.654  20.168  0.00  0.00    +0.000 S 
ATOM     10  C   UNL     1       0.206  10.369  20.745  0.00  0.00    +0.000 A 
ATOM     11  N   UNL     1       0.432  10.243  22.061  0.00  0.00    +0.000 NA
ATOM     12  H   UNL     1       2.037   7.838  18.278  0.00  0.00    +0.000 HD
ENDBRANCH   1   5
BRANCH   1  13
ATOM     13  C   UNL     1       2.891   5.140  19.515  0.00  0.00    +0.000 C 
ATOM     14  C   UNL     1       1.908   4.917  18.326  0.00  0.00    +0.000 C 
ATOM     15  C   UNL     1       1.254   3.532  18.246  0.00  0.00    +0.000 C 
ATOM     16  C   UNL     1       0.658   3.027  19.553  0.00  0.00    +0.000 C 
ATOM     17  C   UNL     1       1.436   3.374  20.814  0.00  0.00    +0.000 C 
ATOM     18  C   UNL     1       2.096   4.748  20.800  0.00  0.00    +0.000 C 
BRANCH  13  19
ATOM     19  N   UNL     1       4.242   4.522  19.322  0.00  0.00    +0.000 NA
ATOM     20  C   UNL     1       5.467   5.326  19.229  0.00  0.00    +0.000 C 
ATOM     21  C   UNL     1       5.842   5.745  17.800  0.00  0.00    +0.000 C 
ATOM     22  O   UNL     1       5.937   4.613  16.925  0.00  0.00    +0.000 OA
ATOM     23  C   UNL     1       4.752   3.809  16.952  0.00  0.00    +0.000 C 
ATOM     24  C   UNL     1       4.358   3.395  18.381  0.00  0.00    +0.000 C 
ENDBRANCH  13  19
ENDBRANCH   1  13
TORSDOF 3
ENDMDL
