MODEL 1
REMARK VINA RESULT:      -7.1      0.000      0.000
REMARK  Name = 
REMARK  4 active torsions:
REMARK  status: ('A' for Active; 'I' for Inactive)
REMARK    1  A    between atoms: C_1  and  C_2
REMARK    2  A    between atoms: C_5  and  S_6
REMARK    3  A    between atoms: S_6  and  N_9
REMARK    4  A    between atoms: C_13  and  C_14
REMARK                            x       y       z     vdW  Elec       q    Type
REMARK                         _______ _______ _______ _____ _____    ______ ____
ROOT
ATOM      1  S   UNL     1       4.248   5.724  18.627  0.00  0.00    +0.000 S 
ATOM      2  O   UNL     1       5.292   5.552  19.617  0.00  0.00    +0.000 OA
ATOM      3  O   UNL     1       3.629   7.015  18.418  0.00  0.00    +0.000 OA
ENDROOT
BRANCH   1   8
ATOM      4  C   UNL     1       6.376   3.879  13.237  0.00  0.00    +0.000 C 
ATOM      5  C   UNL     1       5.886   4.337  14.580  0.00  0.00    +0.000 A 
ATOM      6  C   UNL     1       5.668   3.418  15.614  0.00  0.00    +0.000 A 
ATOM      7  C   UNL     1       5.198   3.849  16.856  0.00  0.00    +0.000 A 
ATOM      8  C   UNL     1       4.934   5.205  17.068  0.00  0.00    +0.000 A 
ATOM      9  C   UNL     1       5.119   6.126  16.033  0.00  0.00    +0.000 A 
ATOM     10  C   UNL     1       5.613   5.694  14.801  0.00  0.00    +0.000 A 
ENDBRANCH   1   8
BRANCH   1  11
ATOM     11  N   UNL     1       3.005   4.622  18.961  0.00  0.00    +0.000 NA
ATOM     12  C   UNL     1       1.824   4.607  18.084  0.00  0.00    +0.000 C 
ATOM     13  C   UNL     1       1.273   3.188  18.059  0.00  0.00    +0.000 C 
ATOM     14  C   UNL     1       0.875   2.758  19.467  0.00  0.00    +0.000 C 
ATOM     15  C   UNL     1       2.041   2.916  20.458  0.00  0.00    +0.000 C 
ATOM     16  C   UNL     1       1.553   2.615  21.874  0.00  0.00    +0.000 C 
ATOM     17  C   UNL     1       2.685   4.316  20.375  0.00  0.00    +0.000 C 
ENDBRANCH   1  11
TORSDOF 2
ENDMDL
MODEL 2
REMARK VINA RESULT:      -7.0      0.104      1.177
REMARK  Name = 
REMARK  4 active torsions:
REMARK  status: ('A' for Active; 'I' for Inactive)
REMARK    1  A    between atoms: C_1  and  C_2
REMARK    2  A    between atoms: C_5  and  S_6
REMARK    3  A    between atoms: S_6  and  N_9
REMARK    4  A    between atoms: C_13  and  C_14
REMARK                            x       y       z     vdW  Elec       q    Type
REMARK                         _______ _______ _______ _____ _____    ______ ____
ROOT
ATOM      1  S   UNL     1       4.242   5.680  18.545  0.00  0.00    +0.000 S 
ATOM      2  O   UNL     1       5.328   5.489  19.486  0.00  0.00    +0.000 OA
ATOM      3  O   UNL     1       3.637   6.983  18.365  0.00  0.00    +0.000 OA
ENDROOT
BRANCH   1   8
ATOM      4  C   UNL     1       6.519   3.927  13.186  0.00  0.00    +0.000 C 
ATOM      5  C   UNL     1       5.922   4.359  14.493  0.00  0.00    +0.000 A 
ATOM      6  C   UNL     1       5.682   5.713  14.759  0.00  0.00    +0.000 A 
ATOM      7  C   UNL     1       5.141   6.109  15.983  0.00  0.00    +0.000 A 
ATOM      8  C   UNL     1       4.845   5.150  16.956  0.00  0.00    +0.000 A 
ATOM      9  C   UNL     1       5.108   3.799  16.713  0.00  0.00    +0.000 A 
ATOM     10  C   UNL     1       5.626   3.405  15.477  0.00  0.00    +0.000 A 
ENDBRANCH   1   8
BRANCH   1  11
ATOM     11  N   UNL     1       2.997   4.601  18.938  0.00  0.00    +0.000 NA
ATOM     12  C   UNL     1       1.787   4.588  18.100  0.00  0.00    +0.000 C 
ATOM     13  C   UNL     1       1.218   3.177  18.117  0.00  0.00    +0.000 C 
ATOM     14  C   UNL     1       0.862   2.774  19.543  0.00  0.00    +0.000 C 
ATOM     15  C   UNL     1       2.061   2.931  20.493  0.00  0.00    +0.000 C 
ATOM     16  C   UNL     1       1.617   2.658  21.929  0.00  0.00    +0.000 C 
ATOM     17  C   UNL     1       2.720   4.321  20.367  0.00  0.00    +0.000 C 
ENDBRANCH   1  11
TORSDOF 2
ENDMDL
MODEL 3
REMARK VINA RESULT:      -6.9      2.894      5.751
REMARK  Name = 
REMARK  4 active torsions:
REMARK  status: ('A' for Active; 'I' for Inactive)
REMARK    1  A    between atoms: C_1  and  C_2
REMARK    2  A    between atoms: C_5  and  S_6
REMARK    3  A    between atoms: S_6  and  N_9
REMARK    4  A    between atoms: C_13  and  C_14
REMARK                            x       y       z     vdW  Elec       q    Type
REMARK                         _______ _______ _______ _____ _____    ______ ____
ROOT
ATOM      1  S   UNL     1       5.429   4.792  16.128  0.00  0.00    +0.000 S 
ATOM      2  O   UNL     1       6.079   3.569  15.701  0.00  0.00    +0.000 OA
ATOM      3  O   UNL     1       4.965   5.764  15.161  0.00  0.00    +0.000 OA
ENDROOT
BRANCH   1   8
ATOM      4  C   UNL     1       0.776   3.109  19.663  0.00  0.00    +0.000 C 
ATOM      5  C   UNL     1       1.903   3.519  18.761  0.00  0.00    +0.000 A 
ATOM      6  C   UNL     1       2.765   2.562  18.212  0.00  0.00    +0.000 A 
ATOM      7  C   UNL     1       3.821   2.951  17.385  0.00  0.00    +0.000 A 
ATOM      8  C   UNL     1       4.025   4.307  17.109  0.00  0.00    +0.000 A 
ATOM      9  C   UNL     1       3.188   5.272  17.676  0.00  0.00    +0.000 A 
ATOM     10  C   UNL     1       2.119   4.876  18.482  0.00  0.00    +0.000 A 
ENDBRANCH   1   8
BRANCH   1  11
ATOM     11  N   UNL     1       6.464   5.604  17.195  0.00  0.00    +0.000 NA
ATOM     12  C   UNL     1       6.647   5.060  18.549  0.00  0.00    +0.000 C 
ATOM     13  C   UNL     1       8.052   5.414  19.014  0.00  0.00    +0.000 C 
ATOM     14  C   UNL     1       8.227   6.928  19.041  0.00  0.00    +0.000 C 
ATOM     15  C   UNL     1       7.884   7.561  17.681  0.00  0.00    +0.000 C 
ATOM     16  C   UNL     1       7.931   9.084  17.799  0.00  0.00    +0.000 C 
ATOM     17  C   UNL     1       6.515   7.085  17.151  0.00  0.00    +0.000 C 
ENDBRANCH   1  11
TORSDOF 2
ENDMDL
MODEL 4
REMARK VINA RESULT:      -6.9      2.885      5.831
REMARK  Name = 
REMARK  4 active torsions:
REMARK  status: ('A' for Active; 'I' for Inactive)
REMARK    1  A    between atoms: C_1  and  C_2
REMARK    2  A    between atoms: C_5  and  S_6
REMARK    3  A    between atoms: S_6  and  N_9
REMARK    4  A    between atoms: C_13  and  C_14
REMARK                            x       y       z     vdW  Elec       q    Type
REMARK                         _______ _______ _______ _____ _____    ______ ____
ROOT
ATOM      1  S   UNL     1       5.443   4.786  16.122  0.00  0.00    +0.000 S 
ATOM      2  O   UNL     1       6.138   3.609  15.638  0.00  0.00    +0.000 OA
ATOM      3  O   UNL     1       4.915   5.768  15.199  0.00  0.00    +0.000 OA
ENDROOT
BRANCH   1   8
ATOM      4  C   UNL     1       0.664   2.816  19.323  0.00  0.00    +0.000 C 
ATOM      5  C   UNL     1       1.862   3.308  18.566  0.00  0.00    +0.000 A 
ATOM      6  C   UNL     1       2.042   4.675  18.319  0.00  0.00    +0.000 A 
ATOM      7  C   UNL     1       3.151   5.124  17.600  0.00  0.00    +0.000 A 
ATOM      8  C   UNL     1       4.085   4.204  17.115  0.00  0.00    +0.000 A 
ATOM      9  C   UNL     1       3.899   2.836  17.329  0.00  0.00    +0.000 A 
ATOM     10  C   UNL     1       2.801   2.393  18.070  0.00  0.00    +0.000 A 
ENDBRANCH   1   8
BRANCH   1  11
ATOM     11  N   UNL     1       6.465   5.608  17.194  0.00  0.00    +0.000 NA
ATOM     12  C   UNL     1       6.638   5.070  18.553  0.00  0.00    +0.000 C 
ATOM     13  C   UNL     1       8.037   5.433  19.029  0.00  0.00    +0.000 C 
ATOM     14  C   UNL     1       8.205   6.948  19.050  0.00  0.00    +0.000 C 
ATOM     15  C   UNL     1       7.871   7.573  17.685  0.00  0.00    +0.000 C 
ATOM     16  C   UNL     1       7.911   9.097  17.796  0.00  0.00    +0.000 C 
ATOM     17  C   UNL     1       6.510   7.088  17.143  0.00  0.00    +0.000 C 
ENDBRANCH   1  11
TORSDOF 2
ENDMDL
MODEL 5
REMARK VINA RESULT:      -6.7      2.488      5.893
REMARK  Name = 
REMARK  4 active torsions:
REMARK  status: ('A' for Active; 'I' for Inactive)
REMARK    1  A    between atoms: C_1  and  C_2
REMARK    2  A    between atoms: C_5  and  S_6
REMARK    3  A    between atoms: S_6  and  N_9
REMARK    4  A    between atoms: C_13  and  C_14
REMARK                            x       y       z     vdW  Elec       q    Type
REMARK                         _______ _______ _______ _____ _____    ______ ____
ROOT
ATOM      1  S   UNL     1       3.306   3.540  18.092  0.00  0.00    +0.000 S 
ATOM      2  O   UNL     1       3.561   2.581  19.148  0.00  0.00    +0.000 OA
ATOM      3  O   UNL     1       2.422   3.217  16.993  0.00  0.00    +0.000 OA
ENDROOT
BRANCH   1   8
ATOM      4  C   UNL     1       1.319   8.557  20.896  0.00  0.00    +0.000 C 
ATOM      5  C   UNL     1       1.774   7.312  20.192  0.00  0.00    +0.000 A 
ATOM      6  C   UNL     1       1.715   6.067  20.830  0.00  0.00    +0.000 A 
ATOM      7  C   UNL     1       2.154   4.914  20.175  0.00  0.00    +0.000 A 
ATOM      8  C   UNL     1       2.666   5.005  18.877  0.00  0.00    +0.000 A 
ATOM      9  C   UNL     1       2.757   6.246  18.243  0.00  0.00    +0.000 A 
ATOM     10  C   UNL     1       2.293   7.392  18.893  0.00  0.00    +0.000 A 
ENDBRANCH   1   8
BRANCH   1  11
ATOM     11  N   UNL     1       4.791   4.003  17.419  0.00  0.00    +0.000 NA
ATOM     12  C   UNL     1       5.671   4.886  18.199  0.00  0.00    +0.000 C 
ATOM     13  C   UNL     1       7.112   4.564  17.827  0.00  0.00    +0.000 C 
ATOM     14  C   UNL     1       7.332   4.801  16.337  0.00  0.00    +0.000 C 
ATOM     15  C   UNL     1       6.318   4.021  15.484  0.00  0.00    +0.000 C 
ATOM     16  C   UNL     1       6.484   4.404  14.014  0.00  0.00    +0.000 C 
ATOM     17  C   UNL     1       4.867   4.244  15.959  0.00  0.00    +0.000 C 
ENDBRANCH   1  11
TORSDOF 2
ENDMDL
MODEL 6
REMARK VINA RESULT:      -6.7      2.480      5.995
REMARK  Name = 
REMARK  4 active torsions:
REMARK  status: ('A' for Active; 'I' for Inactive)
REMARK    1  A    between atoms: C_1  and  C_2
REMARK    2  A    between atoms: C_5  and  S_6
REMARK    3  A    between atoms: S_6  and  N_9
REMARK    4  A    between atoms: C_13  and  C_14
REMARK                            x       y       z     vdW  Elec       q    Type
REMARK                         _______ _______ _______ _____ _____    ______ ____
ROOT
ATOM      1  S   UNL     1       3.360   3.555  18.031  0.00  0.00    +0.000 S 
ATOM      2  O   UNL     1       3.617   2.552  19.045  0.00  0.00    +0.000 OA
ATOM      3  O   UNL     1       2.426   3.300  16.954  0.00  0.00    +0.000 OA
ENDROOT
BRANCH   1   8
ATOM      4  C   UNL     1       1.243   8.519  20.832  0.00  0.00    +0.000 C 
ATOM      5  C   UNL     1       1.800   7.303  20.153  0.00  0.00    +0.000 A 
ATOM      6  C   UNL     1       2.334   7.385  18.861  0.00  0.00    +0.000 A 
ATOM      7  C   UNL     1       2.836   6.246  18.229  0.00  0.00    +0.000 A 
ATOM      8  C   UNL     1       2.799   5.012  18.886  0.00  0.00    +0.000 A 
ATOM      9  C   UNL     1       2.242   4.914  20.164  0.00  0.00    +0.000 A 
ATOM     10  C   UNL     1       1.764   6.060  20.801  0.00  0.00    +0.000 A 
ENDBRANCH   1   8
BRANCH   1  11
ATOM     11  N   UNL     1       4.835   3.989  17.320  0.00  0.00    +0.000 NA
ATOM     12  C   UNL     1       5.749   4.862  18.073  0.00  0.00    +0.000 C 
ATOM     13  C   UNL     1       7.174   4.513  17.669  0.00  0.00    +0.000 C 
ATOM     14  C   UNL     1       7.362   4.739  16.173  0.00  0.00    +0.000 C 
ATOM     15  C   UNL     1       6.315   3.971  15.348  0.00  0.00    +0.000 C 
ATOM     16  C   UNL     1       6.452   4.344  13.873  0.00  0.00    +0.000 C 
ATOM     17  C   UNL     1       4.880   4.222  15.857  0.00  0.00    +0.000 C 
ENDBRANCH   1  11
TORSDOF 2
ENDMDL
MODEL 7
REMARK VINA RESULT:      -6.6      1.346      1.503
REMARK  Name = 
REMARK  4 active torsions:
REMARK  status: ('A' for Active; 'I' for Inactive)
REMARK    1  A    between atoms: C_1  and  C_2
REMARK    2  A    between atoms: C_5  and  S_6
REMARK    3  A    between atoms: S_6  and  N_9
REMARK    4  A    between atoms: C_13  and  C_14
REMARK                            x       y       z     vdW  Elec       q    Type
REMARK                         _______ _______ _______ _____ _____    ______ ____
ROOT
ATOM      1  S   UNL     1       5.744   5.191  18.109  0.00  0.00    +0.000 S 
ATOM      2  O   UNL     1       6.679   4.417  18.901  0.00  0.00    +0.000 OA
ATOM      3  O   UNL     1       5.766   6.638  18.140  0.00  0.00    +0.000 OA
ENDROOT
BRANCH   1   8
ATOM      4  C   UNL     1       6.388   3.661  12.259  0.00  0.00    +0.000 C 
ATOM      5  C   UNL     1       6.245   4.005  13.713  0.00  0.00    +0.000 A 
ATOM      6  C   UNL     1       5.120   3.595  14.439  0.00  0.00    +0.000 A 
ATOM      7  C   UNL     1       4.986   3.932  15.787  0.00  0.00    +0.000 A 
ATOM      8  C   UNL     1       5.976   4.693  16.415  0.00  0.00    +0.000 A 
ATOM      9  C   UNL     1       7.088   5.133  15.693  0.00  0.00    +0.000 A 
ATOM     10  C   UNL     1       7.230   4.772  14.351  0.00  0.00    +0.000 A 
ENDBRANCH   1   8
BRANCH   1  11
ATOM     11  N   UNL     1       4.172   4.707  18.510  0.00  0.00    +0.000 NA
ATOM     12  C   UNL     1       3.041   5.499  18.003  0.00  0.00    +0.000 C 
ATOM     13  C   UNL     1       1.857   4.561  17.812  0.00  0.00    +0.000 C 
ATOM     14  C   UNL     1       1.480   3.918  19.141  0.00  0.00    +0.000 C 
ATOM     15  C   UNL     1       2.684   3.214  19.791  0.00  0.00    +0.000 C 
ATOM     16  C   UNL     1       2.295   2.715  21.182  0.00  0.00    +0.000 C 
ATOM     17  C   UNL     1       3.924   4.130  19.853  0.00  0.00    +0.000 C 
ENDBRANCH   1  11
TORSDOF 2
ENDMDL
MODEL 8
REMARK VINA RESULT:      -6.6      2.943      5.944
REMARK  Name = 
REMARK  4 active torsions:
REMARK  status: ('A' for Active; 'I' for Inactive)
REMARK    1  A    between atoms: C_1  and  C_2
REMARK    2  A    between atoms: C_5  and  S_6
REMARK    3  A    between atoms: S_6  and  N_9
REMARK    4  A    between atoms: C_13  and  C_14
REMARK                            x       y       z     vdW  Elec       q    Type
REMARK                         _______ _______ _______ _____ _____    ______ ____
ROOT
ATOM      1  S   UNL     1       3.050   4.633  18.575  0.00  0.00    +0.000 S 
ATOM      2  O   UNL     1       3.408   3.875  19.757  0.00  0.00    +0.000 OA
ATOM      3  O   UNL     1       2.084   4.118  17.628  0.00  0.00    +0.000 OA
ENDROOT
BRANCH   1   8
ATOM      4  C   UNL     1       0.792   9.975  20.405  0.00  0.00    +0.000 C 
ATOM      5  C   UNL     1       1.384   8.668  19.963  0.00  0.00    +0.000 A 
ATOM      6  C   UNL     1       1.895   8.515  18.668  0.00  0.00    +0.000 A 
ATOM      7  C   UNL     1       2.430   7.292  18.258  0.00  0.00    +0.000 A 
ATOM      8  C   UNL     1       2.448   6.210  19.143  0.00  0.00    +0.000 A 
ATOM      9  C   UNL     1       1.914   6.343  20.427  0.00  0.00    +0.000 A 
ATOM     10  C   UNL     1       1.403   7.575  20.840  0.00  0.00    +0.000 A 
ENDBRANCH   1   8
BRANCH   1  11
ATOM     11  N   UNL     1       4.464   4.976  17.708  0.00  0.00    +0.000 NA
ATOM     12  C   UNL     1       4.847   4.082  16.605  0.00  0.00    +0.000 C 
ATOM     13  C   UNL     1       5.594   4.908  15.567  0.00  0.00    +0.000 C 
ATOM     14  C   UNL     1       6.843   5.523  16.189  0.00  0.00    +0.000 C 
ATOM     15  C   UNL     1       6.505   6.336  17.450  0.00  0.00    +0.000 C 
ATOM     16  C   UNL     1       7.797   6.807  18.116  0.00  0.00    +0.000 C 
ATOM     17  C   UNL     1       5.628   5.537  18.436  0.00  0.00    +0.000 C 
ENDBRANCH   1  11
TORSDOF 2
ENDMDL
MODEL 9
REMARK VINA RESULT:      -6.5      2.628      5.767
REMARK  Name = 
REMARK  4 active torsions:
REMARK  status: ('A' for Active; 'I' for Inactive)
REMARK    1  A    between atoms: C_1  and  C_2
REMARK    2  A    between atoms: C_5  and  S_6
REMARK    3  A    between atoms: S_6  and  N_9
REMARK    4  A    between atoms: C_13  and  C_14
REMARK                            x       y       z     vdW  Elec       q    Type
REMARK                         _______ _______ _______ _____ _____    ______ ____
ROOT
ATOM      1  S   UNL     1       3.168   3.884  18.163  0.00  0.00    +0.000 S 
ATOM      2  O   UNL     1       3.461   2.889  19.175  0.00  0.00    +0.000 OA
ATOM      3  O   UNL     1       2.270   3.586  17.067  0.00  0.00    +0.000 OA
ENDROOT
BRANCH   1   8
ATOM      4  C   UNL     1       1.116   8.726  21.217  0.00  0.00    +0.000 C 
ATOM      5  C   UNL     1       1.588   7.526  20.449  0.00  0.00    +0.000 A 
ATOM      6  C   UNL     1       1.458   6.238  20.983  0.00  0.00    +0.000 A 
ATOM      7  C   UNL     1       1.913   5.127  20.269  0.00  0.00    +0.000 A 
ATOM      8  C   UNL     1       2.511   5.302  19.018  0.00  0.00    +0.000 A 
ATOM      9  C   UNL     1       2.671   6.585  18.489  0.00  0.00    +0.000 A 
ATOM     10  C   UNL     1       2.192   7.691  19.195  0.00  0.00    +0.000 A 
ENDBRANCH   1   8
BRANCH   1  11
ATOM     11  N   UNL     1       4.629   4.406  17.484  0.00  0.00    +0.000 NA
ATOM     12  C   UNL     1       5.138   3.710  16.292  0.00  0.00    +0.000 C 
ATOM     13  C   UNL     1       5.927   4.713  15.462  0.00  0.00    +0.000 C 
ATOM     14  C   UNL     1       7.093   5.262  16.276  0.00  0.00    +0.000 C 
ATOM     15  C   UNL     1       6.621   5.854  17.614  0.00  0.00    +0.000 C 
ATOM     16  C   UNL     1       7.833   6.255  18.453  0.00  0.00    +0.000 C 
ATOM     17  C   UNL     1       5.705   4.881  18.386  0.00  0.00    +0.000 C 
ENDBRANCH   1  11
TORSDOF 2
ENDMDL
