MODEL 1
REMARK VINA RESULT:      -7.9      0.000      0.000
REMARK  Name = 
REMARK  6 active torsions:
REMARK  status: ('A' for Active; 'I' for Inactive)
REMARK    1  A    between atoms: C_1  and  C_2
REMARK    2  A    between atoms: C_2  and  C_3
REMARK    3  A    between atoms: C_3  and  C_4
REMARK    4  A    between atoms: C_4  and  N_5
REMARK    5  A    between atoms: C_9  and  C_10
REMARK    6  A    between atoms: C_19  and  O_20
REMARK                            x       y       z     vdW  Elec       q    Type
REMARK                         _______ _______ _______ _____ _____    ______ ____
ROOT
ATOM      1  C   UNL     1       4.519   4.858  17.505  0.00  0.00    +0.000 A 
ATOM      2  N   UNL     1       4.213   3.650  18.049  0.00  0.00    +0.000 NA
ATOM      3  C   UNL     1       3.189   3.617  18.923  0.00  0.00    +0.000 A 
ATOM      4  C   UNL     1       2.780   2.396  19.445  0.00  0.00    +0.000 A 
ATOM      5  C   UNL     1       1.675   2.303  20.292  0.00  0.00    +0.000 A 
ATOM      6  C   UNL     1       0.985   3.454  20.648  0.00  0.00    +0.000 A 
ATOM      7  C   UNL     1       1.407   4.691  20.158  0.00  0.00    +0.000 A 
ATOM      8  C   UNL     1       2.488   4.794  19.291  0.00  0.00    +0.000 A 
ATOM      9  N   UNL     1       2.826   5.997  18.792  0.00  0.00    +0.000 NA
ATOM     10  C   UNL     1       3.835   6.002  17.899  0.00  0.00    +0.000 A 
ENDROOT
BRANCH   1  15
ATOM     11  N   UNL     1       6.893   4.881  16.644  0.00  0.00    +0.000 N 
ATOM     12  N   UNL     1       7.521   4.815  15.453  0.00  0.00    +0.000 NA
ATOM     13  N   UNL     1       6.555   4.747  14.553  0.00  0.00    +0.000 NA
ATOM     14  N   UNL     1       5.325   4.764  15.153  0.00  0.00    +0.000 NA
ATOM     15  C   UNL     1       5.530   4.850  16.459  0.00  0.00    +0.000 A 
BRANCH  11  16
ATOM     16  C   UNL     1       7.688   4.977  17.847  0.00  0.00    +0.000 C 
BRANCH  16  17
ATOM     17  C   UNL     1       7.732   6.359  18.505  0.00  0.00    +0.000 C 
BRANCH  17  19
ATOM     18  C   UNL     1       8.215   8.787  18.088  0.00  0.00    +0.000 C 
ATOM     19  C   UNL     1       7.596   7.518  17.518  0.00  0.00    +0.000 C 
ENDBRANCH  17  19
ENDBRANCH  16  17
ENDBRANCH  11  16
ENDBRANCH   1  15
BRANCH  10  20
ATOM     20  O   UNL     1       4.056   7.230  17.372  0.00  0.00    +0.000 OA
ATOM     21  H   UNL     1       5.022   7.303  17.467  0.00  0.00    +0.000 HD
ENDBRANCH  10  20
TORSDOF 5
ENDMDL
MODEL 2
REMARK VINA RESULT:      -7.8      1.772      3.020
REMARK  Name = 
REMARK  6 active torsions:
REMARK  status: ('A' for Active; 'I' for Inactive)
REMARK    1  A    between atoms: C_1  and  C_2
REMARK    2  A    between atoms: C_2  and  C_3
REMARK    3  A    between atoms: C_3  and  C_4
REMARK    4  A    between atoms: C_4  and  N_5
REMARK    5  A    between atoms: C_9  and  C_10
REMARK    6  A    between atoms: C_19  and  O_20
REMARK                            x       y       z     vdW  Elec       q    Type
REMARK                         _______ _______ _______ _____ _____    ______ ____
ROOT
ATOM      1  C   UNL     1       4.705   5.679  18.270  0.00  0.00    +0.000 A 
ATOM      2  N   UNL     1       4.737   4.520  18.978  0.00  0.00    +0.000 NA
ATOM      3  C   UNL     1       3.603   4.158  19.609  0.00  0.00    +0.000 A 
ATOM      4  C   UNL     1       3.555   2.942  20.277  0.00  0.00    +0.000 A 
ATOM      5  C   UNL     1       2.380   2.491  20.878  0.00  0.00    +0.000 A 
ATOM      6  C   UNL     1       1.240   3.283  20.837  0.00  0.00    +0.000 A 
ATOM      7  C   UNL     1       1.285   4.523  20.199  0.00  0.00    +0.000 A 
ATOM      8  C   UNL     1       2.441   4.972  19.572  0.00  0.00    +0.000 A 
ATOM      9  N   UNL     1       2.427   6.146  18.915  0.00  0.00    +0.000 NA
ATOM     10  C   UNL     1       3.564   6.473  18.268  0.00  0.00    +0.000 A 
ENDROOT
BRANCH   1  15
ATOM     11  N   UNL     1       6.336   5.280  16.384  0.00  0.00    +0.000 N 
ATOM     12  N   UNL     1       7.437   5.871  15.878  0.00  0.00    +0.000 NA
ATOM     13  N   UNL     1       7.661   6.915  16.657  0.00  0.00    +0.000 NA
ATOM     14  N   UNL     1       6.719   6.999  17.646  0.00  0.00    +0.000 NA
ATOM     15  C   UNL     1       5.890   5.980  17.481  0.00  0.00    +0.000 A 
BRANCH  11  16
ATOM     16  C   UNL     1       5.833   4.084  15.749  0.00  0.00    +0.000 C 
BRANCH  16  17
ATOM     17  C   UNL     1       5.311   4.259  14.320  0.00  0.00    +0.000 C 
BRANCH  17  19
ATOM     18  C   UNL     1       5.439   3.213  12.042  0.00  0.00    +0.000 C 
ATOM     19  C   UNL     1       6.237   3.685  13.249  0.00  0.00    +0.000 C 
ENDBRANCH  17  19
ENDBRANCH  16  17
ENDBRANCH  11  16
ENDBRANCH   1  15
BRANCH  10  20
ATOM     20  O   UNL     1       3.444   7.618  17.555  0.00  0.00    +0.000 OA
ATOM     21  H   UNL     1       3.603   8.285  18.245  0.00  0.00    +0.000 HD
ENDBRANCH  10  20
TORSDOF 5
ENDMDL
MODEL 3
REMARK VINA RESULT:      -7.8      2.678      4.094
REMARK  Name = 
REMARK  6 active torsions:
REMARK  status: ('A' for Active; 'I' for Inactive)
REMARK    1  A    between atoms: C_1  and  C_2
REMARK    2  A    between atoms: C_2  and  C_3
REMARK    3  A    between atoms: C_3  and  C_4
REMARK    4  A    between atoms: C_4  and  N_5
REMARK    5  A    between atoms: C_9  and  C_10
REMARK    6  A    between atoms: C_19  and  O_20
REMARK                            x       y       z     vdW  Elec       q    Type
REMARK                         _______ _______ _______ _____ _____    ______ ____
ROOT
ATOM      1  C   UNL     1       5.796   4.438  16.748  0.00  0.00    +0.000 A 
ATOM      2  N   UNL     1       4.489   4.213  16.453  0.00  0.00    +0.000 NA
ATOM      3  C   UNL     1       3.679   3.890  17.480  0.00  0.00    +0.000 A 
ATOM      4  C   UNL     1       2.318   3.731  17.249  0.00  0.00    +0.000 A 
ATOM      5  C   UNL     1       1.430   3.475  18.294  0.00  0.00    +0.000 A 
ATOM      6  C   UNL     1       1.915   3.344  19.589  0.00  0.00    +0.000 A 
ATOM      7  C   UNL     1       3.284   3.466  19.829  0.00  0.00    +0.000 A 
ATOM      8  C   UNL     1       4.175   3.750  18.802  0.00  0.00    +0.000 A 
ATOM      9  N   UNL     1       5.479   3.921  19.083  0.00  0.00    +0.000 NA
ATOM     10  C   UNL     1       6.266   4.271  18.045  0.00  0.00    +0.000 A 
ENDROOT
BRANCH   1  15
ATOM     11  N   UNL     1       6.517   4.562  14.331  0.00  0.00    +0.000 N 
ATOM     12  N   UNL     1       7.417   5.244  13.594  0.00  0.00    +0.000 NA
ATOM     13  N   UNL     1       8.065   6.009  14.456  0.00  0.00    +0.000 NA
ATOM     14  N   UNL     1       7.589   5.827  15.726  0.00  0.00    +0.000 NA
ATOM     15  C   UNL     1       6.624   4.923  15.653  0.00  0.00    +0.000 A 
BRANCH  11  16
ATOM     16  C   UNL     1       5.648   3.616  13.669  0.00  0.00    +0.000 C 
BRANCH  16  17
ATOM     17  C   UNL     1       6.076   3.193  12.261  0.00  0.00    +0.000 C 
BRANCH  17  19
ATOM     18  C   UNL     1       3.857   3.357  11.100  0.00  0.00    +0.000 C 
ATOM     19  C   UNL     1       5.000   2.430  11.491  0.00  0.00    +0.000 C 
ENDBRANCH  17  19
ENDBRANCH  16  17
ENDBRANCH  11  16
ENDBRANCH   1  15
BRANCH  10  20
ATOM     20  O   UNL     1       7.543   4.516  18.421  0.00  0.00    +0.000 OA
ATOM     21  H   UNL     1       7.858   3.615  18.609  0.00  0.00    +0.000 HD
ENDBRANCH  10  20
TORSDOF 5
ENDMDL
MODEL 4
REMARK VINA RESULT:      -7.7      0.882      1.151
REMARK  Name = 
REMARK  6 active torsions:
REMARK  status: ('A' for Active; 'I' for Inactive)
REMARK    1  A    between atoms: C_1  and  C_2
REMARK    2  A    between atoms: C_2  and  C_3
REMARK    3  A    between atoms: C_3  and  C_4
REMARK    4  A    between atoms: C_4  and  N_5
REMARK    5  A    between atoms: C_9  and  C_10
REMARK    6  A    between atoms: C_19  and  O_20
REMARK                            x       y       z     vdW  Elec       q    Type
REMARK                         _______ _______ _______ _____ _____    ______ ____
ROOT
ATOM      1  C   UNL     1       4.630   5.406  17.838  0.00  0.00    +0.000 A 
ATOM      2  N   UNL     1       4.610   4.244  18.542  0.00  0.00    +0.000 NA
ATOM      3  C   UNL     1       3.621   4.093  19.444  0.00  0.00    +0.000 A 
ATOM      4  C   UNL     1       3.504   2.891  20.130  0.00  0.00    +0.000 A 
ATOM      5  C   UNL     1       2.450   2.661  21.014  0.00  0.00    +0.000 A 
ATOM      6  C   UNL     1       1.512   3.660  21.240  0.00  0.00    +0.000 A 
ATOM      7  C   UNL     1       1.638   4.885  20.582  0.00  0.00    +0.000 A 
ATOM      8  C   UNL     1       2.667   5.117  19.677  0.00  0.00    +0.000 A 
ATOM      9  N   UNL     1       2.719   6.288  19.018  0.00  0.00    +0.000 NA
ATOM     10  C   UNL     1       3.701   6.406  18.101  0.00  0.00    +0.000 A 
ENDROOT
BRANCH   1  15
ATOM     11  N   UNL     1       6.844   6.109  16.847  0.00  0.00    +0.000 N 
ATOM     12  N   UNL     1       7.510   5.950  15.686  0.00  0.00    +0.000 NA
ATOM     13  N   UNL     1       6.699   5.249  14.912  0.00  0.00    +0.000 NA
ATOM     14  N   UNL     1       5.532   4.956  15.564  0.00  0.00    +0.000 NA
ATOM     15  C   UNL     1       5.617   5.492  16.773  0.00  0.00    +0.000 A 
BRANCH  11  16
ATOM     16  C   UNL     1       7.470   6.855  17.914  0.00  0.00    +0.000 C 
BRANCH  16  17
ATOM     17  C   UNL     1       7.815   8.312  17.592  0.00  0.00    +0.000 C 
BRANCH  17  19
ATOM     18  C   UNL     1       8.955  10.441  18.277  0.00  0.00    +0.000 C 
ATOM     19  C   UNL     1       8.686   8.989  18.648  0.00  0.00    +0.000 C 
ENDBRANCH  17  19
ENDBRANCH  16  17
ENDBRANCH  11  16
ENDBRANCH   1  15
BRANCH  10  20
ATOM     20  O   UNL     1       3.632   7.571  17.415  0.00  0.00    +0.000 OA
ATOM     21  H   UNL     1       4.560   7.864  17.452  0.00  0.00    +0.000 HD
ENDBRANCH  10  20
TORSDOF 5
ENDMDL
MODEL 5
REMARK VINA RESULT:      -7.7      2.323      3.649
REMARK  Name = 
REMARK  6 active torsions:
REMARK  status: ('A' for Active; 'I' for Inactive)
REMARK    1  A    between atoms: C_1  and  C_2
REMARK    2  A    between atoms: C_2  and  C_3
REMARK    3  A    between atoms: C_3  and  C_4
REMARK    4  A    between atoms: C_4  and  N_5
REMARK    5  A    between atoms: C_9  and  C_10
REMARK    6  A    between atoms: C_19  and  O_20
REMARK                            x       y       z     vdW  Elec       q    Type
REMARK                         _______ _______ _______ _____ _____    ______ ____
ROOT
ATOM      1  C   UNL     1       4.982   4.908  16.718  0.00  0.00    +0.000 A 
ATOM      2  N   UNL     1       4.682   3.604  16.955  0.00  0.00    +0.000 NA
ATOM      3  C   UNL     1       3.539   3.354  17.624  0.00  0.00    +0.000 A 
ATOM      4  C   UNL     1       3.141   2.037  17.821  0.00  0.00    +0.000 A 
ATOM      5  C   UNL     1       1.928   1.731  18.437  0.00  0.00    +0.000 A 
ATOM      6  C   UNL     1       1.111   2.758  18.892  0.00  0.00    +0.000 A 
ATOM      7  C   UNL     1       1.516   4.084  18.731  0.00  0.00    +0.000 A 
ATOM      8  C   UNL     1       2.708   4.403  18.094  0.00  0.00    +0.000 A 
ATOM      9  N   UNL     1       3.034   5.694  17.904  0.00  0.00    +0.000 NA
ATOM     10  C   UNL     1       4.167   5.921  17.209  0.00  0.00    +0.000 A 
ENDROOT
BRANCH   1  15
ATOM     11  N   UNL     1       6.311   4.723  14.578  0.00  0.00    +0.000 N 
ATOM     12  N   UNL     1       7.486   5.174  14.094  0.00  0.00    +0.000 NA
ATOM     13  N   UNL     1       8.027   5.867  15.082  0.00  0.00    +0.000 NA
ATOM     14  N   UNL     1       7.214   5.867  16.182  0.00  0.00    +0.000 NA
ATOM     15  C   UNL     1       6.142   5.153  15.874  0.00  0.00    +0.000 A 
BRANCH  11  16
ATOM     16  C   UNL     1       5.474   3.909  13.729  0.00  0.00    +0.000 C 
BRANCH  16  17
ATOM     17  C   UNL     1       6.172   3.268  12.526  0.00  0.00    +0.000 C 
BRANCH  17  19
ATOM     18  C   UNL     1       3.957   3.390  11.351  0.00  0.00    +0.000 C 
ATOM     19  C   UNL     1       5.219   2.565  11.561  0.00  0.00    +0.000 C 
ENDBRANCH  17  19
ENDBRANCH  16  17
ENDBRANCH  11  16
ENDBRANCH   1  15
BRANCH  10  20
ATOM     20  O   UNL     1       4.380   7.238  16.978  0.00  0.00    +0.000 OA
ATOM     21  H   UNL     1       4.252   7.281  16.015  0.00  0.00    +0.000 HD
ENDBRANCH  10  20
TORSDOF 5
ENDMDL
MODEL 6
REMARK VINA RESULT:      -7.6      2.307      3.602
REMARK  Name = 
REMARK  6 active torsions:
REMARK  status: ('A' for Active; 'I' for Inactive)
REMARK    1  A    between atoms: C_1  and  C_2
REMARK    2  A    between atoms: C_2  and  C_3
REMARK    3  A    between atoms: C_3  and  C_4
REMARK    4  A    between atoms: C_4  and  N_5
REMARK    5  A    between atoms: C_9  and  C_10
REMARK    6  A    between atoms: C_19  and  O_20
REMARK                            x       y       z     vdW  Elec       q    Type
REMARK                         _______ _______ _______ _____ _____    ______ ____
ROOT
ATOM      1  C   UNL     1       4.390   4.644  17.880  0.00  0.00    +0.000 A 
ATOM      2  N   UNL     1       3.044   4.559  18.046  0.00  0.00    +0.000 NA
ATOM      3  C   UNL     1       2.603   3.866  19.114  0.00  0.00    +0.000 A 
ATOM      4  C   UNL     1       1.240   3.818  19.378  0.00  0.00    +0.000 A 
ATOM      5  C   UNL     1       0.744   3.179  20.514  0.00  0.00    +0.000 A 
ATOM      6  C   UNL     1       1.623   2.550  21.387  0.00  0.00    +0.000 A 
ATOM      7  C   UNL     1       2.991   2.561  21.114  0.00  0.00    +0.000 A 
ATOM      8  C   UNL     1       3.501   3.218  20.001  0.00  0.00    +0.000 A 
ATOM      9  N   UNL     1       4.832   3.258  19.805  0.00  0.00    +0.000 NA
ATOM     10  C   UNL     1       5.251   3.980  18.747  0.00  0.00    +0.000 A 
ENDROOT
BRANCH   1  15
ATOM     11  N   UNL     1       5.503   5.118  15.663  0.00  0.00    +0.000 N 
ATOM     12  N   UNL     1       5.733   6.186  14.874  0.00  0.00    +0.000 NA
ATOM     13  N   UNL     1       5.229   7.218  15.527  0.00  0.00    +0.000 NA
ATOM     14  N   UNL     1       4.679   6.823  16.716  0.00  0.00    +0.000 NA
ATOM     15  C   UNL     1       4.849   5.513  16.807  0.00  0.00    +0.000 A 
BRANCH  11  16
ATOM     16  C   UNL     1       5.953   3.817  15.225  0.00  0.00    +0.000 C 
BRANCH  16  17
ATOM     17  C   UNL     1       6.295   3.699  13.737  0.00  0.00    +0.000 C 
BRANCH  17  19
ATOM     18  C   UNL     1       5.396   2.710  11.612  0.00  0.00    +0.000 C 
ATOM     19  C   UNL     1       5.072   3.562  12.831  0.00  0.00    +0.000 C 
ENDBRANCH  17  19
ENDBRANCH  16  17
ENDBRANCH  11  16
ENDBRANCH   1  15
BRANCH  10  20
ATOM     20  O   UNL     1       6.601   4.051  18.669  0.00  0.00    +0.000 OA
ATOM     21  H   UNL     1       6.799   3.258  18.142  0.00  0.00    +0.000 HD
ENDBRANCH  10  20
TORSDOF 5
ENDMDL
MODEL 7
REMARK VINA RESULT:      -7.6      2.873      4.347
REMARK  Name = 
REMARK  6 active torsions:
REMARK  status: ('A' for Active; 'I' for Inactive)
REMARK    1  A    between atoms: C_1  and  C_2
REMARK    2  A    between atoms: C_2  and  C_3
REMARK    3  A    between atoms: C_3  and  C_4
REMARK    4  A    between atoms: C_4  and  N_5
REMARK    5  A    between atoms: C_9  and  C_10
REMARK    6  A    between atoms: C_19  and  O_20
REMARK                            x       y       z     vdW  Elec       q    Type
REMARK                         _______ _______ _______ _____ _____    ______ ____
ROOT
ATOM      1  C   UNL     1       6.010   4.444  16.297  0.00  0.00    +0.000 A 
ATOM      2  N   UNL     1       4.670   4.251  16.174  0.00  0.00    +0.000 NA
ATOM      3  C   UNL     1       3.968   4.094  17.313  0.00  0.00    +0.000 A 
ATOM      4  C   UNL     1       2.586   3.978  17.250  0.00  0.00    +0.000 A 
ATOM      5  C   UNL     1       1.812   3.893  18.407  0.00  0.00    +0.000 A 
ATOM      6  C   UNL     1       2.432   3.895  19.649  0.00  0.00    +0.000 A 
ATOM      7  C   UNL     1       3.823   3.976  19.725  0.00  0.00    +0.000 A 
ATOM      8  C   UNL     1       4.604   4.090  18.582  0.00  0.00    +0.000 A 
ATOM      9  N   UNL     1       5.937   4.228  18.699  0.00  0.00    +0.000 NA
ATOM     10  C   UNL     1       6.615   4.410  17.548  0.00  0.00    +0.000 A 
ENDROOT
BRANCH   1  15
ATOM     11  N   UNL     1       6.438   4.268  13.815  0.00  0.00    +0.000 N 
ATOM     12  N   UNL     1       7.283   4.803  12.910  0.00  0.00    +0.000 NA
ATOM     13  N   UNL     1       8.078   5.600  13.604  0.00  0.00    +0.000 NA
ATOM     14  N   UNL     1       7.749   5.583  14.932  0.00  0.00    +0.000 NA
ATOM     15  C   UNL     1       6.727   4.752  15.070  0.00  0.00    +0.000 A 
BRANCH  11  16
ATOM     16  C   UNL     1       5.437   3.330  13.364  0.00  0.00    +0.000 C 
BRANCH  16  17
ATOM     17  C   UNL     1       5.312   3.171  11.846  0.00  0.00    +0.000 C 
BRANCH  17  19
ATOM     18  C   UNL     1       7.180   1.675  11.091  0.00  0.00    +0.000 C 
ATOM     19  C   UNL     1       5.682   1.778  11.338  0.00  0.00    +0.000 C 
ENDBRANCH  17  19
ENDBRANCH  16  17
ENDBRANCH  11  16
ENDBRANCH   1  15
BRANCH  10  20
ATOM     20  O   UNL     1       7.934   4.634  17.753  0.00  0.00    +0.000 OA
ATOM     21  H   UNL     1       8.285   4.516  16.853  0.00  0.00    +0.000 HD
ENDBRANCH  10  20
TORSDOF 5
ENDMDL
MODEL 8
REMARK VINA RESULT:      -7.6      1.690      1.880
REMARK  Name = 
REMARK  6 active torsions:
REMARK  status: ('A' for Active; 'I' for Inactive)
REMARK    1  A    between atoms: C_1  and  C_2
REMARK    2  A    between atoms: C_2  and  C_3
REMARK    3  A    between atoms: C_3  and  C_4
REMARK    4  A    between atoms: C_4  and  N_5
REMARK    5  A    between atoms: C_9  and  C_10
REMARK    6  A    between atoms: C_19  and  O_20
REMARK                            x       y       z     vdW  Elec       q    Type
REMARK                         _______ _______ _______ _____ _____    ______ ____
ROOT
ATOM      1  C   UNL     1       4.846   3.955  17.376  0.00  0.00    +0.000 A 
ATOM      2  N   UNL     1       3.520   3.714  17.200  0.00  0.00    +0.000 NA
ATOM      3  C   UNL     1       2.799   3.435  18.303  0.00  0.00    +0.000 A 
ATOM      4  C   UNL     1       1.425   3.263  18.192  0.00  0.00    +0.000 A 
ATOM      5  C   UNL     1       0.628   3.051  19.317  0.00  0.00    +0.000 A 
ATOM      6  C   UNL     1       1.217   2.978  20.572  0.00  0.00    +0.000 A 
ATOM      7  C   UNL     1       2.601   3.114  20.693  0.00  0.00    +0.000 A 
ATOM      8  C   UNL     1       3.403   3.355  19.584  0.00  0.00    +0.000 A 
ATOM      9  N   UNL     1       4.725   3.541  19.750  0.00  0.00    +0.000 NA
ATOM     10  C   UNL     1       5.421   3.846  18.636  0.00  0.00    +0.000 A 
ENDROOT
BRANCH   1  15
ATOM     11  N   UNL     1       6.130   5.638  15.998  0.00  0.00    +0.000 N 
ATOM     12  N   UNL     1       6.771   5.672  14.813  0.00  0.00    +0.000 NA
ATOM     13  N   UNL     1       6.611   4.466  14.295  0.00  0.00    +0.000 NA
ATOM     14  N   UNL     1       5.882   3.667  15.133  0.00  0.00    +0.000 NA
ATOM     15  C   UNL     1       5.577   4.394  16.197  0.00  0.00    +0.000 A 
BRANCH  11  16
ATOM     16  C   UNL     1       6.113   6.828  16.816  0.00  0.00    +0.000 C 
BRANCH  16  17
ATOM     17  C   UNL     1       7.455   7.228  17.435  0.00  0.00    +0.000 C 
BRANCH  17  19
ATOM     18  C   UNL     1       8.748   9.029  18.612  0.00  0.00    +0.000 C 
ATOM     19  C   UNL     1       7.621   8.734  17.632  0.00  0.00    +0.000 C 
ENDBRANCH  17  19
ENDBRANCH  16  17
ENDBRANCH  11  16
ENDBRANCH   1  15
BRANCH  10  20
ATOM     20  O   UNL     1       6.724   4.110  18.895  0.00  0.00    +0.000 OA
ATOM     21  H   UNL     1       6.664   5.014  19.249  0.00  0.00    +0.000 HD
ENDBRANCH  10  20
TORSDOF 5
ENDMDL
MODEL 9
REMARK VINA RESULT:      -7.6      1.751      3.079
REMARK  Name = 
REMARK  6 active torsions:
REMARK  status: ('A' for Active; 'I' for Inactive)
REMARK    1  A    between atoms: C_1  and  C_2
REMARK    2  A    between atoms: C_2  and  C_3
REMARK    3  A    between atoms: C_3  and  C_4
REMARK    4  A    between atoms: C_4  and  N_5
REMARK    5  A    between atoms: C_9  and  C_10
REMARK    6  A    between atoms: C_19  and  O_20
REMARK                            x       y       z     vdW  Elec       q    Type
REMARK                         _______ _______ _______ _____ _____    ______ ____
ROOT
ATOM      1  C   UNL     1       4.965   4.584  18.581  0.00  0.00    +0.000 A 
ATOM      2  N   UNL     1       4.640   3.538  19.385  0.00  0.00    +0.000 NA
ATOM      3  C   UNL     1       3.417   3.560  19.950  0.00  0.00    +0.000 A 
ATOM      4  C   UNL     1       3.002   2.476  20.713  0.00  0.00    +0.000 A 
ATOM      5  C   UNL     1       1.716   2.419  21.252  0.00  0.00    +0.000 A 
ATOM      6  C   UNL     1       0.840   3.477  21.049  0.00  0.00    +0.000 A 
ATOM      7  C   UNL     1       1.257   4.586  20.313  0.00  0.00    +0.000 A 
ATOM      8  C   UNL     1       2.524   4.643  19.747  0.00  0.00    +0.000 A 
ATOM      9  N   UNL     1       2.867   5.703  18.993  0.00  0.00    +0.000 NA
ATOM     10  C   UNL     1       4.085   5.648  18.416  0.00  0.00    +0.000 A 
ENDROOT
BRANCH   1  15
ATOM     11  N   UNL     1       6.388   4.296  16.514  0.00  0.00    +0.000 N 
ATOM     12  N   UNL     1       7.700   4.285  16.203  0.00  0.00    +0.000 NA
ATOM     13  N   UNL     1       8.333   4.453  17.351  0.00  0.00    +0.000 NA
ATOM     14  N   UNL     1       7.444   4.574  18.386  0.00  0.00    +0.000 NA
ATOM     15  C   UNL     1       6.229   4.475  17.869  0.00  0.00    +0.000 A 
BRANCH  11  16
ATOM     16  C   UNL     1       5.419   4.121  15.458  0.00  0.00    +0.000 C 
BRANCH  16  17
ATOM     17  C   UNL     1       5.833   4.653  14.083  0.00  0.00    +0.000 C 
BRANCH  17  19
ATOM     18  C   UNL     1       4.972   3.411  12.078  0.00  0.00    +0.000 C 
ATOM     19  C   UNL     1       6.127   3.558  13.059  0.00  0.00    +0.000 C 
ENDBRANCH  17  19
ENDBRANCH  16  17
ENDBRANCH  11  16
ENDBRANCH   1  15
BRANCH  10  20
ATOM     20  O   UNL     1       4.321   6.702  17.601  0.00  0.00    +0.000 OA
ATOM     21  H   UNL     1       4.933   7.226  18.146  0.00  0.00    +0.000 HD
ENDBRANCH  10  20
TORSDOF 5
ENDMDL
