MODEL 1
REMARK VINA RESULT:      -8.2      0.000      0.000
REMARK  Name = 
REMARK  4 active torsions:
REMARK  status: ('A' for Active; 'I' for Inactive)
REMARK    1  A    between atoms: S_2  and  N_4
REMARK    2  A    between atoms: S_2  and  C_20
REMARK    3  A    between atoms: N_4  and  C_5
REMARK    4  A    between atoms: C_9  and  C_10
REMARK                            x       y       z     vdW  Elec       q    Type
REMARK                         _______ _______ _______ _____ _____    ______ ____
ROOT
ATOM      1  C   UNL     1       4.841   4.365  18.660  0.00  0.00    +0.000 A 
ATOM      2  C   UNL     1       4.102   3.460  17.899  0.00  0.00    +0.000 A 
ATOM      3  C   UNL     1       2.761   3.721  17.620  0.00  0.00    +0.000 A 
ATOM      4  C   UNL     1       2.170   4.899  18.080  0.00  0.00    +0.000 A 
ATOM      5  C   UNL     1       2.914   5.822  18.826  0.00  0.00    +0.000 A 
ATOM      6  C   UNL     1       4.257   5.544  19.114  0.00  0.00    +0.000 A 
ENDROOT
BRANCH   5   7
ATOM      7  C   UNL     1       2.311   7.064  19.262  0.00  0.00    +0.000 A 
ATOM      8  C   UNL     1       2.132   8.185  18.482  0.00  0.00    +0.000 A 
ATOM      9  N   UNL     1       1.478   9.078  19.285  0.00  0.00    +0.000 N 
ATOM     10  C   UNL     1       1.030  10.359  19.001  0.00  0.00    +0.000 A 
ATOM     11  C   UNL     1       0.393  11.052  19.952  0.00  0.00    +0.000 A 
ATOM     12  C   UNL     1       0.234  10.335  21.252  0.00  0.00    +0.000 A 
ATOM     13  N   UNL     1       0.649   9.139  21.533  0.00  0.00    +0.000 NA
ATOM     14  C   UNL     1       1.295   8.477  20.528  0.00  0.00    +0.000 A 
ATOM     15  N   UNL     1       1.815   7.265  20.528  0.00  0.00    +0.000 NA
ENDBRANCH   5   7
BRANCH   1  16
ATOM     16  N   UNL     1       6.206   4.133  18.949  0.00  0.00    +0.000 N 
ATOM     17  H   UNL     1       6.485   3.649  19.796  0.00  0.00    +0.000 HD
BRANCH  16  19
ATOM     18  O   UNL     1       7.483   6.260  18.564  0.00  0.00    +0.000 OA
ATOM     19  S   UNL     1       7.406   4.903  18.062  0.00  0.00    +0.000 S 
ATOM     20  O   UNL     1       8.571   4.050  18.016  0.00  0.00    +0.000 OA
BRANCH  19  21
ATOM     21  C   UNL     1       6.686   4.980  16.441  0.00  0.00    +0.000 A 
ATOM     22  C   UNL     1       5.899   6.087  16.097  0.00  0.00    +0.000 A 
ATOM     23  C   UNL     1       5.201   6.081  14.891  0.00  0.00    +0.000 A 
ATOM     24  C   UNL     1       5.313   4.990  14.027  0.00  0.00    +0.000 A 
ATOM     25  C   UNL     1       6.140   3.913  14.354  0.00  0.00    +0.000 A 
ATOM     26  C   UNL     1       6.834   3.906  15.562  0.00  0.00    +0.000 A 
ENDBRANCH  19  21
ENDBRANCH  16  19
ENDBRANCH   1  16
TORSDOF 4
ENDMDL
MODEL 2
REMARK VINA RESULT:      -8.2      0.667      1.220
REMARK  Name = 
REMARK  4 active torsions:
REMARK  status: ('A' for Active; 'I' for Inactive)
REMARK    1  A    between atoms: S_2  and  N_4
REMARK    2  A    between atoms: S_2  and  C_20
REMARK    3  A    between atoms: N_4  and  C_5
REMARK    4  A    between atoms: C_9  and  C_10
REMARK                            x       y       z     vdW  Elec       q    Type
REMARK                         _______ _______ _______ _____ _____    ______ ____
ROOT
ATOM      1  C   UNL     1       4.869   4.308  18.664  0.00  0.00    +0.000 A 
ATOM      2  C   UNL     1       4.128   3.336  17.996  0.00  0.00    +0.000 A 
ATOM      3  C   UNL     1       2.783   3.565  17.708  0.00  0.00    +0.000 A 
ATOM      4  C   UNL     1       2.190   4.777  18.065  0.00  0.00    +0.000 A 
ATOM      5  C   UNL     1       2.937   5.767  18.717  0.00  0.00    +0.000 A 
ATOM      6  C   UNL     1       4.284   5.522  19.015  0.00  0.00    +0.000 A 
ENDROOT
BRANCH   5   7
ATOM      7  C   UNL     1       2.332   7.041  19.043  0.00  0.00    +0.000 A 
ATOM      8  C   UNL     1       1.849   7.405  20.281  0.00  0.00    +0.000 A 
ATOM      9  N   UNL     1       1.431   8.698  20.134  0.00  0.00    +0.000 N 
ATOM     10  C   UNL     1       0.882   9.561  21.070  0.00  0.00    +0.000 A 
ATOM     11  C   UNL     1       0.558  10.805  20.698  0.00  0.00    +0.000 A 
ATOM     12  C   UNL     1       0.838  11.126  19.267  0.00  0.00    +0.000 A 
ATOM     13  N   UNL     1       1.348  10.330  18.380  0.00  0.00    +0.000 NA
ATOM     14  C   UNL     1       1.659   9.072  18.812  0.00  0.00    +0.000 A 
ATOM     15  N   UNL     1       2.185   8.067  18.139  0.00  0.00    +0.000 NA
ENDBRANCH   5   7
BRANCH   1  16
ATOM     16  N   UNL     1       6.238   4.109  18.959  0.00  0.00    +0.000 N 
ATOM     17  H   UNL     1       6.525   3.630  19.807  0.00  0.00    +0.000 HD
BRANCH  16  19
ATOM     18  O   UNL     1       7.471   6.265  18.592  0.00  0.00    +0.000 OA
ATOM     19  S   UNL     1       7.423   4.911  18.080  0.00  0.00    +0.000 S 
ATOM     20  O   UNL     1       8.606   4.083  18.030  0.00  0.00    +0.000 OA
BRANCH  19  21
ATOM     21  C   UNL     1       6.705   4.984  16.458  0.00  0.00    +0.000 A 
ATOM     22  C   UNL     1       5.921   6.092  16.110  0.00  0.00    +0.000 A 
ATOM     23  C   UNL     1       5.223   6.084  14.903  0.00  0.00    +0.000 A 
ATOM     24  C   UNL     1       5.333   4.989  14.043  0.00  0.00    +0.000 A 
ATOM     25  C   UNL     1       6.158   3.911  14.374  0.00  0.00    +0.000 A 
ATOM     26  C   UNL     1       6.851   3.907  15.583  0.00  0.00    +0.000 A 
ENDBRANCH  19  21
ENDBRANCH  16  19
ENDBRANCH   1  16
TORSDOF 4
ENDMDL
MODEL 3
REMARK VINA RESULT:      -8.1      2.664      4.344
REMARK  Name = 
REMARK  4 active torsions:
REMARK  status: ('A' for Active; 'I' for Inactive)
REMARK    1  A    between atoms: S_2  and  N_4
REMARK    2  A    between atoms: S_2  and  C_20
REMARK    3  A    between atoms: N_4  and  C_5
REMARK    4  A    between atoms: C_9  and  C_10
REMARK                            x       y       z     vdW  Elec       q    Type
REMARK                         _______ _______ _______ _____ _____    ______ ____
ROOT
ATOM      1  C   UNL     1       4.583   4.662  17.381  0.00  0.00    +0.000 A 
ATOM      2  C   UNL     1       5.307   5.181  16.309  0.00  0.00    +0.000 A 
ATOM      3  C   UNL     1       5.127   6.511  15.929  0.00  0.00    +0.000 A 
ATOM      4  C   UNL     1       4.245   7.326  16.640  0.00  0.00    +0.000 A 
ATOM      5  C   UNL     1       3.531   6.815  17.733  0.00  0.00    +0.000 A 
ATOM      6  C   UNL     1       3.708   5.474  18.098  0.00  0.00    +0.000 A 
ENDROOT
BRANCH   5   7
ATOM      7  C   UNL     1       2.652   7.675  18.496  0.00  0.00    +0.000 A 
ATOM      8  C   UNL     1       2.045   8.820  18.028  0.00  0.00    +0.000 A 
ATOM      9  N   UNL     1       1.272   9.262  19.064  0.00  0.00    +0.000 N 
ATOM     10  C   UNL     1       0.430  10.362  19.131  0.00  0.00    +0.000 A 
ATOM     11  C   UNL     1      -0.249  10.595  20.261  0.00  0.00    +0.000 A 
ATOM     12  C   UNL     1      -0.011   9.604  21.352  0.00  0.00    +0.000 A 
ATOM     13  N   UNL     1       0.774   8.573  21.305  0.00  0.00    +0.000 NA
ATOM     14  C   UNL     1       1.444   8.383  20.130  0.00  0.00    +0.000 A 
ATOM     15  N   UNL     1       2.295   7.431  19.802  0.00  0.00    +0.000 NA
ENDBRANCH   5   7
BRANCH   1  16
ATOM     16  N   UNL     1       4.753   3.321  17.797  0.00  0.00    +0.000 N 
ATOM     17  H   UNL     1       5.680   2.932  17.936  0.00  0.00    +0.000 HD
BRANCH  16  19
ATOM     18  O   UNL     1       2.595   2.667  16.694  0.00  0.00    +0.000 OA
ATOM     19  S   UNL     1       3.456   2.254  17.782  0.00  0.00    +0.000 S 
ATOM     20  O   UNL     1       3.964   0.904  17.871  0.00  0.00    +0.000 OA
BRANCH  19  21
ATOM     21  C   UNL     1       2.622   2.655  19.298  0.00  0.00    +0.000 A 
ATOM     22  C   UNL     1       3.308   2.510  20.510  0.00  0.00    +0.000 A 
ATOM     23  C   UNL     1       2.615   2.667  21.710  0.00  0.00    +0.000 A 
ATOM     24  C   UNL     1       1.257   2.991  21.693  0.00  0.00    +0.000 A 
ATOM     25  C   UNL     1       0.593   3.184  20.479  0.00  0.00    +0.000 A 
ATOM     26  C   UNL     1       1.275   3.020  19.275  0.00  0.00    +0.000 A 
ENDBRANCH  19  21
ENDBRANCH  16  19
ENDBRANCH   1  16
TORSDOF 4
ENDMDL
MODEL 4
REMARK VINA RESULT:      -8.0      2.690      4.445
REMARK  Name = 
REMARK  4 active torsions:
REMARK  status: ('A' for Active; 'I' for Inactive)
REMARK    1  A    between atoms: S_2  and  N_4
REMARK    2  A    between atoms: S_2  and  C_20
REMARK    3  A    between atoms: N_4  and  C_5
REMARK    4  A    between atoms: C_9  and  C_10
REMARK                            x       y       z     vdW  Elec       q    Type
REMARK                         _______ _______ _______ _____ _____    ______ ____
ROOT
ATOM      1  C   UNL     1       4.579   4.644  17.478  0.00  0.00    +0.000 A 
ATOM      2  C   UNL     1       5.344   5.153  16.430  0.00  0.00    +0.000 A 
ATOM      3  C   UNL     1       5.172   6.476  16.024  0.00  0.00    +0.000 A 
ATOM      4  C   UNL     1       4.256   7.295  16.687  0.00  0.00    +0.000 A 
ATOM      5  C   UNL     1       3.501   6.795  17.756  0.00  0.00    +0.000 A 
ATOM      6  C   UNL     1       3.670   5.460  18.147  0.00  0.00    +0.000 A 
ENDROOT
BRANCH   5   7
ATOM      7  C   UNL     1       2.586   7.660  18.471  0.00  0.00    +0.000 A 
ATOM      8  C   UNL     1       2.164   7.482  19.770  0.00  0.00    +0.000 A 
ATOM      9  N   UNL     1       1.366   8.560  20.035  0.00  0.00    +0.000 N 
ATOM     10  C   UNL     1       0.697   8.897  21.202  0.00  0.00    +0.000 A 
ATOM     11  C   UNL     1      -0.024  10.025  21.237  0.00  0.00    +0.000 A 
ATOM     12  C   UNL     1      -0.020  10.812  19.968  0.00  0.00    +0.000 A 
ATOM     13  N   UNL     1       0.598  10.508  18.870  0.00  0.00    +0.000 NA
ATOM     14  C   UNL     1       1.318   9.347  18.888  0.00  0.00    +0.000 A 
ATOM     15  N   UNL     1       2.037   8.798  17.929  0.00  0.00    +0.000 NA
ENDBRANCH   5   7
BRANCH   1  16
ATOM     16  N   UNL     1       4.740   3.310  17.919  0.00  0.00    +0.000 N 
ATOM     17  H   UNL     1       5.659   2.943  18.145  0.00  0.00    +0.000 HD
BRANCH  16  19
ATOM     18  O   UNL     1       2.621   2.687  16.725  0.00  0.00    +0.000 OA
ATOM     19  S   UNL     1       3.473   2.215  17.797  0.00  0.00    +0.000 S 
ATOM     20  O   UNL     1       4.015   0.875  17.795  0.00  0.00    +0.000 OA
BRANCH  19  21
ATOM     21  C   UNL     1       2.599   2.478  19.321  0.00  0.00    +0.000 A 
ATOM     22  C   UNL     1       1.246   2.835  19.276  0.00  0.00    +0.000 A 
ATOM     23  C   UNL     1       0.595   3.199  20.454  0.00  0.00    +0.000 A 
ATOM     24  C   UNL     1       1.288   3.179  21.667  0.00  0.00    +0.000 A 
ATOM     25  C   UNL     1       2.624   2.773  21.710  0.00  0.00    +0.000 A 
ATOM     26  C   UNL     1       3.284   2.416  20.536  0.00  0.00    +0.000 A 
ENDBRANCH  19  21
ENDBRANCH  16  19
ENDBRANCH   1  16
TORSDOF 4
ENDMDL
MODEL 5
REMARK VINA RESULT:      -8.0      2.565      3.893
REMARK  Name = 
REMARK  4 active torsions:
REMARK  status: ('A' for Active; 'I' for Inactive)
REMARK    1  A    between atoms: S_2  and  N_4
REMARK    2  A    between atoms: S_2  and  C_20
REMARK    3  A    between atoms: N_4  and  C_5
REMARK    4  A    between atoms: C_9  and  C_10
REMARK                            x       y       z     vdW  Elec       q    Type
REMARK                         _______ _______ _______ _____ _____    ______ ____
ROOT
ATOM      1  C   UNL     1       2.616   6.938  19.455  0.00  0.00    +0.000 A 
ATOM      2  C   UNL     1       3.012   7.236  18.152  0.00  0.00    +0.000 A 
ATOM      3  C   UNL     1       2.543   8.394  17.532  0.00  0.00    +0.000 A 
ATOM      4  C   UNL     1       1.702   9.265  18.226  0.00  0.00    +0.000 A 
ATOM      5  C   UNL     1       1.319   8.981  19.544  0.00  0.00    +0.000 A 
ATOM      6  C   UNL     1       1.783   7.808  20.153  0.00  0.00    +0.000 A 
ENDROOT
BRANCH   5   7
ATOM      7  C   UNL     1       0.484   9.909  20.277  0.00  0.00    +0.000 A 
ATOM      8  C   UNL     1      -0.492  10.713  19.730  0.00  0.00    +0.000 A 
ATOM      9  N   UNL     1      -1.052  11.366  20.793  0.00  0.00    +0.000 N 
ATOM     10  C   UNL     1      -2.095  12.280  20.818  0.00  0.00    +0.000 A 
ATOM     11  C   UNL     1      -2.489  12.785  21.993  0.00  0.00    +0.000 A 
ATOM     12  C   UNL     1      -1.731  12.285  23.178  0.00  0.00    +0.000 A 
ATOM     13  N   UNL     1      -0.754  11.434  23.170  0.00  0.00    +0.000 NA
ATOM     14  C   UNL     1      -0.390  10.950  21.945  0.00  0.00    +0.000 A 
ATOM     15  N   UNL     1       0.556  10.084  21.639  0.00  0.00    +0.000 NA
ENDBRANCH   5   7
BRANCH   1  16
ATOM     16  N   UNL     1       3.084   5.777  20.113  0.00  0.00    +0.000 N 
ATOM     17  H   UNL     1       3.671   5.847  20.938  0.00  0.00    +0.000 HD
BRANCH  16  19
ATOM     18  O   UNL     1       3.141   3.288  20.433  0.00  0.00    +0.000 OA
ATOM     19  S   UNL     1       2.937   4.270  19.389  0.00  0.00    +0.000 S 
ATOM     20  O   UNL     1       1.747   4.262  18.569  0.00  0.00    +0.000 OA
BRANCH  19  21
ATOM     21  C   UNL     1       4.363   4.220  18.330  0.00  0.00    +0.000 A 
ATOM     22  C   UNL     1       5.602   4.629  18.839  0.00  0.00    +0.000 A 
ATOM     23  C   UNL     1       6.690   4.746  17.976  0.00  0.00    +0.000 A 
ATOM     24  C   UNL     1       6.543   4.430  16.624  0.00  0.00    +0.000 A 
ATOM     25  C   UNL     1       5.317   3.974  16.135  0.00  0.00    +0.000 A 
ATOM     26  C   UNL     1       4.221   3.863  16.989  0.00  0.00    +0.000 A 
ENDBRANCH  19  21
ENDBRANCH  16  19
ENDBRANCH   1  16
TORSDOF 4
ENDMDL
MODEL 6
REMARK VINA RESULT:      -7.9      1.989      2.781
REMARK  Name = 
REMARK  4 active torsions:
REMARK  status: ('A' for Active; 'I' for Inactive)
REMARK    1  A    between atoms: S_2  and  N_4
REMARK    2  A    between atoms: S_2  and  C_20
REMARK    3  A    between atoms: N_4  and  C_5
REMARK    4  A    between atoms: C_9  and  C_10
REMARK                            x       y       z     vdW  Elec       q    Type
REMARK                         _______ _______ _______ _____ _____    ______ ____
ROOT
ATOM      1  C   UNL     1       4.250   4.479  17.297  0.00  0.00    +0.000 A 
ATOM      2  C   UNL     1       4.360   3.509  18.292  0.00  0.00    +0.000 A 
ATOM      3  C   UNL     1       3.873   3.771  19.573  0.00  0.00    +0.000 A 
ATOM      4  C   UNL     1       3.251   4.990  19.847  0.00  0.00    +0.000 A 
ATOM      5  C   UNL     1       3.118   5.960  18.843  0.00  0.00    +0.000 A 
ATOM      6  C   UNL     1       3.624   5.694  17.564  0.00  0.00    +0.000 A 
ENDROOT
BRANCH   5   7
ATOM      7  C   UNL     1       2.432   7.205  19.119  0.00  0.00    +0.000 A 
ATOM      8  C   UNL     1       2.218   8.219  18.212  0.00  0.00    +0.000 A 
ATOM      9  N   UNL     1       1.490   9.156  18.891  0.00  0.00    +0.000 N 
ATOM     10  C   UNL     1       0.981  10.368  18.451  0.00  0.00    +0.000 A 
ATOM     11  C   UNL     1       0.274  11.124  19.300  0.00  0.00    +0.000 A 
ATOM     12  C   UNL     1       0.112  10.549  20.668  0.00  0.00    +0.000 A 
ATOM     13  N   UNL     1       0.583   9.419  21.094  0.00  0.00    +0.000 NA
ATOM     14  C   UNL     1       1.298   8.687  20.188  0.00  0.00    +0.000 A 
ATOM     15  N   UNL     1       1.884   7.516  20.341  0.00  0.00    +0.000 NA
ENDBRANCH   5   7
BRANCH   1  16
ATOM     16  N   UNL     1       4.725   4.238  15.987  0.00  0.00    +0.000 N 
ATOM     17  H   UNL     1       4.496   3.377  15.500  0.00  0.00    +0.000 HD
BRANCH  16  19
ATOM     18  O   UNL     1       6.711   4.370  14.458  0.00  0.00    +0.000 OA
ATOM     19  S   UNL     1       5.913   5.218  15.318  0.00  0.00    +0.000 S 
ATOM     20  O   UNL     1       5.294   6.426  14.822  0.00  0.00    +0.000 OA
BRANCH  19  21
ATOM     21  C   UNL     1       6.907   5.623  16.733  0.00  0.00    +0.000 A 
ATOM     22  C   UNL     1       7.443   4.586  17.507  0.00  0.00    +0.000 A 
ATOM     23  C   UNL     1       8.088   4.889  18.705  0.00  0.00    +0.000 A 
ATOM     24  C   UNL     1       8.217   6.220  19.108  0.00  0.00    +0.000 A 
ATOM     25  C   UNL     1       7.725   7.252  18.304  0.00  0.00    +0.000 A 
ATOM     26  C   UNL     1       7.071   6.957  17.110  0.00  0.00    +0.000 A 
ENDBRANCH  19  21
ENDBRANCH  16  19
ENDBRANCH   1  16
TORSDOF 4
ENDMDL
MODEL 7
REMARK VINA RESULT:      -7.9      2.359      4.220
REMARK  Name = 
REMARK  4 active torsions:
REMARK  status: ('A' for Active; 'I' for Inactive)
REMARK    1  A    between atoms: S_2  and  N_4
REMARK    2  A    between atoms: S_2  and  C_20
REMARK    3  A    between atoms: N_4  and  C_5
REMARK    4  A    between atoms: C_9  and  C_10
REMARK                            x       y       z     vdW  Elec       q    Type
REMARK                         _______ _______ _______ _____ _____    ______ ____
ROOT
ATOM      1  C   UNL     1       5.068   4.431  18.367  0.00  0.00    +0.000 A 
ATOM      2  C   UNL     1       5.660   4.586  17.114  0.00  0.00    +0.000 A 
ATOM      3  C   UNL     1       5.282   5.650  16.296  0.00  0.00    +0.000 A 
ATOM      4  C   UNL     1       4.336   6.573  16.744  0.00  0.00    +0.000 A 
ATOM      5  C   UNL     1       3.755   6.434  18.012  0.00  0.00    +0.000 A 
ATOM      6  C   UNL     1       4.130   5.353  18.821  0.00  0.00    +0.000 A 
ENDROOT
BRANCH   5   7
ATOM      7  C   UNL     1       2.808   7.419  18.493  0.00  0.00    +0.000 A 
ATOM      8  C   UNL     1       2.208   7.415  19.732  0.00  0.00    +0.000 A 
ATOM      9  N   UNL     1       1.449   8.552  19.763  0.00  0.00    +0.000 N 
ATOM     10  C   UNL     1       0.654   9.055  20.781  0.00  0.00    +0.000 A 
ATOM     11  C   UNL     1       0.005  10.210  20.590  0.00  0.00    +0.000 A 
ATOM     12  C   UNL     1       0.225  10.841  19.256  0.00  0.00    +0.000 A 
ATOM     13  N   UNL     1       0.963  10.382  18.294  0.00  0.00    +0.000 NA
ATOM     14  C   UNL     1       1.601   9.199  18.540  0.00  0.00    +0.000 A 
ATOM     15  N   UNL     1       2.407   8.509  17.757  0.00  0.00    +0.000 NA
ENDBRANCH   5   7
BRANCH   1  16
ATOM     16  N   UNL     1       5.439   3.368  19.223  0.00  0.00    +0.000 N 
ATOM     17  H   UNL     1       6.324   3.384  19.720  0.00  0.00    +0.000 HD
BRANCH  16  19
ATOM     18  O   UNL     1       4.471   1.520  17.826  0.00  0.00    +0.000 OA
ATOM     19  S   UNL     1       4.579   1.926  19.212  0.00  0.00    +0.000 S 
ATOM     20  O   UNL     1       5.134   1.046  20.214  0.00  0.00    +0.000 OA
BRANCH  19  21
ATOM     21  C   UNL     1       2.964   2.448  19.737  0.00  0.00    +0.000 A 
ATOM     22  C   UNL     1       1.924   2.485  18.800  0.00  0.00    +0.000 A 
ATOM     23  C   UNL     1       0.698   3.043  19.161  0.00  0.00    +0.000 A 
ATOM     24  C   UNL     1       0.511   3.533  20.455  0.00  0.00    +0.000 A 
ATOM     25  C   UNL     1       1.537   3.445  21.399  0.00  0.00    +0.000 A 
ATOM     26  C   UNL     1       2.768   2.898  21.043  0.00  0.00    +0.000 A 
ENDBRANCH  19  21
ENDBRANCH  16  19
ENDBRANCH   1  16
TORSDOF 4
ENDMDL
MODEL 8
REMARK VINA RESULT:      -7.9      2.582      3.962
REMARK  Name = 
REMARK  4 active torsions:
REMARK  status: ('A' for Active; 'I' for Inactive)
REMARK    1  A    between atoms: S_2  and  N_4
REMARK    2  A    between atoms: S_2  and  C_20
REMARK    3  A    between atoms: N_4  and  C_5
REMARK    4  A    between atoms: C_9  and  C_10
REMARK                            x       y       z     vdW  Elec       q    Type
REMARK                         _______ _______ _______ _____ _____    ______ ____
ROOT
ATOM      1  C   UNL     1       2.716   6.914  19.400  0.00  0.00    +0.000 A 
ATOM      2  C   UNL     1       3.117   7.289  18.119  0.00  0.00    +0.000 A 
ATOM      3  C   UNL     1       2.583   8.437  17.533  0.00  0.00    +0.000 A 
ATOM      4  C   UNL     1       1.672   9.221  18.241  0.00  0.00    +0.000 A 
ATOM      5  C   UNL     1       1.283   8.861  19.539  0.00  0.00    +0.000 A 
ATOM      6  C   UNL     1       1.813   7.698  20.113  0.00  0.00    +0.000 A 
ENDROOT
BRANCH   5   7
ATOM      7  C   UNL     1       0.373   9.702  20.288  0.00  0.00    +0.000 A 
ATOM      8  C   UNL     1       0.139   9.622  21.643  0.00  0.00    +0.000 A 
ATOM      9  N   UNL     1      -0.736  10.637  21.914  0.00  0.00    +0.000 N 
ATOM     10  C   UNL     1      -1.287  11.028  23.124  0.00  0.00    +0.000 A 
ATOM     11  C   UNL     1      -2.120  12.076  23.152  0.00  0.00    +0.000 A 
ATOM     12  C   UNL     1      -2.363  12.720  21.828  0.00  0.00    +0.000 A 
ATOM     13  N   UNL     1      -1.857  12.364  20.688  0.00  0.00    +0.000 NA
ATOM     14  C   UNL     1      -1.015  11.289  20.716  0.00  0.00    +0.000 A 
ATOM     15  N   UNL     1      -0.364  10.716  19.722  0.00  0.00    +0.000 NA
ENDBRANCH   5   7
BRANCH   1  16
ATOM     16  N   UNL     1       3.249   5.762  20.024  0.00  0.00    +0.000 N 
ATOM     17  H   UNL     1       3.869   5.842  20.824  0.00  0.00    +0.000 HD
BRANCH  16  19
ATOM     18  O   UNL     1       3.320   3.271  20.329  0.00  0.00    +0.000 OA
ATOM     19  S   UNL     1       3.117   4.258  19.289  0.00  0.00    +0.000 S 
ATOM     20  O   UNL     1       1.933   4.247  18.461  0.00  0.00    +0.000 OA
BRANCH  19  21
ATOM     21  C   UNL     1       4.551   4.224  18.241  0.00  0.00    +0.000 A 
ATOM     22  C   UNL     1       5.773   4.686  18.746  0.00  0.00    +0.000 A 
ATOM     23  C   UNL     1       6.863   4.814  17.886  0.00  0.00    +0.000 A 
ATOM     24  C   UNL     1       6.735   4.457  16.542  0.00  0.00    +0.000 A 
ATOM     25  C   UNL     1       5.527   3.948  16.059  0.00  0.00    +0.000 A 
ATOM     26  C   UNL     1       4.430   3.826  16.909  0.00  0.00    +0.000 A 
ENDBRANCH  19  21
ENDBRANCH  16  19
ENDBRANCH   1  16
TORSDOF 4
ENDMDL
MODEL 9
REMARK VINA RESULT:      -7.9      2.300      4.036
REMARK  Name = 
REMARK  4 active torsions:
REMARK  status: ('A' for Active; 'I' for Inactive)
REMARK    1  A    between atoms: S_2  and  N_4
REMARK    2  A    between atoms: S_2  and  C_20
REMARK    3  A    between atoms: N_4  and  C_5
REMARK    4  A    between atoms: C_9  and  C_10
REMARK                            x       y       z     vdW  Elec       q    Type
REMARK                         _______ _______ _______ _____ _____    ______ ____
ROOT
ATOM      1  C   UNL     1       5.049   4.407  18.313  0.00  0.00    +0.000 A 
ATOM      2  C   UNL     1       5.597   4.575  17.043  0.00  0.00    +0.000 A 
ATOM      3  C   UNL     1       5.201   5.654  16.254  0.00  0.00    +0.000 A 
ATOM      4  C   UNL     1       4.278   6.578  16.748  0.00  0.00    +0.000 A 
ATOM      5  C   UNL     1       3.741   6.426  18.033  0.00  0.00    +0.000 A 
ATOM      6  C   UNL     1       4.134   5.330  18.813  0.00  0.00    +0.000 A 
ENDROOT
BRANCH   5   7
ATOM      7  C   UNL     1       2.819   7.410  18.560  0.00  0.00    +0.000 A 
ATOM      8  C   UNL     1       2.333   8.501  17.873  0.00  0.00    +0.000 A 
ATOM      9  N   UNL     1       1.462   9.106  18.736  0.00  0.00    +0.000 N 
ATOM     10  C   UNL     1       0.676  10.232  18.552  0.00  0.00    +0.000 A 
ATOM     11  C   UNL     1      -0.124  10.638  19.546  0.00  0.00    +0.000 A 
ATOM     12  C   UNL     1      -0.071   9.796  20.778  0.00  0.00    +0.000 A 
ATOM     13  N   UNL     1       0.660   8.742  20.966  0.00  0.00    +0.000 NA
ATOM     14  C   UNL     1       1.459   8.373  19.921  0.00  0.00    +0.000 A 
ATOM     15  N   UNL     1       2.294   7.356  19.830  0.00  0.00    +0.000 NA
ENDBRANCH   5   7
BRANCH   1  16
ATOM     16  N   UNL     1       5.440   3.329  19.141  0.00  0.00    +0.000 N 
ATOM     17  H   UNL     1       6.352   3.320  19.588  0.00  0.00    +0.000 HD
BRANCH  16  19
ATOM     18  O   UNL     1       4.406   1.481  17.793  0.00  0.00    +0.000 OA
ATOM     19  S   UNL     1       4.545   1.909  19.169  0.00  0.00    +0.000 S 
ATOM     20  O   UNL     1       5.094   1.033  20.179  0.00  0.00    +0.000 OA
BRANCH  19  21
ATOM     21  C   UNL     1       2.952   2.479  19.709  0.00  0.00    +0.000 A 
ATOM     22  C   UNL     1       1.907   2.555  18.780  0.00  0.00    +0.000 A 
ATOM     23  C   UNL     1       0.702   3.150  19.154  0.00  0.00    +0.000 A 
ATOM     24  C   UNL     1       0.540   3.638  20.453  0.00  0.00    +0.000 A 
ATOM     25  C   UNL     1       1.570   3.511  21.388  0.00  0.00    +0.000 A 
ATOM     26  C   UNL     1       2.780   2.927  21.020  0.00  0.00    +0.000 A 
ENDBRANCH  19  21
ENDBRANCH  16  19
ENDBRANCH   1  16
TORSDOF 4
ENDMDL
