MODEL 1
REMARK VINA RESULT:      -6.9      0.000      0.000
REMARK  Name = 
REMARK  3 active torsions:
REMARK  status: ('A' for Active; 'I' for Inactive)
REMARK    1  A    between atoms: S_2  and  N_4
REMARK    2  A    between atoms: S_2  and  C_10
REMARK    3  A    between atoms: N_4  and  N_5
REMARK                            x       y       z     vdW  Elec       q    Type
REMARK                         _______ _______ _______ _____ _____    ______ ____
ROOT
ATOM      1  O   UNL     1       5.671   4.203  19.348  0.00  0.00    +0.000 OA
ATOM      2  S   UNL     1       4.709   4.508  18.315  0.00  0.00    +0.000 S 
ATOM      3  O   UNL     1       4.544   5.834  17.762  0.00  0.00    +0.000 OA
ENDROOT
BRANCH   2   4
ATOM      4  C   UNL     1       3.120   3.927  18.844  0.00  0.00    +0.000 A 
ATOM      5  C   UNL     1       2.495   4.546  19.931  0.00  0.00    +0.000 A 
ATOM      6  C   UNL     1       1.280   4.045  20.396  0.00  0.00    +0.000 A 
ATOM      7  C   UNL     1       0.693   2.942  19.772  0.00  0.00    +0.000 A 
ATOM      8  C   UNL     1       1.310   2.344  18.671  0.00  0.00    +0.000 A 
ATOM      9  C   UNL     1       2.526   2.837  18.201  0.00  0.00    +0.000 A 
ENDBRANCH   2   4
BRANCH   2  10
ATOM     10  N   UNL     1       4.995   3.495  16.978  0.00  0.00    +0.000 N 
ATOM     11  H   UNL     1       4.085   3.360  16.535  0.00  0.00    +0.000 HD
BRANCH  10  12
ATOM     12  N   UNL     1       5.890   4.125  16.069  0.00  0.00    +0.000 N 
ATOM     13  C   UNL     1       5.609   4.521  14.801  0.00  0.00    +0.000 A 
ATOM     14  N   UNL     1       6.643   5.182  14.329  0.00  0.00    +0.000 NA
ATOM     15  N   UNL     1       7.611   5.221  15.315  0.00  0.00    +0.000 NA
ATOM     16  C   UNL     1       7.132   4.583  16.362  0.00  0.00    +0.000 A 
ENDBRANCH  10  12
ENDBRANCH   2  10
TORSDOF 3
ENDMDL
MODEL 2
REMARK VINA RESULT:      -6.7      0.500      1.629
REMARK  Name = 
REMARK  3 active torsions:
REMARK  status: ('A' for Active; 'I' for Inactive)
REMARK    1  A    between atoms: S_2  and  N_4
REMARK    2  A    between atoms: S_2  and  C_10
REMARK    3  A    between atoms: N_4  and  N_5
REMARK                            x       y       z     vdW  Elec       q    Type
REMARK                         _______ _______ _______ _____ _____    ______ ____
ROOT
ATOM      1  O   UNL     1       5.273   5.328  19.391  0.00  0.00    +0.000 OA
ATOM      2  S   UNL     1       4.372   5.075  18.292  0.00  0.00    +0.000 S 
ATOM      3  O   UNL     1       3.910   6.115  17.400  0.00  0.00    +0.000 OA
ENDROOT
BRANCH   2   4
ATOM      4  C   UNL     1       2.956   4.214  18.919  0.00  0.00    +0.000 A 
ATOM      5  C   UNL     1       2.347   3.236  18.127  0.00  0.00    +0.000 A 
ATOM      6  C   UNL     1       1.189   2.608  18.586  0.00  0.00    +0.000 A 
ATOM      7  C   UNL     1       0.654   2.950  19.830  0.00  0.00    +0.000 A 
ATOM      8  C   UNL     1       1.281   3.910  20.628  0.00  0.00    +0.000 A 
ATOM      9  C   UNL     1       2.437   4.544  20.175  0.00  0.00    +0.000 A 
ENDBRANCH   2   4
BRANCH   2  10
ATOM     10  N   UNL     1       5.053   3.886  17.283  0.00  0.00    +0.000 N 
ATOM     11  H   UNL     1       4.262   3.415  16.839  0.00  0.00    +0.000 HD
BRANCH  10  12
ATOM     12  N   UNL     1       5.874   4.494  16.293  0.00  0.00    +0.000 N 
ATOM     13  C   UNL     1       7.102   5.040  16.484  0.00  0.00    +0.000 A 
ATOM     14  N   UNL     1       7.599   5.377  15.315  0.00  0.00    +0.000 NA
ATOM     15  N   UNL     1       6.675   5.034  14.344  0.00  0.00    +0.000 NA
ATOM     16  C   UNL     1       5.643   4.495  14.956  0.00  0.00    +0.000 A 
ENDBRANCH  10  12
ENDBRANCH   2  10
TORSDOF 3
ENDMDL
MODEL 3
REMARK VINA RESULT:      -6.6      2.666      5.120
REMARK  Name = 
REMARK  3 active torsions:
REMARK  status: ('A' for Active; 'I' for Inactive)
REMARK    1  A    between atoms: S_2  and  N_4
REMARK    2  A    between atoms: S_2  and  C_10
REMARK    3  A    between atoms: N_4  and  N_5
REMARK                            x       y       z     vdW  Elec       q    Type
REMARK                         _______ _______ _______ _____ _____    ______ ____
ROOT
ATOM      1  O   UNL     1       4.327   5.593  19.507  0.00  0.00    +0.000 OA
ATOM      2  S   UNL     1       5.589   4.966  19.191  0.00  0.00    +0.000 S 
ATOM      3  O   UNL     1       6.821   5.294  19.874  0.00  0.00    +0.000 OA
ENDROOT
BRANCH   2   4
ATOM      4  C   UNL     1       5.865   5.117  17.447  0.00  0.00    +0.000 A 
ATOM      5  C   UNL     1       5.031   5.947  16.694  0.00  0.00    +0.000 A 
ATOM      6  C   UNL     1       5.198   6.012  15.311  0.00  0.00    +0.000 A 
ATOM      7  C   UNL     1       6.198   5.259  14.692  0.00  0.00    +0.000 A 
ATOM      8  C   UNL     1       7.046   4.450  15.453  0.00  0.00    +0.000 A 
ATOM      9  C   UNL     1       6.884   4.378  16.835  0.00  0.00    +0.000 A 
ENDBRANCH   2   4
BRANCH   2  10
ATOM     10  N   UNL     1       5.423   3.280  19.349  0.00  0.00    +0.000 N 
ATOM     11  H   UNL     1       5.675   3.067  20.316  0.00  0.00    +0.000 HD
BRANCH  10  12
ATOM     12  N   UNL     1       4.076   2.895  19.102  0.00  0.00    +0.000 N 
ATOM     13  C   UNL     1       3.534   2.569  17.901  0.00  0.00    +0.000 A 
ATOM     14  N   UNL     1       2.307   2.139  18.096  0.00  0.00    +0.000 NA
ATOM     15  N   UNL     1       2.052   2.181  19.455  0.00  0.00    +0.000 NA
ATOM     16  C   UNL     1       3.137   2.633  20.046  0.00  0.00    +0.000 A 
ENDBRANCH  10  12
ENDBRANCH   2  10
TORSDOF 3
ENDMDL
MODEL 4
REMARK VINA RESULT:      -6.6      0.724      1.190
REMARK  Name = 
REMARK  3 active torsions:
REMARK  status: ('A' for Active; 'I' for Inactive)
REMARK    1  A    between atoms: S_2  and  N_4
REMARK    2  A    between atoms: S_2  and  C_10
REMARK    3  A    between atoms: N_4  and  N_5
REMARK                            x       y       z     vdW  Elec       q    Type
REMARK                         _______ _______ _______ _____ _____    ______ ____
ROOT
ATOM      1  O   UNL     1       5.873   4.415  19.314  0.00  0.00    +0.000 OA
ATOM      2  S   UNL     1       4.865   4.638  18.305  0.00  0.00    +0.000 S 
ATOM      3  O   UNL     1       4.596   5.940  17.737  0.00  0.00    +0.000 OA
ENDROOT
BRANCH   2   4
ATOM      4  C   UNL     1       3.333   3.962  18.889  0.00  0.00    +0.000 A 
ATOM      5  C   UNL     1       3.295   3.341  20.140  0.00  0.00    +0.000 A 
ATOM      6  C   UNL     1       2.111   2.743  20.571  0.00  0.00    +0.000 A 
ATOM      7  C   UNL     1       0.975   2.777  19.760  0.00  0.00    +0.000 A 
ATOM      8  C   UNL     1       1.012   3.422  18.521  0.00  0.00    +0.000 A 
ATOM      9  C   UNL     1       2.192   4.020  18.082  0.00  0.00    +0.000 A 
ENDBRANCH   2   4
BRANCH   2  10
ATOM     10  N   UNL     1       5.180   3.623  16.976  0.00  0.00    +0.000 N 
ATOM     11  H   UNL     1       4.266   3.386  16.586  0.00  0.00    +0.000 HD
BRANCH  10  12
ATOM     12  N   UNL     1       5.957   4.315  16.005  0.00  0.00    +0.000 N 
ATOM     13  C   UNL     1       7.209   4.812  16.175  0.00  0.00    +0.000 A 
ATOM     14  N   UNL     1       7.644   5.259  15.018  0.00  0.00    +0.000 NA
ATOM     15  N   UNL     1       6.656   5.038  14.077  0.00  0.00    +0.000 NA
ATOM     16  C   UNL     1       5.647   4.459  14.693  0.00  0.00    +0.000 A 
ENDBRANCH  10  12
ENDBRANCH   2  10
TORSDOF 3
ENDMDL
MODEL 5
REMARK VINA RESULT:      -6.6      1.136      1.451
REMARK  Name = 
REMARK  3 active torsions:
REMARK  status: ('A' for Active; 'I' for Inactive)
REMARK    1  A    between atoms: S_2  and  N_4
REMARK    2  A    between atoms: S_2  and  C_10
REMARK    3  A    between atoms: N_4  and  N_5
REMARK                            x       y       z     vdW  Elec       q    Type
REMARK                         _______ _______ _______ _____ _____    ______ ____
ROOT
ATOM      1  O   UNL     1       5.869   5.423  19.650  0.00  0.00    +0.000 OA
ATOM      2  S   UNL     1       4.763   5.184  18.754  0.00  0.00    +0.000 S 
ATOM      3  O   UNL     1       4.197   6.214  17.912  0.00  0.00    +0.000 OA
ENDROOT
BRANCH   2   4
ATOM      4  C   UNL     1       3.446   4.441  19.680  0.00  0.00    +0.000 A 
ATOM      5  C   UNL     1       3.595   3.132  20.146  0.00  0.00    +0.000 A 
ATOM      6  C   UNL     1       2.534   2.518  20.812  0.00  0.00    +0.000 A 
ATOM      7  C   UNL     1       1.340   3.213  21.015  0.00  0.00    +0.000 A 
ATOM      8  C   UNL     1       1.206   4.530  20.569  0.00  0.00    +0.000 A 
ATOM      9  C   UNL     1       2.261   5.150  19.901  0.00  0.00    +0.000 A 
ENDBRANCH   2   4
BRANCH   2  10
ATOM     10  N   UNL     1       5.172   3.914  17.698  0.00  0.00    +0.000 N 
ATOM     11  H   UNL     1       4.284   3.536  17.363  0.00  0.00    +0.000 HD
BRANCH  10  12
ATOM     12  N   UNL     1       5.933   4.412  16.604  0.00  0.00    +0.000 N 
ATOM     13  C   UNL     1       5.457   4.770  15.384  0.00  0.00    +0.000 A 
ATOM     14  N   UNL     1       6.436   5.308  14.692  0.00  0.00    +0.000 NA
ATOM     15  N   UNL     1       7.570   5.305  15.484  0.00  0.00    +0.000 NA
ATOM     16  C   UNL     1       7.242   4.766  16.639  0.00  0.00    +0.000 A 
ENDBRANCH  10  12
ENDBRANCH   2  10
TORSDOF 3
ENDMDL
MODEL 6
REMARK VINA RESULT:      -6.6      1.493      2.053
REMARK  Name = 
REMARK  3 active torsions:
REMARK  status: ('A' for Active; 'I' for Inactive)
REMARK    1  A    between atoms: S_2  and  N_4
REMARK    2  A    between atoms: S_2  and  C_10
REMARK    3  A    between atoms: N_4  and  N_5
REMARK                            x       y       z     vdW  Elec       q    Type
REMARK                         _______ _______ _______ _____ _____    ______ ____
ROOT
ATOM      1  O   UNL     1       3.553   5.461  17.526  0.00  0.00    +0.000 OA
ATOM      2  S   UNL     1       3.329   4.035  17.540  0.00  0.00    +0.000 S 
ATOM      3  O   UNL     1       2.554   3.352  16.527  0.00  0.00    +0.000 OA
ENDROOT
BRANCH   2   4
ATOM      4  C   UNL     1       2.681   3.588  19.128  0.00  0.00    +0.000 A 
ATOM      5  C   UNL     1       3.529   2.996  20.068  0.00  0.00    +0.000 A 
ATOM      6  C   UNL     1       3.007   2.576  21.291  0.00  0.00    +0.000 A 
ATOM      7  C   UNL     1       1.651   2.756  21.572  0.00  0.00    +0.000 A 
ATOM      8  C   UNL     1       0.814   3.372  20.638  0.00  0.00    +0.000 A 
ATOM      9  C   UNL     1       1.327   3.792  19.412  0.00  0.00    +0.000 A 
ENDBRANCH   2   4
BRANCH   2  10
ATOM     10  N   UNL     1       4.833   3.240  17.568  0.00  0.00    +0.000 N 
ATOM     11  H   UNL     1       4.660   2.308  17.184  0.00  0.00    +0.000 HD
BRANCH  10  12
ATOM     12  N   UNL     1       5.770   3.934  16.754  0.00  0.00    +0.000 N 
ATOM     13  C   UNL     1       6.871   4.605  17.179  0.00  0.00    +0.000 A 
ATOM     14  N   UNL     1       7.557   4.996  16.128  0.00  0.00    +0.000 NA
ATOM     15  N   UNL     1       6.890   4.561  14.998  0.00  0.00    +0.000 NA
ATOM     16  C   UNL     1       5.816   3.914  15.398  0.00  0.00    +0.000 A 
ENDBRANCH  10  12
ENDBRANCH   2  10
TORSDOF 3
ENDMDL
MODEL 7
REMARK VINA RESULT:      -6.5      1.576      2.086
REMARK  Name = 
REMARK  3 active torsions:
REMARK  status: ('A' for Active; 'I' for Inactive)
REMARK    1  A    between atoms: S_2  and  N_4
REMARK    2  A    between atoms: S_2  and  C_10
REMARK    3  A    between atoms: N_4  and  N_5
REMARK                            x       y       z     vdW  Elec       q    Type
REMARK                         _______ _______ _______ _____ _____    ______ ____
ROOT
ATOM      1  O   UNL     1       3.299   6.111  17.744  0.00  0.00    +0.000 OA
ATOM      2  S   UNL     1       3.692   4.723  17.803  0.00  0.00    +0.000 S 
ATOM      3  O   UNL     1       3.593   3.829  16.670  0.00  0.00    +0.000 OA
ENDROOT
BRANCH   2   4
ATOM      4  C   UNL     1       2.866   3.968  19.178  0.00  0.00    +0.000 A 
ATOM      5  C   UNL     1       1.511   4.238  19.390  0.00  0.00    +0.000 A 
ATOM      6  C   UNL     1       0.876   3.704  20.512  0.00  0.00    +0.000 A 
ATOM      7  C   UNL     1       1.589   2.902  21.404  0.00  0.00    +0.000 A 
ATOM      8  C   UNL     1       2.937   2.614  21.172  0.00  0.00    +0.000 A 
ATOM      9  C   UNL     1       3.580   3.145  20.055  0.00  0.00    +0.000 A 
ENDBRANCH   2   4
BRANCH   2  10
ATOM     10  N   UNL     1       5.314   4.629  18.309  0.00  0.00    +0.000 N 
ATOM     11  H   UNL     1       5.538   3.632  18.334  0.00  0.00    +0.000 HD
BRANCH  10  12
ATOM     12  N   UNL     1       6.158   5.294  17.376  0.00  0.00    +0.000 N 
ATOM     13  C   UNL     1       6.636   6.560  17.477  0.00  0.00    +0.000 A 
ATOM     14  N   UNL     1       7.486   6.767  16.496  0.00  0.00    +0.000 NA
ATOM     15  N   UNL     1       7.566   5.607  15.748  0.00  0.00    +0.000 NA
ATOM     16  C   UNL     1       6.761   4.725  16.302  0.00  0.00    +0.000 A 
ENDBRANCH  10  12
ENDBRANCH   2  10
TORSDOF 3
ENDMDL
MODEL 8
REMARK VINA RESULT:      -6.5      1.265      1.413
REMARK  Name = 
REMARK  3 active torsions:
REMARK  status: ('A' for Active; 'I' for Inactive)
REMARK    1  A    between atoms: S_2  and  N_4
REMARK    2  A    between atoms: S_2  and  C_10
REMARK    3  A    between atoms: N_4  and  N_5
REMARK                            x       y       z     vdW  Elec       q    Type
REMARK                         _______ _______ _______ _____ _____    ______ ____
ROOT
ATOM      1  O   UNL     1       4.921   5.454  19.473  0.00  0.00    +0.000 OA
ATOM      2  S   UNL     1       3.781   5.644  18.609  0.00  0.00    +0.000 S 
ATOM      3  O   UNL     1       3.160   6.933  18.400  0.00  0.00    +0.000 OA
ENDROOT
BRANCH   2   4
ATOM      4  C   UNL     1       2.521   4.493  19.088  0.00  0.00    +0.000 A 
ATOM      5  C   UNL     1       2.042   4.513  20.400  0.00  0.00    +0.000 A 
ATOM      6  C   UNL     1       1.104   3.562  20.801  0.00  0.00    +0.000 A 
ATOM      7  C   UNL     1       0.644   2.608  19.892  0.00  0.00    +0.000 A 
ATOM      8  C   UNL     1       1.106   2.609  18.574  0.00  0.00    +0.000 A 
ATOM      9  C   UNL     1       2.046   3.554  18.166  0.00  0.00    +0.000 A 
ENDBRANCH   2   4
BRANCH   2  10
ATOM     10  N   UNL     1       4.166   5.073  17.052  0.00  0.00    +0.000 N 
ATOM     11  H   UNL     1       3.594   5.622  16.408  0.00  0.00    +0.000 HD
BRANCH  10  12
ATOM     12  N   UNL     1       5.546   5.287  16.780  0.00  0.00    +0.000 N 
ATOM     13  C   UNL     1       6.450   4.348  16.402  0.00  0.00    +0.000 A 
ATOM     14  N   UNL     1       7.583   4.949  16.112  0.00  0.00    +0.000 NA
ATOM     15  N   UNL     1       7.405   6.307  16.300  0.00  0.00    +0.000 NA
ATOM     16  C   UNL     1       6.164   6.491  16.696  0.00  0.00    +0.000 A 
ENDBRANCH  10  12
ENDBRANCH   2  10
TORSDOF 3
ENDMDL
MODEL 9
REMARK VINA RESULT:      -6.5      1.291      1.864
REMARK  Name = 
REMARK  3 active torsions:
REMARK  status: ('A' for Active; 'I' for Inactive)
REMARK    1  A    between atoms: S_2  and  N_4
REMARK    2  A    between atoms: S_2  and  C_10
REMARK    3  A    between atoms: N_4  and  N_5
REMARK                            x       y       z     vdW  Elec       q    Type
REMARK                         _______ _______ _______ _____ _____    ______ ____
ROOT
ATOM      1  O   UNL     1       5.028   5.520  19.468  0.00  0.00    +0.000 OA
ATOM      2  S   UNL     1       3.840   5.719  18.672  0.00  0.00    +0.000 S 
ATOM      3  O   UNL     1       3.180   7.000  18.553  0.00  0.00    +0.000 OA
ENDROOT
BRANCH   2   4
ATOM      4  C   UNL     1       2.633   4.516  19.161  0.00  0.00    +0.000 A 
ATOM      5  C   UNL     1       2.079   3.675  18.193  0.00  0.00    +0.000 A 
ATOM      6  C   UNL     1       1.076   2.777  18.561  0.00  0.00    +0.000 A 
ATOM      7  C   UNL     1       0.642   2.718  19.886  0.00  0.00    +0.000 A 
ATOM      8  C   UNL     1       1.219   3.544  20.855  0.00  0.00    +0.000 A 
ATOM      9  C   UNL     1       2.220   4.446  20.495  0.00  0.00    +0.000 A 
ENDBRANCH   2   4
BRANCH   2  10
ATOM     10  N   UNL     1       4.158   5.227  17.074  0.00  0.00    +0.000 N 
ATOM     11  H   UNL     1       3.616   5.857  16.478  0.00  0.00    +0.000 HD
BRANCH  10  12
ATOM     12  N   UNL     1       5.545   5.360  16.786  0.00  0.00    +0.000 N 
ATOM     13  C   UNL     1       6.391   4.370  16.404  0.00  0.00    +0.000 A 
ATOM     14  N   UNL     1       7.553   4.904  16.100  0.00  0.00    +0.000 NA
ATOM     15  N   UNL     1       7.455   6.272  16.283  0.00  0.00    +0.000 NA
ATOM     16  C   UNL     1       6.230   6.527  16.691  0.00  0.00    +0.000 A 
ENDBRANCH  10  12
ENDBRANCH   2  10
TORSDOF 3
ENDMDL
