MODEL 1
REMARK VINA RESULT:      -7.9      0.000      0.000
REMARK  Name = 
REMARK  9 active torsions:
REMARK  status: ('A' for Active; 'I' for Inactive)
REMARK    1  A    between atoms: C_1  and  N_2
REMARK    2  A    between atoms: C_4  and  C_5
REMARK    3  A    between atoms: C_5  and  C_6
REMARK    4  A    between atoms: C_5  and  C_7
REMARK    5  A    between atoms: C_5  and  C_8
REMARK    6  A    between atoms: C_10  and  C_11
REMARK    7  A    between atoms: C_17  and  C_18
REMARK    8  A    between atoms: C_20  and  C_21
REMARK    9  A    between atoms: N_23  and  C_24
REMARK                            x       y       z     vdW  Elec       q    Type
REMARK                         _______ _______ _______ _____ _____    ______ ____
ROOT
ATOM      1  C   UNL     1       8.059  15.866  18.521  0.00  0.00    +0.000 C 
ATOM      2  O   UNL     1       8.424  16.977  18.137  0.00  0.00    +0.000 OA
ATOM      3  N   UNL     1       8.948  14.782  18.548  0.00  0.00    +0.000 N 
ATOM      4  C   UNL     1      10.382  15.024  18.423  0.00  0.00    +0.000 C 
ATOM      5  C   UNL     1      10.960  14.234  17.255  0.00  0.00    +0.000 C 
ATOM      6  C   UNL     1      10.684  12.739  17.418  0.00  0.00    +0.000 C 
ATOM      7  C   UNL     1       9.194  12.459  17.643  0.00  0.00    +0.000 C 
ATOM      8  C   UNL     1       8.575  13.374  18.710  0.00  0.00    +0.000 C 
ENDROOT
BRANCH   1  14
ATOM      9  C   UNL     1       7.053  15.676  21.459  0.00  0.00    +0.000 C 
ATOM     10  N   UNL     1       6.263  15.584  20.252  0.00  0.00    +0.000 N 
ATOM     11  N   UNL     1       4.921  15.493  20.367  0.00  0.00    +0.000 NA
ATOM     12  C   UNL     1       4.482  15.370  19.110  0.00  0.00    +0.000 A 
ATOM     13  C   UNL     1       5.566  15.349  18.208  0.00  0.00    +0.000 A 
ATOM     14  C   UNL     1       6.698  15.635  18.949  0.00  0.00    +0.000 A 
BRANCH  12  15
ATOM     15  C   UNL     1       2.999  15.293  18.807  0.00  0.00    +0.000 C 
ATOM     16  C   UNL     1       2.601  16.408  17.817  0.00  0.00    +0.000 C 
ATOM     17  C   UNL     1       2.621  13.941  18.163  0.00  0.00    +0.000 C 
ATOM     18  C   UNL     1       2.187  15.452  20.105  0.00  0.00    +0.000 C 
ENDBRANCH  12  15
ENDBRANCH   1  14
BRANCH   7  19
ATOM     19  C   UNL     1       8.959  11.034  18.012  0.00  0.00    +0.000 A 
ATOM     20  C   UNL     1       8.258  10.010  17.436  0.00  0.00    +0.000 A 
ATOM     21  C   UNL     1       8.432   8.914  18.318  0.00  0.00    +0.000 A 
ATOM     22  N   UNL     1       9.171   9.268  19.384  0.00  0.00    +0.000 NA
ATOM     23  O   UNL     1       9.505  10.598  19.183  0.00  0.00    +0.000 OA
BRANCH  21  24
ATOM     24  C   UNL     1       7.909   7.564  18.118  0.00  0.00    +0.000 C 
ATOM     25  O   UNL     1       8.183   6.688  18.933  0.00  0.00    +0.000 OA
ATOM     26  N   UNL     1       7.149   7.393  16.978  0.00  0.00    +0.000 N 
ATOM     27  H   UNL     1       7.150   8.162  16.312  0.00  0.00    +0.000 HD
BRANCH  26  28
ATOM     28  C   UNL     1       6.456   6.213  16.605  0.00  0.00    +0.000 A 
ATOM     29  C   UNL     1       7.101   5.153  15.961  0.00  0.00    +0.000 A 
ATOM     30  C   UNL     1       6.405   3.998  15.593  0.00  0.00    +0.000 A 
ATOM     31  C   UNL     1       5.048   3.885  15.873  0.00  0.00    +0.000 A 
ATOM     32  C   UNL     1       4.391   4.921  16.532  0.00  0.00    +0.000 A 
ATOM     33  C   UNL     1       5.090   6.078  16.900  0.00  0.00    +0.000 A 
ATOM     34 CL   UNL     1       4.212   7.342  17.691  0.00  0.00    +0.000 Cl
ENDBRANCH  26  28
ENDBRANCH  21  24
ENDBRANCH   7  19
TORSDOF 5
ENDMDL
MODEL 2
REMARK VINA RESULT:      -7.9      3.883      6.322
REMARK  Name = 
REMARK  9 active torsions:
REMARK  status: ('A' for Active; 'I' for Inactive)
REMARK    1  A    between atoms: C_1  and  N_2
REMARK    2  A    between atoms: C_4  and  C_5
REMARK    3  A    between atoms: C_5  and  C_6
REMARK    4  A    between atoms: C_5  and  C_7
REMARK    5  A    between atoms: C_5  and  C_8
REMARK    6  A    between atoms: C_10  and  C_11
REMARK    7  A    between atoms: C_17  and  C_18
REMARK    8  A    between atoms: C_20  and  C_21
REMARK    9  A    between atoms: N_23  and  C_24
REMARK                            x       y       z     vdW  Elec       q    Type
REMARK                         _______ _______ _______ _____ _____    ______ ____
ROOT
ATOM      1  C   UNL     1       1.110  14.311  19.312  0.00  0.00    +0.000 C 
ATOM      2  O   UNL     1       0.351  15.278  19.371  0.00  0.00    +0.000 OA
ATOM      3  N   UNL     1       0.665  13.069  18.838  0.00  0.00    +0.000 N 
ATOM      4  C   UNL     1      -0.602  12.984  18.120  0.00  0.00    +0.000 C 
ATOM      5  C   UNL     1      -1.534  11.984  18.793  0.00  0.00    +0.000 C 
ATOM      6  C   UNL     1      -0.880  10.605  18.884  0.00  0.00    +0.000 C 
ATOM      7  C   UNL     1       0.497  10.674  19.552  0.00  0.00    +0.000 C 
ATOM      8  C   UNL     1       1.376  11.795  18.980  0.00  0.00    +0.000 C 
ENDROOT
BRANCH   1  14
ATOM      9  C   UNL     1       3.528  15.168  17.550  0.00  0.00    +0.000 C 
ATOM     10  N   UNL     1       3.541  14.829  18.955  0.00  0.00    +0.000 N 
ATOM     11  N   UNL     1       4.695  14.970  19.640  0.00  0.00    +0.000 NA
ATOM     12  C   UNL     1       4.412  14.536  20.873  0.00  0.00    +0.000 A 
ATOM     13  C   UNL     1       3.077  14.087  20.944  0.00  0.00    +0.000 A 
ATOM     14  C   UNL     1       2.488  14.419  19.737  0.00  0.00    +0.000 A 
BRANCH  12  15
ATOM     15  C   UNL     1       5.453  14.584  21.974  0.00  0.00    +0.000 C 
ATOM     16  C   UNL     1       5.274  15.865  22.817  0.00  0.00    +0.000 C 
ATOM     17  C   UNL     1       5.324  13.377  22.929  0.00  0.00    +0.000 C 
ATOM     18  C   UNL     1       6.866  14.568  21.364  0.00  0.00    +0.000 C 
ENDBRANCH  12  15
ENDBRANCH   1  14
BRANCH   7  19
ATOM     19  C   UNL     1       1.218   9.373  19.447  0.00  0.00    +0.000 A 
ATOM     20  C   UNL     1       1.861   8.727  18.426  0.00  0.00    +0.000 A 
ATOM     21  C   UNL     1       2.314   7.512  18.999  0.00  0.00    +0.000 A 
ATOM     22  N   UNL     1       1.936   7.417  20.286  0.00  0.00    +0.000 NA
ATOM     23  O   UNL     1       1.254   8.591  20.563  0.00  0.00    +0.000 OA
BRANCH  21  24
ATOM     24  C   UNL     1       3.103   6.488  18.318  0.00  0.00    +0.000 C 
ATOM     25  O   UNL     1       2.677   5.339  18.264  0.00  0.00    +0.000 OA
ATOM     26  N   UNL     1       4.308   6.924  17.802  0.00  0.00    +0.000 N 
ATOM     27  H   UNL     1       4.606   7.859  18.070  0.00  0.00    +0.000 HD
BRANCH  26  28
ATOM     28  C   UNL     1       5.209   6.156  17.021  0.00  0.00    +0.000 A 
ATOM     29  C   UNL     1       5.112   6.100  15.627  0.00  0.00    +0.000 A 
ATOM     30  C   UNL     1       6.002   5.334  14.869  0.00  0.00    +0.000 A 
ATOM     31  C   UNL     1       7.012   4.615  15.500  0.00  0.00    +0.000 A 
ATOM     32  C   UNL     1       7.138   4.672  16.885  0.00  0.00    +0.000 A 
ATOM     33  C   UNL     1       6.245   5.441  17.644  0.00  0.00    +0.000 A 
ATOM     34 CL   UNL     1       6.436   5.450  19.363  0.00  0.00    +0.000 Cl
ENDBRANCH  26  28
ENDBRANCH  21  24
ENDBRANCH   7  19
TORSDOF 5
ENDMDL
MODEL 3
REMARK VINA RESULT:      -7.8      3.762      6.376
REMARK  Name = 
REMARK  9 active torsions:
REMARK  status: ('A' for Active; 'I' for Inactive)
REMARK    1  A    between atoms: C_1  and  N_2
REMARK    2  A    between atoms: C_4  and  C_5
REMARK    3  A    between atoms: C_5  and  C_6
REMARK    4  A    between atoms: C_5  and  C_7
REMARK    5  A    between atoms: C_5  and  C_8
REMARK    6  A    between atoms: C_10  and  C_11
REMARK    7  A    between atoms: C_17  and  C_18
REMARK    8  A    between atoms: C_20  and  C_21
REMARK    9  A    between atoms: N_23  and  C_24
REMARK                            x       y       z     vdW  Elec       q    Type
REMARK                         _______ _______ _______ _____ _____    ______ ____
ROOT
ATOM      1  C   UNL     1       0.506  14.223  18.795  0.00  0.00    +0.000 C 
ATOM      2  O   UNL     1      -0.343  15.113  18.800  0.00  0.00    +0.000 OA
ATOM      3  N   UNL     1       0.188  12.920  18.384  0.00  0.00    +0.000 N 
ATOM      4  C   UNL     1      -1.058  12.678  17.663  0.00  0.00    +0.000 C 
ATOM      5  C   UNL     1      -1.897  11.628  18.381  0.00  0.00    +0.000 C 
ATOM      6  C   UNL     1      -1.115  10.325  18.547  0.00  0.00    +0.000 C 
ATOM      7  C   UNL     1       0.241  10.560  19.220  0.00  0.00    +0.000 C 
ATOM      8  C   UNL     1       1.016  11.730  18.596  0.00  0.00    +0.000 C 
ENDROOT
BRANCH   1  14
ATOM      9  C   UNL     1       1.653  13.806  21.657  0.00  0.00    +0.000 C 
ATOM     10  N   UNL     1       2.362  14.266  20.485  0.00  0.00    +0.000 N 
ATOM     11  N   UNL     1       3.694  14.465  20.576  0.00  0.00    +0.000 NA
ATOM     12  C   UNL     1       4.050  14.929  19.374  0.00  0.00    +0.000 A 
ATOM     13  C   UNL     1       2.920  15.054  18.538  0.00  0.00    +0.000 A 
ATOM     14  C   UNL     1       1.862  14.484  19.224  0.00  0.00    +0.000 A 
BRANCH  12  15
ATOM     15  C   UNL     1       5.500  15.230  19.052  0.00  0.00    +0.000 C 
ATOM     16  C   UNL     1       6.399  14.850  20.247  0.00  0.00    +0.000 C 
ATOM     17  C   UNL     1       5.988  14.423  17.828  0.00  0.00    +0.000 C 
ATOM     18  C   UNL     1       5.671  16.727  18.741  0.00  0.00    +0.000 C 
ENDBRANCH  12  15
ENDBRANCH   1  14
BRANCH   7  19
ATOM     19  C   UNL     1       1.084   9.331  19.187  0.00  0.00    +0.000 A 
ATOM     20  C   UNL     1       1.654   8.600  18.180  0.00  0.00    +0.000 A 
ATOM     21  C   UNL     1       2.315   7.534  18.838  0.00  0.00    +0.000 A 
ATOM     22  N   UNL     1       2.127   7.600  20.168  0.00  0.00    +0.000 NA
ATOM     23  O   UNL     1       1.359   8.734  20.382  0.00  0.00    +0.000 OA
BRANCH  21  24
ATOM     24  C   UNL     1       3.117   6.496  18.194  0.00  0.00    +0.000 C 
ATOM     25  O   UNL     1       2.670   5.356  18.113  0.00  0.00    +0.000 OA
ATOM     26  N   UNL     1       4.355   6.909  17.741  0.00  0.00    +0.000 N 
ATOM     27  H   UNL     1       4.657   7.837  18.029  0.00  0.00    +0.000 HD
BRANCH  26  28
ATOM     28  C   UNL     1       5.278   6.125  17.004  0.00  0.00    +0.000 A 
ATOM     29  C   UNL     1       5.221   6.038  15.609  0.00  0.00    +0.000 A 
ATOM     30  C   UNL     1       6.133   5.257  14.894  0.00  0.00    +0.000 A 
ATOM     31  C   UNL     1       7.126   4.554  15.569  0.00  0.00    +0.000 A 
ATOM     32  C   UNL     1       7.212   4.642  16.956  0.00  0.00    +0.000 A 
ATOM     33  C   UNL     1       6.297   5.426  17.671  0.00  0.00    +0.000 A 
ATOM     34 CL   UNL     1       6.439   5.473  19.395  0.00  0.00    +0.000 Cl
ENDBRANCH  26  28
ENDBRANCH  21  24
ENDBRANCH   7  19
TORSDOF 5
ENDMDL
MODEL 4
REMARK VINA RESULT:      -7.7      4.737      6.993
REMARK  Name = 
REMARK  9 active torsions:
REMARK  status: ('A' for Active; 'I' for Inactive)
REMARK    1  A    between atoms: C_1  and  N_2
REMARK    2  A    between atoms: C_4  and  C_5
REMARK    3  A    between atoms: C_5  and  C_6
REMARK    4  A    between atoms: C_5  and  C_7
REMARK    5  A    between atoms: C_5  and  C_8
REMARK    6  A    between atoms: C_10  and  C_11
REMARK    7  A    between atoms: C_17  and  C_18
REMARK    8  A    between atoms: C_20  and  C_21
REMARK    9  A    between atoms: N_23  and  C_24
REMARK                            x       y       z     vdW  Elec       q    Type
REMARK                         _______ _______ _______ _____ _____    ______ ____
ROOT
ATOM      1  C   UNL     1      -0.356  13.341  21.994  0.00  0.00    +0.000 C 
ATOM      2  O   UNL     1      -0.799  13.842  23.027  0.00  0.00    +0.000 OA
ATOM      3  N   UNL     1      -0.504  11.971  21.733  0.00  0.00    +0.000 N 
ATOM      4  C   UNL     1      -1.450  11.187  22.520  0.00  0.00    +0.000 C 
ATOM      5  C   UNL     1      -0.748  10.007  23.182  0.00  0.00    +0.000 C 
ATOM      6  C   UNL     1      -0.063   9.125  22.139  0.00  0.00    +0.000 C 
ATOM      7  C   UNL     1       0.870   9.937  21.235  0.00  0.00    +0.000 C 
ATOM      8  C   UNL     1       0.209  11.216  20.699  0.00  0.00    +0.000 C 
ENDROOT
BRANCH   1  14
ATOM      9  C   UNL     1      -1.573  15.623  20.265  0.00  0.00    +0.000 C 
ATOM     10  N   UNL     1      -0.201  15.170  20.281  0.00  0.00    +0.000 N 
ATOM     11  N   UNL     1       0.707  15.842  19.542  0.00  0.00    +0.000 NA
ATOM     12  C   UNL     1       1.849  15.168  19.716  0.00  0.00    +0.000 A 
ATOM     13  C   UNL     1       1.640  14.045  20.542  0.00  0.00    +0.000 A 
ATOM     14  C   UNL     1       0.343  14.144  21.016  0.00  0.00    +0.000 A 
BRANCH  12  15
ATOM     15  C   UNL     1       3.140  15.646  19.081  0.00  0.00    +0.000 C 
ATOM     16  C   UNL     1       3.862  14.467  18.395  0.00  0.00    +0.000 C 
ATOM     17  C   UNL     1       2.878  16.722  18.004  0.00  0.00    +0.000 C 
ATOM     18  C   UNL     1       4.061  16.254  20.154  0.00  0.00    +0.000 C 
ENDBRANCH  12  15
ENDBRANCH   1  14
BRANCH   7  19
ATOM     19  C   UNL     1       1.367   9.118  20.093  0.00  0.00    +0.000 A 
ATOM     20  C   UNL     1       2.186   8.026  19.996  0.00  0.00    +0.000 A 
ATOM     21  C   UNL     1       2.264   7.756  18.606  0.00  0.00    +0.000 A 
ATOM     22  N   UNL     1       1.557   8.657  17.902  0.00  0.00    +0.000 NA
ATOM     23  O   UNL     1       0.990   9.506  18.841  0.00  0.00    +0.000 OA
BRANCH  21  24
ATOM     24  C   UNL     1       2.989   6.648  17.990  0.00  0.00    +0.000 C 
ATOM     25  O   UNL     1       2.440   5.555  17.888  0.00  0.00    +0.000 OA
ATOM     26  N   UNL     1       4.277   6.942  17.587  0.00  0.00    +0.000 N 
ATOM     27  H   UNL     1       4.654   7.837  17.889  0.00  0.00    +0.000 HD
BRANCH  26  28
ATOM     28  C   UNL     1       5.150   6.074  16.883  0.00  0.00    +0.000 A 
ATOM     29  C   UNL     1       5.121   5.974  15.489  0.00  0.00    +0.000 A 
ATOM     30  C   UNL     1       5.983   5.110  14.807  0.00  0.00    +0.000 A 
ATOM     31  C   UNL     1       6.896   4.336  15.516  0.00  0.00    +0.000 A 
ATOM     32  C   UNL     1       6.954   4.435  16.903  0.00  0.00    +0.000 A 
ATOM     33  C   UNL     1       6.090   5.302  17.585  0.00  0.00    +0.000 A 
ATOM     34 CL   UNL     1       6.191   5.361  19.312  0.00  0.00    +0.000 Cl
ENDBRANCH  26  28
ENDBRANCH  21  24
ENDBRANCH   7  19
TORSDOF 5
ENDMDL
MODEL 5
REMARK VINA RESULT:      -7.7      3.658      8.516
REMARK  Name = 
REMARK  9 active torsions:
REMARK  status: ('A' for Active; 'I' for Inactive)
REMARK    1  A    between atoms: C_1  and  N_2
REMARK    2  A    between atoms: C_4  and  C_5
REMARK    3  A    between atoms: C_5  and  C_6
REMARK    4  A    between atoms: C_5  and  C_7
REMARK    5  A    between atoms: C_5  and  C_8
REMARK    6  A    between atoms: C_10  and  C_11
REMARK    7  A    between atoms: C_17  and  C_18
REMARK    8  A    between atoms: C_20  and  C_21
REMARK    9  A    between atoms: N_23  and  C_24
REMARK                            x       y       z     vdW  Elec       q    Type
REMARK                         _______ _______ _______ _____ _____    ______ ____
ROOT
ATOM      1  C   UNL     1       3.283   5.546  17.551  0.00  0.00    +0.000 C 
ATOM      2  O   UNL     1       2.792   4.438  17.339  0.00  0.00    +0.000 OA
ATOM      3  N   UNL     1       4.556   5.879  17.067  0.00  0.00    +0.000 N 
ATOM      4  C   UNL     1       5.180   5.041  16.049  0.00  0.00    +0.000 C 
ATOM      5  C   UNL     1       6.541   4.545  16.523  0.00  0.00    +0.000 C 
ATOM      6  C   UNL     1       7.455   5.717  16.880  0.00  0.00    +0.000 C 
ATOM      7  C   UNL     1       6.790   6.668  17.881  0.00  0.00    +0.000 C 
ATOM      8  C   UNL     1       5.353   7.037  17.482  0.00  0.00    +0.000 C 
ENDROOT
BRANCH   1  14
ATOM      9  C   UNL     1       2.459   5.342  20.544  0.00  0.00    +0.000 C 
ATOM     10  N   UNL     1       2.238   6.453  19.647  0.00  0.00    +0.000 N 
ATOM     11  N   UNL     1       1.695   7.584  20.144  0.00  0.00    +0.000 NA
ATOM     12  C   UNL     1       1.567   8.392  19.086  0.00  0.00    +0.000 A 
ATOM     13  C   UNL     1       2.003   7.741  17.913  0.00  0.00    +0.000 A 
ATOM     14  C   UNL     1       2.569   6.544  18.315  0.00  0.00    +0.000 A 
BRANCH  12  15
ATOM     15  C   UNL     1       1.035   9.802  19.242  0.00  0.00    +0.000 C 
ATOM     16  C   UNL     1       1.909  10.791  18.443  0.00  0.00    +0.000 C 
ATOM     17  C   UNL     1      -0.411   9.924  18.711  0.00  0.00    +0.000 C 
ATOM     18  C   UNL     1       1.038  10.205  20.727  0.00  0.00    +0.000 C 
ENDBRANCH  12  15
ENDBRANCH   1  14
BRANCH   7  19
ATOM     19  C   UNL     1       7.590   7.912  18.062  0.00  0.00    +0.000 A 
ATOM     20  C   UNL     1       7.540   9.161  17.505  0.00  0.00    +0.000 A 
ATOM     21  C   UNL     1       8.607   9.870  18.111  0.00  0.00    +0.000 A 
ATOM     22  N   UNL     1       9.285   9.081  18.963  0.00  0.00    +0.000 NA
ATOM     23  O   UNL     1       8.638   7.855  18.934  0.00  0.00    +0.000 OA
BRANCH  21  24
ATOM     24  C   UNL     1       8.943  11.272  17.879  0.00  0.00    +0.000 C 
ATOM     25  O   UNL     1       8.100  12.018  17.389  0.00  0.00    +0.000 OA
ATOM     26  N   UNL     1      10.231  11.631  18.224  0.00  0.00    +0.000 N 
ATOM     27  H   UNL     1      10.867  10.872  18.456  0.00  0.00    +0.000 HD
BRANCH  26  28
ATOM     28  C   UNL     1      10.772  12.942  18.184  0.00  0.00    +0.000 A 
ATOM     29  C   UNL     1      11.168  13.539  16.984  0.00  0.00    +0.000 A 
ATOM     30  C   UNL     1      11.706  14.829  16.959  0.00  0.00    +0.000 A 
ATOM     31  C   UNL     1      11.849  15.545  18.143  0.00  0.00    +0.000 A 
ATOM     32  C   UNL     1      11.443  14.976  19.347  0.00  0.00    +0.000 A 
ATOM     33  C   UNL     1      10.904  13.683  19.370  0.00  0.00    +0.000 A 
ATOM     34 CL   UNL     1      10.444  13.020  20.900  0.00  0.00    +0.000 Cl
ENDBRANCH  26  28
ENDBRANCH  21  24
ENDBRANCH   7  19
TORSDOF 5
ENDMDL
MODEL 6
REMARK VINA RESULT:      -7.6      2.849      4.148
REMARK  Name = 
REMARK  9 active torsions:
REMARK  status: ('A' for Active; 'I' for Inactive)
REMARK    1  A    between atoms: C_1  and  N_2
REMARK    2  A    between atoms: C_4  and  C_5
REMARK    3  A    between atoms: C_5  and  C_6
REMARK    4  A    between atoms: C_5  and  C_7
REMARK    5  A    between atoms: C_5  and  C_8
REMARK    6  A    between atoms: C_10  and  C_11
REMARK    7  A    between atoms: C_17  and  C_18
REMARK    8  A    between atoms: C_20  and  C_21
REMARK    9  A    between atoms: N_23  and  C_24
REMARK                            x       y       z     vdW  Elec       q    Type
REMARK                         _______ _______ _______ _____ _____    ______ ____
ROOT
ATOM      1  C   UNL     1      10.098  13.561  20.913  0.00  0.00    +0.000 C 
ATOM      2  O   UNL     1      10.812  14.562  20.883  0.00  0.00    +0.000 OA
ATOM      3  N   UNL     1      10.384  12.443  20.117  0.00  0.00    +0.000 N 
ATOM      4  C   UNL     1      11.694  12.327  19.485  0.00  0.00    +0.000 C 
ATOM      5  C   UNL     1      11.550  12.166  17.976  0.00  0.00    +0.000 C 
ATOM      6  C   UNL     1      10.685  10.952  17.637  0.00  0.00    +0.000 C 
ATOM      7  C   UNL     1       9.335  10.999  18.359  0.00  0.00    +0.000 C 
ATOM      8  C   UNL     1       9.475  11.325  19.854  0.00  0.00    +0.000 C 
ENDROOT
BRANCH   1  14
ATOM      9  C   UNL     1       7.257  14.629  20.226  0.00  0.00    +0.000 C 
ATOM     10  N   UNL     1       7.673  13.953  21.434  0.00  0.00    +0.000 N 
ATOM     11  N   UNL     1       6.736  13.652  22.357  0.00  0.00    +0.000 NA
ATOM     12  C   UNL     1       7.419  13.092  23.362  0.00  0.00    +0.000 A 
ATOM     13  C   UNL     1       8.800  13.078  23.073  0.00  0.00    +0.000 A 
ATOM     14  C   UNL     1       8.930  13.504  21.763  0.00  0.00    +0.000 A 
BRANCH  12  15
ATOM     15  C   UNL     1       6.705  12.559  24.588  0.00  0.00    +0.000 C 
ATOM     16  C   UNL     1       7.725  12.258  25.706  0.00  0.00    +0.000 C 
ATOM     17  C   UNL     1       5.693  13.584  25.145  0.00  0.00    +0.000 C 
ATOM     18  C   UNL     1       5.942  11.271  24.235  0.00  0.00    +0.000 C 
ENDBRANCH  12  15
ENDBRANCH   1  14
BRANCH   7  19
ATOM     19  C   UNL     1       8.587   9.720  18.197  0.00  0.00    +0.000 A 
ATOM     20  C   UNL     1       7.472   9.357  17.491  0.00  0.00    +0.000 A 
ATOM     21  C   UNL     1       7.287   7.984  17.791  0.00  0.00    +0.000 A 
ATOM     22  N   UNL     1       8.221   7.551  18.656  0.00  0.00    +0.000 NA
ATOM     23  O   UNL     1       9.039   8.643  18.902  0.00  0.00    +0.000 OA
BRANCH  21  24
ATOM     24  C   UNL     1       6.245   7.122  17.239  0.00  0.00    +0.000 C 
ATOM     25  O   UNL     1       6.132   7.021  16.021  0.00  0.00    +0.000 OA
ATOM     26  N   UNL     1       5.444   6.498  18.175  0.00  0.00    +0.000 N 
ATOM     27  H   UNL     1       5.545   6.808  19.139  0.00  0.00    +0.000 HD
BRANCH  26  28
ATOM     28  C   UNL     1       4.429   5.545  17.904  0.00  0.00    +0.000 A 
ATOM     29  C   UNL     1       3.085   5.800  18.191  0.00  0.00    +0.000 A 
ATOM     30  C   UNL     1       2.095   4.850  17.925  0.00  0.00    +0.000 A 
ATOM     31  C   UNL     1       2.438   3.627  17.358  0.00  0.00    +0.000 A 
ATOM     32  C   UNL     1       3.769   3.361  17.047  0.00  0.00    +0.000 A 
ATOM     33  C   UNL     1       4.760   4.315  17.314  0.00  0.00    +0.000 A 
ATOM     34 CL   UNL     1       6.399   3.914  16.929  0.00  0.00    +0.000 Cl
ENDBRANCH  26  28
ENDBRANCH  21  24
ENDBRANCH   7  19
TORSDOF 5
ENDMDL
MODEL 7
REMARK VINA RESULT:      -7.5      4.296      6.731
REMARK  Name = 
REMARK  9 active torsions:
REMARK  status: ('A' for Active; 'I' for Inactive)
REMARK    1  A    between atoms: C_1  and  N_2
REMARK    2  A    between atoms: C_4  and  C_5
REMARK    3  A    between atoms: C_5  and  C_6
REMARK    4  A    between atoms: C_5  and  C_7
REMARK    5  A    between atoms: C_5  and  C_8
REMARK    6  A    between atoms: C_10  and  C_11
REMARK    7  A    between atoms: C_17  and  C_18
REMARK    8  A    between atoms: C_20  and  C_21
REMARK    9  A    between atoms: N_23  and  C_24
REMARK                            x       y       z     vdW  Elec       q    Type
REMARK                         _______ _______ _______ _____ _____    ______ ____
ROOT
ATOM      1  C   UNL     1       0.355  13.693  21.791  0.00  0.00    +0.000 C 
ATOM      2  O   UNL     1      -0.133  14.259  22.768  0.00  0.00    +0.000 OA
ATOM      3  N   UNL     1      -0.047  12.400  21.426  0.00  0.00    +0.000 N 
ATOM      4  C   UNL     1      -1.262  11.836  22.003  0.00  0.00    +0.000 C 
ATOM      5  C   UNL     1      -0.962  10.512  22.696  0.00  0.00    +0.000 C 
ATOM      6  C   UNL     1      -0.324   9.520  21.724  0.00  0.00    +0.000 C 
ATOM      7  C   UNL     1       0.905  10.118  21.031  0.00  0.00    +0.000 C 
ATOM      8  C   UNL     1       0.645  11.526  20.476  0.00  0.00    +0.000 C 
ENDROOT
BRANCH   1  14
ATOM      9  C   UNL     1      -0.096  15.220  19.117  0.00  0.00    +0.000 C 
ATOM     10  N   UNL     1       1.151  15.034  19.823  0.00  0.00    +0.000 N 
ATOM     11  N   UNL     1       2.255  15.650  19.350  0.00  0.00    +0.000 NA
ATOM     12  C   UNL     1       3.239  15.254  20.165  0.00  0.00    +0.000 A 
ATOM     13  C   UNL     1       2.746  14.353  21.132  0.00  0.00    +0.000 A 
ATOM     14  C   UNL     1       1.370  14.337  20.987  0.00  0.00    +0.000 A 
BRANCH  12  15
ATOM     15  C   UNL     1       4.651  15.779  19.995  0.00  0.00    +0.000 C 
ATOM     16  C   UNL     1       4.686  17.299  20.254  0.00  0.00    +0.000 C 
ATOM     17  C   UNL     1       5.627  15.113  20.991  0.00  0.00    +0.000 C 
ATOM     18  C   UNL     1       5.150  15.493  18.568  0.00  0.00    +0.000 C 
ENDBRANCH  12  15
ENDBRANCH   1  14
BRANCH   7  19
ATOM     19  C   UNL     1       1.395   9.233  19.935  0.00  0.00    +0.000 A 
ATOM     20  C   UNL     1       2.224   8.146  19.894  0.00  0.00    +0.000 A 
ATOM     21  C   UNL     1       2.284   7.789  18.524  0.00  0.00    +0.000 A 
ATOM     22  N   UNL     1       1.555   8.635  17.775  0.00  0.00    +0.000 NA
ATOM     23  O   UNL     1       0.993   9.536  18.667  0.00  0.00    +0.000 OA
BRANCH  21  24
ATOM     24  C   UNL     1       3.012   6.652  17.967  0.00  0.00    +0.000 C 
ATOM     25  O   UNL     1       2.485   5.543  17.968  0.00  0.00    +0.000 OA
ATOM     26  N   UNL     1       4.279   6.940  17.498  0.00  0.00    +0.000 N 
ATOM     27  H   UNL     1       4.646   7.862  17.719  0.00  0.00    +0.000 HD
BRANCH  26  28
ATOM     28  C   UNL     1       5.147   6.039  16.831  0.00  0.00    +0.000 A 
ATOM     29  C   UNL     1       5.139   5.902  15.440  0.00  0.00    +0.000 A 
ATOM     30  C   UNL     1       5.996   5.006  14.795  0.00  0.00    +0.000 A 
ATOM     31  C   UNL     1       6.883   4.235  15.538  0.00  0.00    +0.000 A 
ATOM     32  C   UNL     1       6.921   4.369  16.923  0.00  0.00    +0.000 A 
ATOM     33  C   UNL     1       6.061   5.268  17.568  0.00  0.00    +0.000 A 
ATOM     34 CL   UNL     1       6.137   5.370  19.294  0.00  0.00    +0.000 Cl
ENDBRANCH  26  28
ENDBRANCH  21  24
ENDBRANCH   7  19
TORSDOF 5
ENDMDL
MODEL 8
REMARK VINA RESULT:      -7.5      6.865      9.336
REMARK  Name = 
REMARK  9 active torsions:
REMARK  status: ('A' for Active; 'I' for Inactive)
REMARK    1  A    between atoms: C_1  and  N_2
REMARK    2  A    between atoms: C_4  and  C_5
REMARK    3  A    between atoms: C_5  and  C_6
REMARK    4  A    between atoms: C_5  and  C_7
REMARK    5  A    between atoms: C_5  and  C_8
REMARK    6  A    between atoms: C_10  and  C_11
REMARK    7  A    between atoms: C_17  and  C_18
REMARK    8  A    between atoms: C_20  and  C_21
REMARK    9  A    between atoms: N_23  and  C_24
REMARK                            x       y       z     vdW  Elec       q    Type
REMARK                         _______ _______ _______ _____ _____    ______ ____
ROOT
ATOM      1  C   UNL     1      -3.517  14.245  22.027  0.00  0.00    +0.000 C 
ATOM      2  O   UNL     1      -3.853  15.377  22.372  0.00  0.00    +0.000 OA
ATOM      3  N   UNL     1      -2.200  13.795  22.201  0.00  0.00    +0.000 N 
ATOM      4  C   UNL     1      -1.296  14.539  23.071  0.00  0.00    +0.000 C 
ATOM      5  C   UNL     1      -0.039  14.950  22.313  0.00  0.00    +0.000 C 
ATOM      6  C   UNL     1       0.669  13.727  21.728  0.00  0.00    +0.000 C 
ATOM      7  C   UNL     1      -0.281  12.874  20.882  0.00  0.00    +0.000 C 
ATOM      8  C   UNL     1      -1.617  12.599  21.588  0.00  0.00    +0.000 C 
ENDROOT
BRANCH   1  14
ATOM      9  C   UNL     1      -5.879  12.811  23.458  0.00  0.00    +0.000 C 
ATOM     10  N   UNL     1      -5.524  12.736  22.059  0.00  0.00    +0.000 N 
ATOM     11  N   UNL     1      -6.332  12.047  21.226  0.00  0.00    +0.000 NA
ATOM     12  C   UNL     1      -5.726  12.111  20.036  0.00  0.00    +0.000 A 
ATOM     13  C   UNL     1      -4.509  12.817  20.139  0.00  0.00    +0.000 A 
ATOM     14  C   UNL     1      -4.466  13.338  21.420  0.00  0.00    +0.000 A 
BRANCH  12  15
ATOM     15  C   UNL     1      -6.357  11.492  18.805  0.00  0.00    +0.000 C 
ATOM     16  C   UNL     1      -5.283  11.244  17.726  0.00  0.00    +0.000 C 
ATOM     17  C   UNL     1      -7.016  10.133  19.128  0.00  0.00    +0.000 C 
ATOM     18  C   UNL     1      -7.439  12.430  18.241  0.00  0.00    +0.000 C 
ENDBRANCH  12  15
ENDBRANCH   1  14
BRANCH   7  19
ATOM     19  C   UNL     1       0.351  11.581  20.493  0.00  0.00    +0.000 A 
ATOM     20  C   UNL     1       0.632  10.987  19.293  0.00  0.00    +0.000 A 
ATOM     21  C   UNL     1       1.224   9.745  19.635  0.00  0.00    +0.000 A 
ATOM     22  N   UNL     1       1.269   9.586  20.970  0.00  0.00    +0.000 NA
ATOM     23  O   UNL     1       0.725  10.745  21.503  0.00  0.00    +0.000 OA
BRANCH  21  24
ATOM     24  C   UNL     1       1.745   8.758  18.693  0.00  0.00    +0.000 C 
ATOM     25  O   UNL     1       1.663   8.976  17.488  0.00  0.00    +0.000 OA
ATOM     26  N   UNL     1       2.277   7.621  19.270  0.00  0.00    +0.000 N 
ATOM     27  H   UNL     1       2.122   7.504  20.268  0.00  0.00    +0.000 HD
BRANCH  26  28
ATOM     28  C   UNL     1       2.926   6.562  18.585  0.00  0.00    +0.000 A 
ATOM     29  C   UNL     1       3.880   6.804  17.593  0.00  0.00    +0.000 A 
ATOM     30  C   UNL     1       4.508   5.751  16.920  0.00  0.00    +0.000 A 
ATOM     31  C   UNL     1       4.192   4.435  17.239  0.00  0.00    +0.000 A 
ATOM     32  C   UNL     1       3.258   4.172  18.238  0.00  0.00    +0.000 A 
ATOM     33  C   UNL     1       2.630   5.229  18.912  0.00  0.00    +0.000 A 
ATOM     34 CL   UNL     1       1.458   4.839  20.123  0.00  0.00    +0.000 Cl
ENDBRANCH  26  28
ENDBRANCH  21  24
ENDBRANCH   7  19
TORSDOF 5
ENDMDL
MODEL 9
REMARK VINA RESULT:      -7.5      6.445      8.790
REMARK  Name = 
REMARK  9 active torsions:
REMARK  status: ('A' for Active; 'I' for Inactive)
REMARK    1  A    between atoms: C_1  and  N_2
REMARK    2  A    between atoms: C_4  and  C_5
REMARK    3  A    between atoms: C_5  and  C_6
REMARK    4  A    between atoms: C_5  and  C_7
REMARK    5  A    between atoms: C_5  and  C_8
REMARK    6  A    between atoms: C_10  and  C_11
REMARK    7  A    between atoms: C_17  and  C_18
REMARK    8  A    between atoms: C_20  and  C_21
REMARK    9  A    between atoms: N_23  and  C_24
REMARK                            x       y       z     vdW  Elec       q    Type
REMARK                         _______ _______ _______ _____ _____    ______ ____
ROOT
ATOM      1  C   UNL     1      -2.432  14.265  22.111  0.00  0.00    +0.000 C 
ATOM      2  O   UNL     1      -2.568  15.421  22.509  0.00  0.00    +0.000 OA
ATOM      3  N   UNL     1      -1.158  13.704  21.935  0.00  0.00    +0.000 N 
ATOM      4  C   UNL     1       0.005  14.366  22.515  0.00  0.00    +0.000 C 
ATOM      5  C   UNL     1       1.042  14.669  21.439  0.00  0.00    +0.000 C 
ATOM      6  C   UNL     1       1.463  13.392  20.713  0.00  0.00    +0.000 C 
ATOM      7  C   UNL     1       0.253  12.624  20.170  0.00  0.00    +0.000 C 
ATOM      8  C   UNL     1      -0.863  12.463  21.214  0.00  0.00    +0.000 C 
ENDROOT
BRANCH   1  14
ATOM      9  C   UNL     1      -4.150  12.646  24.137  0.00  0.00    +0.000 C 
ATOM     10  N   UNL     1      -4.349  12.758  22.710  0.00  0.00    +0.000 N 
ATOM     11  N   UNL     1      -5.442  12.183  22.166  0.00  0.00    +0.000 NA
ATOM     12  C   UNL     1      -5.323  12.407  20.853  0.00  0.00    +0.000 A 
ATOM     13  C   UNL     1      -4.124  13.097  20.576  0.00  0.00    +0.000 A 
ATOM     14  C   UNL     1      -3.580  13.443  21.800  0.00  0.00    +0.000 A 
BRANCH  12  15
ATOM     15  C   UNL     1      -6.398  11.955  19.885  0.00  0.00    +0.000 C 
ATOM     16  C   UNL     1      -5.756  11.273  18.659  0.00  0.00    +0.000 C 
ATOM     17  C   UNL     1      -7.356  10.934  20.537  0.00  0.00    +0.000 C 
ATOM     18  C   UNL     1      -7.228  13.164  19.419  0.00  0.00    +0.000 C 
ENDBRANCH  12  15
ENDBRANCH   1  14
BRANCH   7  19
ATOM     19  C   UNL     1       0.648  11.282  19.654  0.00  0.00    +0.000 A 
ATOM     20  C   UNL     1       1.221  10.179  20.225  0.00  0.00    +0.000 A 
ATOM     21  C   UNL     1       1.342   9.246  19.165  0.00  0.00    +0.000 A 
ATOM     22  N   UNL     1       0.895   9.771  18.010  0.00  0.00    +0.000 NA
ATOM     23  O   UNL     1       0.454  11.047  18.324  0.00  0.00    +0.000 OA
BRANCH  21  24
ATOM     24  C   UNL     1       1.859   7.884  19.278  0.00  0.00    +0.000 C 
ATOM     25  O   UNL     1       1.968   7.375  20.390  0.00  0.00    +0.000 OA
ATOM     26  N   UNL     1       2.211   7.289  18.083  0.00  0.00    +0.000 N 
ATOM     27  H   UNL     1       2.226   7.891  17.263  0.00  0.00    +0.000 HD
BRANCH  26  28
ATOM     28  C   UNL     1       2.647   5.951  17.913  0.00  0.00    +0.000 A 
ATOM     29  C   UNL     1       1.770   4.869  18.040  0.00  0.00    +0.000 A 
ATOM     30  C   UNL     1       2.213   3.554  17.876  0.00  0.00    +0.000 A 
ATOM     31  C   UNL     1       3.547   3.302  17.574  0.00  0.00    +0.000 A 
ATOM     32  C   UNL     1       4.433   4.366  17.424  0.00  0.00    +0.000 A 
ATOM     33  C   UNL     1       3.987   5.684  17.588  0.00  0.00    +0.000 A 
ATOM     34 CL   UNL     1       5.141   6.961  17.417  0.00  0.00    +0.000 Cl
ENDBRANCH  26  28
ENDBRANCH  21  24
ENDBRANCH   7  19
TORSDOF 5
ENDMDL
