MODEL 1
REMARK VINA RESULT:      -7.8      0.000      0.000
REMARK  Name = 
REMARK  10 active torsions:
REMARK  status: ('A' for Active; 'I' for Inactive)
REMARK    1  A    between atoms: C_1  and  C_2
REMARK    2  A    between atoms: C_2  and  N_3
REMARK    3  A    between atoms: N_3  and  C_20
REMARK    4  A    between atoms: C_6  and  C_7
REMARK    5  A    between atoms: C_9  and  C_10
REMARK    6  A    between atoms: C_15  and  C_16
REMARK    7  A    between atoms: C_16  and  O_18
REMARK    8  A    between atoms: C_23  and  C_24
REMARK    9  A    between atoms: C_24  and  C_25
REMARK   10  A    between atoms: C_24  and  C_26
REMARK                            x       y       z     vdW  Elec       q    Type
REMARK                         _______ _______ _______ _____ _____    ______ ____
ROOT
ATOM      1  N   UNL     1       0.939   9.495  21.112  0.00  0.00    +0.000 N 
ATOM      2  C   UNL     1       0.133  10.591  20.756  0.00  0.00    +0.000 A 
ATOM      3  N   UNL     1       0.357  11.788  21.324  0.00  0.00    +0.000 NA
ATOM      4  C   UNL     1      -0.363  12.839  20.903  0.00  0.00    +0.000 A 
ATOM      5  C   UNL     1       0.042  14.187  21.416  0.00  0.00    +0.000 C 
ATOM      6  C   UNL     1      -1.356  12.717  19.955  0.00  0.00    +0.000 A 
ATOM      7  C   UNL     1      -1.550  11.463  19.406  0.00  0.00    +0.000 A 
ATOM      8  N   UNL     1      -0.816  10.408  19.814  0.00  0.00    +0.000 NA
ENDROOT
BRANCH   1   9
ATOM      9  C   UNL     1       1.420   8.472  20.260  0.00  0.00    +0.000 A 
ATOM     10  C   UNL     1       1.511   7.141  20.726  0.00  0.00    +0.000 A 
ATOM     11  C   UNL     1       1.991   6.085  19.936  0.00  0.00    +0.000 A 
ATOM     12  C   UNL     1       2.376   6.301  18.615  0.00  0.00    +0.000 A 
ATOM     13  C   UNL     1       2.279   7.602  18.117  0.00  0.00    +0.000 A 
ATOM     14  C   UNL     1       1.847   8.673  18.923  0.00  0.00    +0.000 A 
ATOM     15 BR   UNL     1       2.087  10.378  18.087  0.00  0.00    +0.000 Br
BRANCH  12  16
ATOM     16  C   UNL     1       2.903   5.161  17.764  0.00  0.00    +0.000 C 
ATOM     17  C   UNL     1       4.277   4.692  18.250  0.00  0.00    +0.000 C 
ATOM     18  C   UNL     1       1.914   3.992  17.718  0.00  0.00    +0.000 C 
ENDBRANCH  12  16
ENDBRANCH   1   9
BRANCH   7  19
ATOM     19  C   UNL     1      -2.420  11.216  18.233  0.00  0.00    +0.000 A 
ATOM     20  C   UNL     1      -1.847  10.555  17.113  0.00  0.00    +0.000 A 
ATOM     21  C   UNL     1      -2.570  10.260  15.955  0.00  0.00    +0.000 A 
ATOM     22  C   UNL     1      -3.909  10.597  15.880  0.00  0.00    +0.000 A 
ATOM     23  C   UNL     1      -4.511  11.235  16.959  0.00  0.00    +0.000 A 
ATOM     24  C   UNL     1      -3.794  11.549  18.139  0.00  0.00    +0.000 A 
BRANCH  24  25
ATOM     25  C   UNL     1      -4.613  12.302  19.135  0.00  0.00    +0.000 C 
ATOM     26  O   UNL     1      -4.578  12.011  20.324  0.00  0.00    +0.000 OA
BRANCH  25  27
ATOM     27  O   UNL     1      -5.253  13.401  18.704  0.00  0.00    +0.000 OA
ATOM     28  H   UNL     1      -5.660  13.296  17.812  0.00  0.00    +0.000 HD
ENDBRANCH  25  27
ENDBRANCH  24  25
ENDBRANCH   7  19
BRANCH   1  30
ATOM     29  C   UNL     1       0.091   9.430  23.439  0.00  0.00    +0.000 C 
ATOM     30  C   UNL     1       1.312   9.521  22.536  0.00  0.00    +0.000 C 
ENDBRANCH   1  30
TORSDOF 6
ENDMDL
MODEL 2
REMARK VINA RESULT:      -7.6      3.612      5.880
REMARK  Name = 
REMARK  10 active torsions:
REMARK  status: ('A' for Active; 'I' for Inactive)
REMARK    1  A    between atoms: C_1  and  C_2
REMARK    2  A    between atoms: C_2  and  N_3
REMARK    3  A    between atoms: N_3  and  C_20
REMARK    4  A    between atoms: C_6  and  C_7
REMARK    5  A    between atoms: C_9  and  C_10
REMARK    6  A    between atoms: C_15  and  C_16
REMARK    7  A    between atoms: C_16  and  O_18
REMARK    8  A    between atoms: C_23  and  C_24
REMARK    9  A    between atoms: C_24  and  C_25
REMARK   10  A    between atoms: C_24  and  C_26
REMARK                            x       y       z     vdW  Elec       q    Type
REMARK                         _______ _______ _______ _____ _____    ______ ____
ROOT
ATOM      1  N   UNL     1      -0.128  11.229  19.728  0.00  0.00    +0.000 N 
ATOM      2  C   UNL     1       0.265  12.420  20.364  0.00  0.00    +0.000 A 
ATOM      3  N   UNL     1      -0.583  13.026  21.212  0.00  0.00    +0.000 NA
ATOM      4  C   UNL     1      -0.155  14.110  21.876  0.00  0.00    +0.000 A 
ATOM      5  C   UNL     1      -1.053  14.645  22.950  0.00  0.00    +0.000 C 
ATOM      6  C   UNL     1       1.097  14.649  21.675  0.00  0.00    +0.000 A 
ATOM      7  C   UNL     1       1.928  13.990  20.788  0.00  0.00    +0.000 A 
ATOM      8  N   UNL     1       1.508  12.890  20.131  0.00  0.00    +0.000 NA
ENDROOT
BRANCH   1   9
ATOM      9  C   UNL     1       0.678  10.097  19.455  0.00  0.00    +0.000 A 
ATOM     10  C   UNL     1       1.233   9.912  18.169  0.00  0.00    +0.000 A 
ATOM     11  C   UNL     1       2.029   8.806  17.831  0.00  0.00    +0.000 A 
ATOM     12  C   UNL     1       2.341   7.836  18.781  0.00  0.00    +0.000 A 
ATOM     13  C   UNL     1       1.824   8.001  20.067  0.00  0.00    +0.000 A 
ATOM     14  C   UNL     1       0.984   9.082  20.396  0.00  0.00    +0.000 A 
ATOM     15 BR   UNL     1       0.188   8.907  22.127  0.00  0.00    +0.000 Br
BRANCH  12  16
ATOM     16  C   UNL     1       3.193   6.636  18.413  0.00  0.00    +0.000 C 
ATOM     17  C   UNL     1       2.327   5.436  18.023  0.00  0.00    +0.000 C 
ATOM     18  C   UNL     1       4.187   6.975  17.298  0.00  0.00    +0.000 C 
ENDBRANCH  12  16
ENDBRANCH   1   9
BRANCH   7  19
ATOM     19  C   UNL     1       3.365  14.314  20.629  0.00  0.00    +0.000 A 
ATOM     20  C   UNL     1       4.184  14.273  21.789  0.00  0.00    +0.000 A 
ATOM     21  C   UNL     1       5.553  14.550  21.761  0.00  0.00    +0.000 A 
ATOM     22  C   UNL     1       6.164  14.860  20.560  0.00  0.00    +0.000 A 
ATOM     23  C   UNL     1       5.400  14.899  19.398  0.00  0.00    +0.000 A 
ATOM     24  C   UNL     1       4.010  14.628  19.407  0.00  0.00    +0.000 A 
BRANCH  24  25
ATOM     25  C   UNL     1       3.375  14.804  18.068  0.00  0.00    +0.000 C 
ATOM     26  O   UNL     1       3.448  15.874  17.474  0.00  0.00    +0.000 OA
BRANCH  25  27
ATOM     27  O   UNL     1       2.870  13.711  17.475  0.00  0.00    +0.000 OA
ATOM     28  H   UNL     1       2.360  13.130  18.087  0.00  0.00    +0.000 HD
ENDBRANCH  25  27
ENDBRANCH  24  25
ENDBRANCH   7  19
BRANCH   1  30
ATOM     29  C   UNL     1      -1.809  11.843  18.015  0.00  0.00    +0.000 C 
ATOM     30  C   UNL     1      -1.560  11.230  19.385  0.00  0.00    +0.000 C 
ENDBRANCH   1  30
TORSDOF 6
ENDMDL
MODEL 3
REMARK VINA RESULT:      -7.5      3.747      5.981
REMARK  Name = 
REMARK  10 active torsions:
REMARK  status: ('A' for Active; 'I' for Inactive)
REMARK    1  A    between atoms: C_1  and  C_2
REMARK    2  A    between atoms: C_2  and  N_3
REMARK    3  A    between atoms: N_3  and  C_20
REMARK    4  A    between atoms: C_6  and  C_7
REMARK    5  A    between atoms: C_9  and  C_10
REMARK    6  A    between atoms: C_15  and  C_16
REMARK    7  A    between atoms: C_16  and  O_18
REMARK    8  A    between atoms: C_23  and  C_24
REMARK    9  A    between atoms: C_24  and  C_25
REMARK   10  A    between atoms: C_24  and  C_26
REMARK                            x       y       z     vdW  Elec       q    Type
REMARK                         _______ _______ _______ _____ _____    ______ ____
ROOT
ATOM      1  N   UNL     1      -0.173  11.412  18.667  0.00  0.00    +0.000 N 
ATOM      2  C   UNL     1       0.080  12.696  19.182  0.00  0.00    +0.000 A 
ATOM      3  N   UNL     1      -0.951  13.479  19.541  0.00  0.00    +0.000 NA
ATOM      4  C   UNL     1      -0.685  14.662  20.115  0.00  0.00    +0.000 A 
ATOM      5  C   UNL     1      -1.850  15.421  20.675  0.00  0.00    +0.000 C 
ATOM      6  C   UNL     1       0.603  15.118  20.295  0.00  0.00    +0.000 A 
ATOM      7  C   UNL     1       1.627  14.277  19.903  0.00  0.00    +0.000 A 
ATOM      8  N   UNL     1       1.364  13.079  19.341  0.00  0.00    +0.000 NA
ENDROOT
BRANCH   1   9
ATOM      9  C   UNL     1       0.565  10.229  18.910  0.00  0.00    +0.000 A 
ATOM     10  C   UNL     1       1.242   9.582  17.852  0.00  0.00    +0.000 A 
ATOM     11  C   UNL     1       1.979   8.400  18.025  0.00  0.00    +0.000 A 
ATOM     12  C   UNL     1       2.108   7.819  19.284  0.00  0.00    +0.000 A 
ATOM     13  C   UNL     1       1.468   8.445  20.354  0.00  0.00    +0.000 A 
ATOM     14  C   UNL     1       0.685   9.601  20.175  0.00  0.00    +0.000 A 
ATOM     15 BR   UNL     1      -0.308  10.079  21.741  0.00  0.00    +0.000 Br
BRANCH  12  16
ATOM     16  C   UNL     1       2.897   6.537  19.469  0.00  0.00    +0.000 C 
ATOM     17  C   UNL     1       2.127   5.525  20.319  0.00  0.00    +0.000 C 
ATOM     18  C   UNL     1       3.295   5.924  18.122  0.00  0.00    +0.000 C 
ENDBRANCH  12  16
ENDBRANCH   1   9
BRANCH   7  19
ATOM     19  C   UNL     1       3.051  14.527  20.225  0.00  0.00    +0.000 A 
ATOM     20  C   UNL     1       3.546  14.031  21.462  0.00  0.00    +0.000 A 
ATOM     21  C   UNL     1       4.872  14.197  21.870  0.00  0.00    +0.000 A 
ATOM     22  C   UNL     1       5.765  14.852  21.042  0.00  0.00    +0.000 A 
ATOM     23  C   UNL     1       5.324  15.343  19.818  0.00  0.00    +0.000 A 
ATOM     24  C   UNL     1       3.983  15.190  19.389  0.00  0.00    +0.000 A 
BRANCH  24  25
ATOM     25  C   UNL     1       3.710  15.861  18.083  0.00  0.00    +0.000 C 
ATOM     26  O   UNL     1       3.666  17.082  18.002  0.00  0.00    +0.000 OA
BRANCH  25  27
ATOM     27  O   UNL     1       3.680  15.087  16.986  0.00  0.00    +0.000 OA
ATOM     28  H   UNL     1       3.248  14.213  17.131  0.00  0.00    +0.000 HD
ENDBRANCH  25  27
ENDBRANCH  24  25
ENDBRANCH   7  19
BRANCH   1  30
ATOM     29  C   UNL     1      -2.277  10.198  18.176  0.00  0.00    +0.000 C 
ATOM     30  C   UNL     1      -1.384  11.381  17.830  0.00  0.00    +0.000 C 
ENDBRANCH   1  30
TORSDOF 6
ENDMDL
MODEL 4
REMARK VINA RESULT:      -7.5      3.807      5.874
REMARK  Name = 
REMARK  10 active torsions:
REMARK  status: ('A' for Active; 'I' for Inactive)
REMARK    1  A    between atoms: C_1  and  C_2
REMARK    2  A    between atoms: C_2  and  N_3
REMARK    3  A    between atoms: N_3  and  C_20
REMARK    4  A    between atoms: C_6  and  C_7
REMARK    5  A    between atoms: C_9  and  C_10
REMARK    6  A    between atoms: C_15  and  C_16
REMARK    7  A    between atoms: C_16  and  O_18
REMARK    8  A    between atoms: C_23  and  C_24
REMARK    9  A    between atoms: C_24  and  C_25
REMARK   10  A    between atoms: C_24  and  C_26
REMARK                            x       y       z     vdW  Elec       q    Type
REMARK                         _______ _______ _______ _____ _____    ______ ____
ROOT
ATOM      1  N   UNL     1      -0.118  11.140  19.395  0.00  0.00    +0.000 N 
ATOM      2  C   UNL     1       0.268  12.416  19.839  0.00  0.00    +0.000 A 
ATOM      3  N   UNL     1      -0.548  13.108  20.651  0.00  0.00    +0.000 NA
ATOM      4  C   UNL     1      -0.120  14.284  21.136  0.00  0.00    +0.000 A 
ATOM      5  C   UNL     1      -0.970  14.935  22.184  0.00  0.00    +0.000 C 
ATOM      6  C   UNL     1       1.097  14.824  20.784  0.00  0.00    +0.000 A 
ATOM      7  C   UNL     1       1.897  14.075  19.940  0.00  0.00    +0.000 A 
ATOM      8  N   UNL     1       1.477  12.885  19.465  0.00  0.00    +0.000 NA
ENDROOT
BRANCH   1   9
ATOM      9  C   UNL     1       0.709  10.004  19.223  0.00  0.00    +0.000 A 
ATOM     10  C   UNL     1       1.297   9.734  17.967  0.00  0.00    +0.000 A 
ATOM     11  C   UNL     1       2.116   8.618  17.730  0.00  0.00    +0.000 A 
ATOM     12  C   UNL     1       2.420   7.727  18.755  0.00  0.00    +0.000 A 
ATOM     13  C   UNL     1       1.871   7.977  20.014  0.00  0.00    +0.000 A 
ATOM     14  C   UNL     1       1.008   9.065  20.243  0.00  0.00    +0.000 A 
ATOM     15 BR   UNL     1       0.174   9.006  21.965  0.00  0.00    +0.000 Br
BRANCH  12  16
ATOM     16  C   UNL     1       3.297   6.517  18.496  0.00  0.00    +0.000 C 
ATOM     17  C   UNL     1       2.458   5.259  18.260  0.00  0.00    +0.000 C 
ATOM     18  C   UNL     1       4.255   6.759  17.325  0.00  0.00    +0.000 C 
ENDBRANCH  12  16
ENDBRANCH   1   9
BRANCH   7  19
ATOM     19  C   UNL     1       3.308  14.414  19.646  0.00  0.00    +0.000 A 
ATOM     20  C   UNL     1       3.674  14.598  18.285  0.00  0.00    +0.000 A 
ATOM     21  C   UNL     1       4.972  14.928  17.887  0.00  0.00    +0.000 A 
ATOM     22  C   UNL     1       5.955  15.111  18.842  0.00  0.00    +0.000 A 
ATOM     23  C   UNL     1       5.636  14.953  20.186  0.00  0.00    +0.000 A 
ATOM     24  C   UNL     1       4.328  14.611  20.610  0.00  0.00    +0.000 A 
BRANCH  24  25
ATOM     25  C   UNL     1       4.228  14.415  22.086  0.00  0.00    +0.000 C 
ATOM     26  O   UNL     1       3.658  15.237  22.792  0.00  0.00    +0.000 OA
BRANCH  25  27
ATOM     27  O   UNL     1       4.638  13.235  22.582  0.00  0.00    +0.000 OA
ATOM     28  H   UNL     1       3.939  12.752  23.081  0.00  0.00    +0.000 HD
ENDBRANCH  25  27
ENDBRANCH  24  25
ENDBRANCH   7  19
BRANCH   1  30
ATOM     29  C   UNL     1      -1.927  11.513  17.742  0.00  0.00    +0.000 C 
ATOM     30  C   UNL     1      -1.568  11.054  19.148  0.00  0.00    +0.000 C 
ENDBRANCH   1  30
TORSDOF 6
ENDMDL
MODEL 5
REMARK VINA RESULT:      -7.4      4.285      6.592
REMARK  Name = 
REMARK  10 active torsions:
REMARK  status: ('A' for Active; 'I' for Inactive)
REMARK    1  A    between atoms: C_1  and  C_2
REMARK    2  A    between atoms: C_2  and  N_3
REMARK    3  A    between atoms: N_3  and  C_20
REMARK    4  A    between atoms: C_6  and  C_7
REMARK    5  A    between atoms: C_9  and  C_10
REMARK    6  A    between atoms: C_15  and  C_16
REMARK    7  A    between atoms: C_16  and  O_18
REMARK    8  A    between atoms: C_23  and  C_24
REMARK    9  A    between atoms: C_24  and  C_25
REMARK   10  A    between atoms: C_24  and  C_26
REMARK                            x       y       z     vdW  Elec       q    Type
REMARK                         _______ _______ _______ _____ _____    ______ ____
ROOT
ATOM      1  N   UNL     1      -0.136  12.233  20.807  0.00  0.00    +0.000 N 
ATOM      2  C   UNL     1       0.779  13.298  20.722  0.00  0.00    +0.000 A 
ATOM      3  N   UNL     1       1.963  13.203  21.349  0.00  0.00    +0.000 NA
ATOM      4  C   UNL     1       2.856  14.190  21.180  0.00  0.00    +0.000 A 
ATOM      5  C   UNL     1       4.230  13.963  21.734  0.00  0.00    +0.000 C 
ATOM      6  C   UNL     1       2.576  15.314  20.434  0.00  0.00    +0.000 A 
ATOM      7  C   UNL     1       1.341  15.366  19.814  0.00  0.00    +0.000 A 
ATOM      8  N   UNL     1       0.448  14.367  19.968  0.00  0.00    +0.000 NA
ENDROOT
BRANCH   1   9
ATOM      9  C   UNL     1      -0.984  11.747  19.783  0.00  0.00    +0.000 A 
ATOM     10  C   UNL     1      -0.510  10.786  18.862  0.00  0.00    +0.000 A 
ATOM     11  C   UNL     1      -1.297  10.275  17.818  0.00  0.00    +0.000 A 
ATOM     12  C   UNL     1      -2.621  10.677  17.660  0.00  0.00    +0.000 A 
ATOM     13  C   UNL     1      -3.126  11.610  18.567  0.00  0.00    +0.000 A 
ATOM     14  C   UNL     1      -2.324  12.164  19.584  0.00  0.00    +0.000 A 
ATOM     15 BR   UNL     1      -3.172  13.621  20.490  0.00  0.00    +0.000 Br
BRANCH  12  16
ATOM     16  C   UNL     1      -3.467  10.131  16.526  0.00  0.00    +0.000 C 
ATOM     17  C   UNL     1      -4.593  11.098  16.155  0.00  0.00    +0.000 C 
ATOM     18  C   UNL     1      -2.612   9.794  15.300  0.00  0.00    +0.000 C 
ENDBRANCH  12  16
ENDBRANCH   1   9
BRANCH   7  19
ATOM     19  C   UNL     1       0.978  16.394  18.813  0.00  0.00    +0.000 A 
ATOM     20  C   UNL     1      -0.361  16.871  18.811  0.00  0.00    +0.000 A 
ATOM     21  C   UNL     1      -0.818  17.846  17.921  0.00  0.00    +0.000 A 
ATOM     22  C   UNL     1       0.059  18.401  17.006  0.00  0.00    +0.000 A 
ATOM     23  C   UNL     1       1.380  17.970  16.982  0.00  0.00    +0.000 A 
ATOM     24  C   UNL     1       1.861  16.979  17.871  0.00  0.00    +0.000 A 
BRANCH  24  25
ATOM     25  C   UNL     1       3.286  16.612  17.618  0.00  0.00    +0.000 C 
ATOM     26  O   UNL     1       4.198  17.233  18.151  0.00  0.00    +0.000 OA
BRANCH  25  27
ATOM     27  O   UNL     1       3.520  15.487  16.924  0.00  0.00    +0.000 OA
ATOM     28  H   UNL     1       3.055  14.696  17.284  0.00  0.00    +0.000 HD
ENDBRANCH  25  27
ENDBRANCH  24  25
ENDBRANCH   7  19
BRANCH   1  30
ATOM     29  C   UNL     1      -1.202  12.117  23.040  0.00  0.00    +0.000 C 
ATOM     30  C   UNL     1      -0.108  11.583  22.128  0.00  0.00    +0.000 C 
ENDBRANCH   1  30
TORSDOF 6
ENDMDL
MODEL 6
REMARK VINA RESULT:      -7.4      5.575      9.707
REMARK  Name = 
REMARK  10 active torsions:
REMARK  status: ('A' for Active; 'I' for Inactive)
REMARK    1  A    between atoms: C_1  and  C_2
REMARK    2  A    between atoms: C_2  and  N_3
REMARK    3  A    between atoms: N_3  and  C_20
REMARK    4  A    between atoms: C_6  and  C_7
REMARK    5  A    between atoms: C_9  and  C_10
REMARK    6  A    between atoms: C_15  and  C_16
REMARK    7  A    between atoms: C_16  and  O_18
REMARK    8  A    between atoms: C_23  and  C_24
REMARK    9  A    between atoms: C_24  and  C_25
REMARK   10  A    between atoms: C_24  and  C_26
REMARK                            x       y       z     vdW  Elec       q    Type
REMARK                         _______ _______ _______ _____ _____    ______ ____
ROOT
ATOM      1  N   UNL     1       3.025   4.640  18.021  0.00  0.00    +0.000 N 
ATOM      2  C   UNL     1       4.196   4.855  17.273  0.00  0.00    +0.000 A 
ATOM      3  N   UNL     1       4.296   4.334  16.038  0.00  0.00    +0.000 NA
ATOM      4  C   UNL     1       5.383   4.629  15.308  0.00  0.00    +0.000 A 
ATOM      5  C   UNL     1       5.374   4.192  13.874  0.00  0.00    +0.000 C 
ATOM      6  C   UNL     1       6.415   5.395  15.802  0.00  0.00    +0.000 A 
ATOM      7  C   UNL     1       6.265   5.902  17.080  0.00  0.00    +0.000 A 
ATOM      8  N   UNL     1       5.167   5.623  17.811  0.00  0.00    +0.000 NA
ENDROOT
BRANCH   1   9
ATOM      9  C   UNL     1       2.372   5.559  18.876  0.00  0.00    +0.000 A 
ATOM     10  C   UNL     1       2.205   6.905  18.480  0.00  0.00    +0.000 A 
ATOM     11  C   UNL     1       1.578   7.868  19.288  0.00  0.00    +0.000 A 
ATOM     12  C   UNL     1       1.052   7.522  20.530  0.00  0.00    +0.000 A 
ATOM     13  C   UNL     1       1.183   6.195  20.942  0.00  0.00    +0.000 A 
ATOM     14  C   UNL     1       1.856   5.239  20.157  0.00  0.00    +0.000 A 
ATOM     15 BR   UNL     1       2.144   3.587  21.080  0.00  0.00    +0.000 Br
BRANCH  12  16
ATOM     16  C   UNL     1       0.384   8.565  21.406  0.00  0.00    +0.000 C 
ATOM     17  C   UNL     1       1.374   9.177  22.400  0.00  0.00    +0.000 C 
ATOM     18  C   UNL     1      -0.288   9.656  20.566  0.00  0.00    +0.000 C 
ENDBRANCH  12  16
ENDBRANCH   1   9
BRANCH   7  19
ATOM     19  C   UNL     1       7.178   6.911  17.665  0.00  0.00    +0.000 A 
ATOM     20  C   UNL     1       7.167   8.217  17.103  0.00  0.00    +0.000 A 
ATOM     21  C   UNL     1       7.976   9.253  17.577  0.00  0.00    +0.000 A 
ATOM     22  C   UNL     1       8.816   9.028  18.652  0.00  0.00    +0.000 A 
ATOM     23  C   UNL     1       8.848   7.768  19.238  0.00  0.00    +0.000 A 
ATOM     24  C   UNL     1       8.041   6.702  18.769  0.00  0.00    +0.000 A 
BRANCH  24  25
ATOM     25  C   UNL     1       8.293   5.420  19.491  0.00  0.00    +0.000 C 
ATOM     26  O   UNL     1       8.727   4.441  18.898  0.00  0.00    +0.000 OA
BRANCH  25  27
ATOM     27  O   UNL     1       8.183   5.433  20.829  0.00  0.00    +0.000 OA
ATOM     28  H   UNL     1       8.081   6.337  21.209  0.00  0.00    +0.000 HD
ENDBRANCH  25  27
ENDBRANCH  24  25
ENDBRANCH   7  19
BRANCH   1  30
ATOM     29  C   UNL     1       3.453   2.203  18.149  0.00  0.00    +0.000 C 
ATOM     30  C   UNL     1       2.460   3.299  17.792  0.00  0.00    +0.000 C 
ENDBRANCH   1  30
TORSDOF 6
ENDMDL
MODEL 7
REMARK VINA RESULT:      -7.3      3.427      5.943
REMARK  Name = 
REMARK  10 active torsions:
REMARK  status: ('A' for Active; 'I' for Inactive)
REMARK    1  A    between atoms: C_1  and  C_2
REMARK    2  A    between atoms: C_2  and  N_3
REMARK    3  A    between atoms: N_3  and  C_20
REMARK    4  A    between atoms: C_6  and  C_7
REMARK    5  A    between atoms: C_9  and  C_10
REMARK    6  A    between atoms: C_15  and  C_16
REMARK    7  A    between atoms: C_16  and  O_18
REMARK    8  A    between atoms: C_23  and  C_24
REMARK    9  A    between atoms: C_24  and  C_25
REMARK   10  A    between atoms: C_24  and  C_26
REMARK                            x       y       z     vdW  Elec       q    Type
REMARK                         _______ _______ _______ _____ _____    ______ ____
ROOT
ATOM      1  N   UNL     1       0.090  12.199  20.686  0.00  0.00    +0.000 N 
ATOM      2  C   UNL     1       0.900  13.347  20.648  0.00  0.00    +0.000 A 
ATOM      3  N   UNL     1       2.114  13.318  21.223  0.00  0.00    +0.000 NA
ATOM      4  C   UNL     1       2.907  14.393  21.095  0.00  0.00    +0.000 A 
ATOM      5  C   UNL     1       4.318  14.256  21.581  0.00  0.00    +0.000 C 
ATOM      6  C   UNL     1       2.496  15.536  20.446  0.00  0.00    +0.000 A 
ATOM      7  C   UNL     1       1.236  15.517  19.876  0.00  0.00    +0.000 A 
ATOM      8  N   UNL     1       0.443  14.432  19.988  0.00  0.00    +0.000 NA
ENDROOT
BRANCH   1   9
ATOM      9  C   UNL     1      -0.754  11.710  19.660  0.00  0.00    +0.000 A 
ATOM     10  C   UNL     1      -2.078  12.189  19.538  0.00  0.00    +0.000 A 
ATOM     11  C   UNL     1      -2.968  11.736  18.551  0.00  0.00    +0.000 A 
ATOM     12  C   UNL     1      -2.564  10.795  17.606  0.00  0.00    +0.000 A 
ATOM     13  C   UNL     1      -1.256  10.317  17.687  0.00  0.00    +0.000 A 
ATOM     14  C   UNL     1      -0.377  10.731  18.707  0.00  0.00    +0.000 A 
ATOM     15 BR   UNL     1       1.241   9.709  18.757  0.00  0.00    +0.000 Br
BRANCH  12  16
ATOM     16  C   UNL     1      -3.529  10.298  16.546  0.00  0.00    +0.000 C 
ATOM     17  C   UNL     1      -4.760  11.201  16.445  0.00  0.00    +0.000 C 
ATOM     18  C   UNL     1      -2.842  10.161  15.183  0.00  0.00    +0.000 C 
ENDBRANCH  12  16
ENDBRANCH   1   9
BRANCH   7  19
ATOM     19  C   UNL     1       0.739  16.576  18.968  0.00  0.00    +0.000 A 
ATOM     20  C   UNL     1       1.617  17.039  17.950  0.00  0.00    +0.000 A 
ATOM     21  C   UNL     1       1.257  18.026  17.030  0.00  0.00    +0.000 A 
ATOM     22  C   UNL     1      -0.011  18.576  17.078  0.00  0.00    +0.000 A 
ATOM     23  C   UNL     1      -0.905  18.143  18.051  0.00  0.00    +0.000 A 
ATOM     24  C   UNL     1      -0.557  17.148  18.997  0.00  0.00    +0.000 A 
BRANCH  24  25
ATOM     25  C   UNL     1      -1.636  16.893  19.997  0.00  0.00    +0.000 C 
ATOM     26  O   UNL     1      -1.961  17.755  20.804  0.00  0.00    +0.000 OA
BRANCH  25  27
ATOM     27  O   UNL     1      -2.340  15.756  19.869  0.00  0.00    +0.000 OA
ATOM     28  H   UNL     1      -3.302  15.903  19.714  0.00  0.00    +0.000 HD
ENDBRANCH  25  27
ENDBRANCH  24  25
ENDBRANCH   7  19
BRANCH   1  30
ATOM     29  C   UNL     1      -1.101  11.320  22.674  0.00  0.00    +0.000 C 
ATOM     30  C   UNL     1       0.232  11.463  21.954  0.00  0.00    +0.000 C 
ENDBRANCH   1  30
TORSDOF 6
ENDMDL
MODEL 8
REMARK VINA RESULT:      -7.3      6.315      7.707
REMARK  Name = 
REMARK  10 active torsions:
REMARK  status: ('A' for Active; 'I' for Inactive)
REMARK    1  A    between atoms: C_1  and  C_2
REMARK    2  A    between atoms: C_2  and  N_3
REMARK    3  A    between atoms: N_3  and  C_20
REMARK    4  A    between atoms: C_6  and  C_7
REMARK    5  A    between atoms: C_9  and  C_10
REMARK    6  A    between atoms: C_15  and  C_16
REMARK    7  A    between atoms: C_16  and  O_18
REMARK    8  A    between atoms: C_23  and  C_24
REMARK    9  A    between atoms: C_24  and  C_25
REMARK   10  A    between atoms: C_24  and  C_26
REMARK                            x       y       z     vdW  Elec       q    Type
REMARK                         _______ _______ _______ _____ _____    ______ ____
ROOT
ATOM      1  N   UNL     1       6.065  15.885  18.847  0.00  0.00    +0.000 N 
ATOM      2  C   UNL     1       4.667  15.844  18.699  0.00  0.00    +0.000 A 
ATOM      3  N   UNL     1       4.039  16.856  18.077  0.00  0.00    +0.000 NA
ATOM      4  C   UNL     1       2.718  16.753  17.866  0.00  0.00    +0.000 A 
ATOM      5  C   UNL     1       2.085  17.804  17.005  0.00  0.00    +0.000 C 
ATOM      6  C   UNL     1       1.983  15.677  18.315  0.00  0.00    +0.000 A 
ATOM      7  C   UNL     1       2.677  14.666  18.954  0.00  0.00    +0.000 A 
ATOM      8  N   UNL     1       4.008  14.758  19.152  0.00  0.00    +0.000 NA
ENDROOT
BRANCH   1   9
ATOM      9  C   UNL     1       6.970  14.802  18.744  0.00  0.00    +0.000 A 
ATOM     10  C   UNL     1       7.079  14.077  17.536  0.00  0.00    +0.000 A 
ATOM     11  C   UNL     1       7.948  12.986  17.374  0.00  0.00    +0.000 A 
ATOM     12  C   UNL     1       8.785  12.582  18.411  0.00  0.00    +0.000 A 
ATOM     13  C   UNL     1       8.717  13.292  19.612  0.00  0.00    +0.000 A 
ATOM     14  C   UNL     1       7.810  14.353  19.794  0.00  0.00    +0.000 A 
ATOM     15 BR   UNL     1       7.720  14.952  21.610  0.00  0.00    +0.000 Br
BRANCH  12  16
ATOM     16  C   UNL     1       9.717  11.398  18.239  0.00  0.00    +0.000 C 
ATOM     17  C   UNL     1      10.922  11.495  19.178  0.00  0.00    +0.000 C 
ATOM     18  C   UNL     1       8.979  10.070  18.438  0.00  0.00    +0.000 C 
ENDBRANCH  12  16
ENDBRANCH   1   9
BRANCH   7  19
ATOM     19  C   UNL     1       2.072  13.358  19.297  0.00  0.00    +0.000 A 
ATOM     20  C   UNL     1       2.203  12.302  18.355  0.00  0.00    +0.000 A 
ATOM     21  C   UNL     1       1.683  11.024  18.572  0.00  0.00    +0.000 A 
ATOM     22  C   UNL     1       1.027  10.744  19.756  0.00  0.00    +0.000 A 
ATOM     23  C   UNL     1       0.887  11.746  20.710  0.00  0.00    +0.000 A 
ATOM     24  C   UNL     1       1.401  13.050  20.507  0.00  0.00    +0.000 A 
BRANCH  24  25
ATOM     25  C   UNL     1       1.070  13.986  21.621  0.00  0.00    +0.000 C 
ATOM     26  O   UNL     1      -0.079  14.091  22.032  0.00  0.00    +0.000 OA
BRANCH  25  27
ATOM     27  O   UNL     1       2.095  14.578  22.256  0.00  0.00    +0.000 OA
ATOM     28  H   UNL     1       2.234  14.247  23.175  0.00  0.00    +0.000 HD
ENDBRANCH  25  27
ENDBRANCH  24  25
ENDBRANCH   7  19
BRANCH   1  30
ATOM     29  C   UNL     1       7.918  17.481  18.450  0.00  0.00    +0.000 C 
ATOM     30  C   UNL     1       6.556  17.252  19.089  0.00  0.00    +0.000 C 
ENDBRANCH   1  30
TORSDOF 6
ENDMDL
MODEL 9
REMARK VINA RESULT:      -7.2      3.913      5.939
REMARK  Name = 
REMARK  10 active torsions:
REMARK  status: ('A' for Active; 'I' for Inactive)
REMARK    1  A    between atoms: C_1  and  C_2
REMARK    2  A    between atoms: C_2  and  N_3
REMARK    3  A    between atoms: N_3  and  C_20
REMARK    4  A    between atoms: C_6  and  C_7
REMARK    5  A    between atoms: C_9  and  C_10
REMARK    6  A    between atoms: C_15  and  C_16
REMARK    7  A    between atoms: C_16  and  O_18
REMARK    8  A    between atoms: C_23  and  C_24
REMARK    9  A    between atoms: C_24  and  C_25
REMARK   10  A    between atoms: C_24  and  C_26
REMARK                            x       y       z     vdW  Elec       q    Type
REMARK                         _______ _______ _______ _____ _____    ______ ____
ROOT
ATOM      1  N   UNL     1      -0.201  11.588  18.531  0.00  0.00    +0.000 N 
ATOM      2  C   UNL     1       0.194  12.908  18.813  0.00  0.00    +0.000 A 
ATOM      3  N   UNL     1      -0.726  13.803  19.210  0.00  0.00    +0.000 NA
ATOM      4  C   UNL     1      -0.313  15.029  19.562  0.00  0.00    +0.000 A 
ATOM      5  C   UNL     1      -1.334  15.937  20.179  0.00  0.00    +0.000 C 
ATOM      6  C   UNL     1       1.007  15.414  19.475  0.00  0.00    +0.000 A 
ATOM      7  C   UNL     1       1.913  14.457  19.055  0.00  0.00    +0.000 A 
ATOM      8  N   UNL     1       1.504  13.217  18.717  0.00  0.00    +0.000 NA
ENDROOT
BRANCH   1   9
ATOM      9  C   UNL     1       0.508  10.399  18.824  0.00  0.00    +0.000 A 
ATOM     10  C   UNL     1       1.151   9.680  17.792  0.00  0.00    +0.000 A 
ATOM     11  C   UNL     1       1.859   8.488  18.015  0.00  0.00    +0.000 A 
ATOM     12  C   UNL     1       1.990   7.968  19.301  0.00  0.00    +0.000 A 
ATOM     13  C   UNL     1       1.384   8.666  20.346  0.00  0.00    +0.000 A 
ATOM     14  C   UNL     1       0.630   9.833  20.119  0.00  0.00    +0.000 A 
ATOM     15 BR   UNL     1      -0.327  10.417  21.671  0.00  0.00    +0.000 Br
BRANCH  12  16
ATOM     16  C   UNL     1       2.747   6.676  19.540  0.00  0.00    +0.000 C 
ATOM     17  C   UNL     1       1.907   5.678  20.341  0.00  0.00    +0.000 C 
ATOM     18  C   UNL     1       3.224   6.052  18.224  0.00  0.00    +0.000 C 
ENDBRANCH  12  16
ENDBRANCH   1   9
BRANCH   7  19
ATOM     19  C   UNL     1       3.381  14.647  19.116  0.00  0.00    +0.000 A 
ATOM     20  C   UNL     1       4.115  14.517  17.906  0.00  0.00    +0.000 A 
ATOM     21  C   UNL     1       5.501  14.682  17.838  0.00  0.00    +0.000 A 
ATOM     22  C   UNL     1       6.207  15.009  18.982  0.00  0.00    +0.000 A 
ATOM     23  C   UNL     1       5.525  15.157  20.184  0.00  0.00    +0.000 A 
ATOM     24  C   UNL     1       4.122  14.987  20.275  0.00  0.00    +0.000 A 
BRANCH  24  25
ATOM     25  C   UNL     1       3.610  15.114  21.671  0.00  0.00    +0.000 C 
ATOM     26  O   UNL     1       3.396  14.120  22.354  0.00  0.00    +0.000 OA
BRANCH  25  27
ATOM     27  O   UNL     1       3.551  16.348  22.198  0.00  0.00    +0.000 OA
ATOM     28  H   UNL     1       4.210  16.973  21.815  0.00  0.00    +0.000 HD
ENDBRANCH  25  27
ENDBRANCH  24  25
ENDBRANCH   7  19
BRANCH   1  30
ATOM     29  C   UNL     1      -2.240  10.218  18.203  0.00  0.00    +0.000 C 
ATOM     30  C   UNL     1      -1.532  11.531  17.903  0.00  0.00    +0.000 C 
ENDBRANCH   1  30
TORSDOF 6
ENDMDL
