MODEL 1
REMARK VINA RESULT:      -7.6      0.000      0.000
REMARK  Name = 
REMARK  5 active torsions:
REMARK  status: ('A' for Active; 'I' for Inactive)
REMARK    1  A    between atoms: C_1  and  O_2
REMARK    2  A    between atoms: O_2  and  C_3
REMARK    3  A    between atoms: C_7  and  C_8
REMARK    4  A    between atoms: N_13  and  C_14
REMARK    5  A    between atoms: C_14  and  C_15
REMARK                            x       y       z     vdW  Elec       q    Type
REMARK                         _______ _______ _______ _____ _____    ______ ____
ROOT
ATOM      1  C   UNL     1       5.864   4.019  16.282  0.00  0.00    +0.000 C 
ATOM      2  C   UNL     1       5.359   5.000  17.034  0.00  0.00    +0.000 C 
ATOM      3  S   UNL     1       4.980   6.600  16.543  0.00  0.00    +0.000 S 
ATOM      4  C   UNL     1       3.807   6.787  17.842  0.00  0.00    +0.000 C 
ATOM      5  S   UNL     1       2.618   7.956  17.775  0.00  0.00    +0.000 S 
ATOM      6  N   UNL     1       3.999   5.795  18.785  0.00  0.00    +0.000 N 
ATOM      7  C   UNL     1       4.863   4.776  18.431  0.00  0.00    +0.000 C 
ATOM      8  O   UNL     1       5.146   3.792  19.096  0.00  0.00    +0.000 OA
ENDROOT
BRANCH   1  13
ATOM      9  C   UNL     1       5.897   3.498  12.544  0.00  0.00    +0.000 A 
ATOM     10  C   UNL     1       6.987   4.293  12.182  0.00  0.00    +0.000 A 
ATOM     11  C   UNL     1       7.686   5.022  13.144  0.00  0.00    +0.000 A 
ATOM     12  C   UNL     1       7.311   4.946  14.485  0.00  0.00    +0.000 A 
ATOM     13  C   UNL     1       6.232   4.143  14.864  0.00  0.00    +0.000 A 
ATOM     14  C   UNL     1       5.512   3.436  13.886  0.00  0.00    +0.000 A 
BRANCH   9  16
ATOM     15  C   UNL     1       3.969   3.168  11.186  0.00  0.00    +0.000 C 
ATOM     16  O   UNL     1       5.312   2.828  11.505  0.00  0.00    +0.000 OA
ENDBRANCH   9  16
ENDBRANCH   1  13
BRANCH   6  17
ATOM     17  C   UNL     1       3.263   5.698  20.053  0.00  0.00    +0.000 C 
BRANCH  17  18
ATOM     18  C   UNL     1       1.900   4.985  19.938  0.00  0.00    +0.000 C 
ATOM     19  C   UNL     1       1.794   3.839  20.939  0.00  0.00    +0.000 C 
ATOM     20  C   UNL     1       1.065   2.745  20.203  0.00  0.00    +0.000 C 
ATOM     21  C   UNL     1       1.266   3.067  18.741  0.00  0.00    +0.000 C 
ATOM     22  O   UNL     1       1.732   4.414  18.633  0.00  0.00    +0.000 OA
ENDBRANCH  17  18
ENDBRANCH   6  17
TORSDOF 4
ENDMDL
MODEL 2
REMARK VINA RESULT:      -7.2      0.991      1.112
REMARK  Name = 
REMARK  5 active torsions:
REMARK  status: ('A' for Active; 'I' for Inactive)
REMARK    1  A    between atoms: C_1  and  O_2
REMARK    2  A    between atoms: O_2  and  C_3
REMARK    3  A    between atoms: C_7  and  C_8
REMARK    4  A    between atoms: N_13  and  C_14
REMARK    5  A    between atoms: C_14  and  C_15
REMARK                            x       y       z     vdW  Elec       q    Type
REMARK                         _______ _______ _______ _____ _____    ______ ____
ROOT
ATOM      1  C   UNL     1       6.366   4.114  16.012  0.00  0.00    +0.000 C 
ATOM      2  C   UNL     1       5.725   4.992  16.786  0.00  0.00    +0.000 C 
ATOM      3  S   UNL     1       5.002   6.473  16.303  0.00  0.00    +0.000 S 
ATOM      4  C   UNL     1       3.902   6.454  17.677  0.00  0.00    +0.000 C 
ATOM      5  S   UNL     1       2.500   7.361  17.678  0.00  0.00    +0.000 S 
ATOM      6  N   UNL     1       4.349   5.544  18.616  0.00  0.00    +0.000 N 
ATOM      7  C   UNL     1       5.375   4.710  18.215  0.00  0.00    +0.000 C 
ATOM      8  O   UNL     1       5.892   3.818  18.871  0.00  0.00    +0.000 OA
ENDROOT
BRANCH   1  13
ATOM      9  C   UNL     1       6.124   3.634  12.276  0.00  0.00    +0.000 A 
ATOM     10  C   UNL     1       7.134   4.494  11.839  0.00  0.00    +0.000 A 
ATOM     11  C   UNL     1       7.868   5.253  12.752  0.00  0.00    +0.000 A 
ATOM     12  C   UNL     1       7.608   5.141  14.118  0.00  0.00    +0.000 A 
ATOM     13  C   UNL     1       6.610   4.273  14.571  0.00  0.00    +0.000 A 
ATOM     14  C   UNL     1       5.854   3.536  13.644  0.00  0.00    +0.000 A 
BRANCH   9  16
ATOM     15  C   UNL     1       4.091   3.119  11.149  0.00  0.00    +0.000 C 
ATOM     16  O   UNL     1       5.496   2.942  11.277  0.00  0.00    +0.000 OA
ENDBRANCH   9  16
ENDBRANCH   1  13
BRANCH   6  17
ATOM     17  C   UNL     1       3.731   5.334  19.932  0.00  0.00    +0.000 C 
BRANCH  17  18
ATOM     18  C   UNL     1       2.783   4.120  19.996  0.00  0.00    +0.000 C 
ATOM     19  C   UNL     1       1.549   4.431  20.838  0.00  0.00    +0.000 C 
ATOM     20  C   UNL     1       1.267   3.161  21.599  0.00  0.00    +0.000 C 
ATOM     21  C   UNL     1       2.579   2.412  21.595  0.00  0.00    +0.000 C 
ATOM     22  O   UNL     1       3.432   2.998  20.609  0.00  0.00    +0.000 OA
ENDBRANCH  17  18
ENDBRANCH   6  17
TORSDOF 4
ENDMDL
MODEL 3
REMARK VINA RESULT:      -6.8      0.872      1.027
REMARK  Name = 
REMARK  5 active torsions:
REMARK  status: ('A' for Active; 'I' for Inactive)
REMARK    1  A    between atoms: C_1  and  O_2
REMARK    2  A    between atoms: O_2  and  C_3
REMARK    3  A    between atoms: C_7  and  C_8
REMARK    4  A    between atoms: N_13  and  C_14
REMARK    5  A    between atoms: C_14  and  C_15
REMARK                            x       y       z     vdW  Elec       q    Type
REMARK                         _______ _______ _______ _____ _____    ______ ____
ROOT
ATOM      1  C   UNL     1       6.531   4.255  16.104  0.00  0.00    +0.000 C 
ATOM      2  C   UNL     1       5.848   5.136  16.837  0.00  0.00    +0.000 C 
ATOM      3  S   UNL     1       5.005   6.524  16.280  0.00  0.00    +0.000 S 
ATOM      4  C   UNL     1       3.947   6.522  17.686  0.00  0.00    +0.000 C 
ATOM      5  S   UNL     1       2.483   7.323  17.671  0.00  0.00    +0.000 S 
ATOM      6  N   UNL     1       4.485   5.714  18.670  0.00  0.00    +0.000 N 
ATOM      7  C   UNL     1       5.558   4.929  18.293  0.00  0.00    +0.000 C 
ATOM      8  O   UNL     1       6.158   4.124  18.990  0.00  0.00    +0.000 OA
ENDROOT
BRANCH   1  13
ATOM      9  C   UNL     1       6.164   3.555  12.413  0.00  0.00    +0.000 A 
ATOM     10  C   UNL     1       7.151   4.394  11.892  0.00  0.00    +0.000 A 
ATOM     11  C   UNL     1       7.909   5.209  12.733  0.00  0.00    +0.000 A 
ATOM     12  C   UNL     1       7.698   5.177  14.111  0.00  0.00    +0.000 A 
ATOM     13  C   UNL     1       6.724   4.330  14.648  0.00  0.00    +0.000 A 
ATOM     14  C   UNL     1       5.942   3.536  13.793  0.00  0.00    +0.000 A 
BRANCH   9  16
ATOM     15  C   UNL     1       4.168   3.170  11.173  0.00  0.00    +0.000 C 
ATOM     16  O   UNL     1       5.507   2.802  11.479  0.00  0.00    +0.000 OA
ENDBRANCH   9  16
ENDBRANCH   1  13
BRANCH   6  17
ATOM     17  C   UNL     1       3.920   5.552  20.015  0.00  0.00    +0.000 C 
BRANCH  17  18
ATOM     18  C   UNL     1       3.092   4.263  20.200  0.00  0.00    +0.000 C 
ATOM     19  C   UNL     1       2.567   3.751  18.863  0.00  0.00    +0.000 C 
ATOM     20  C   UNL     1       1.180   3.242  19.158  0.00  0.00    +0.000 C 
ATOM     21  C   UNL     1       0.778   3.944  20.434  0.00  0.00    +0.000 C 
ATOM     22  O   UNL     1       1.949   4.507  21.030  0.00  0.00    +0.000 OA
ENDBRANCH  17  18
ENDBRANCH   6  17
TORSDOF 4
ENDMDL
MODEL 4
REMARK VINA RESULT:      -6.7      4.093      7.524
REMARK  Name = 
REMARK  5 active torsions:
REMARK  status: ('A' for Active; 'I' for Inactive)
REMARK    1  A    between atoms: C_1  and  O_2
REMARK    2  A    between atoms: O_2  and  C_3
REMARK    3  A    between atoms: C_7  and  C_8
REMARK    4  A    between atoms: N_13  and  C_14
REMARK    5  A    between atoms: C_14  and  C_15
REMARK                            x       y       z     vdW  Elec       q    Type
REMARK                         _______ _______ _______ _____ _____    ______ ____
ROOT
ATOM      1  C   UNL     1       2.189   8.851  17.682  0.00  0.00    +0.000 C 
ATOM      2  C   UNL     1       2.587   7.794  18.392  0.00  0.00    +0.000 C 
ATOM      3  S   UNL     1       2.067   7.339  19.964  0.00  0.00    +0.000 S 
ATOM      4  C   UNL     1       2.493   5.655  19.684  0.00  0.00    +0.000 C 
ATOM      5  S   UNL     1       1.842   4.430  20.612  0.00  0.00    +0.000 S 
ATOM      6  N   UNL     1       3.319   5.563  18.580  0.00  0.00    +0.000 N 
ATOM      7  C   UNL     1       3.448   6.710  17.819  0.00  0.00    +0.000 C 
ATOM      8  O   UNL     1       4.096   6.838  16.791  0.00  0.00    +0.000 OA
ENDROOT
BRANCH   1  13
ATOM      9  C   UNL     1      -1.064  10.627  18.401  0.00  0.00    +0.000 A 
ATOM     10  C   UNL     1      -0.590  11.836  18.914  0.00  0.00    +0.000 A 
ATOM     11  C   UNL     1       0.780  12.061  19.058  0.00  0.00    +0.000 A 
ATOM     12  C   UNL     1       1.691  11.079  18.669  0.00  0.00    +0.000 A 
ATOM     13  C   UNL     1       1.232   9.869  18.140  0.00  0.00    +0.000 A 
ATOM     14  C   UNL     1      -0.149   9.638  18.027  0.00  0.00    +0.000 A 
BRANCH   9  16
ATOM     15  C   UNL     1      -2.954   9.807  17.209  0.00  0.00    +0.000 C 
ATOM     16  O   UNL     1      -2.425  10.547  18.301  0.00  0.00    +0.000 OA
ENDBRANCH   9  16
ENDBRANCH   1  13
BRANCH   6  17
ATOM     17  C   UNL     1       3.947   4.321  18.111  0.00  0.00    +0.000 C 
BRANCH  17  18
ATOM     18  C   UNL     1       5.443   4.199  18.465  0.00  0.00    +0.000 C 
ATOM     19  C   UNL     1       5.877   5.316  19.409  0.00  0.00    +0.000 C 
ATOM     20  C   UNL     1       7.259   5.701  18.949  0.00  0.00    +0.000 C 
ATOM     21  C   UNL     1       7.334   5.220  17.519  0.00  0.00    +0.000 C 
ATOM     22  O   UNL     1       6.256   4.310  17.289  0.00  0.00    +0.000 OA
ENDBRANCH  17  18
ENDBRANCH   6  17
TORSDOF 4
ENDMDL
MODEL 5
REMARK VINA RESULT:      -6.6      3.725      7.619
REMARK  Name = 
REMARK  5 active torsions:
REMARK  status: ('A' for Active; 'I' for Inactive)
REMARK    1  A    between atoms: C_1  and  O_2
REMARK    2  A    between atoms: O_2  and  C_3
REMARK    3  A    between atoms: C_7  and  C_8
REMARK    4  A    between atoms: N_13  and  C_14
REMARK    5  A    between atoms: C_14  and  C_15
REMARK                            x       y       z     vdW  Elec       q    Type
REMARK                         _______ _______ _______ _____ _____    ______ ____
ROOT
ATOM      1  C   UNL     1       2.864   8.400  18.047  0.00  0.00    +0.000 C 
ATOM      2  C   UNL     1       3.229   7.119  18.118  0.00  0.00    +0.000 C 
ATOM      3  S   UNL     1       2.296   5.801  18.700  0.00  0.00    +0.000 S 
ATOM      4  C   UNL     1       3.224   4.645  17.750  0.00  0.00    +0.000 C 
ATOM      5  S   UNL     1       2.620   3.130  17.396  0.00  0.00    +0.000 S 
ATOM      6  N   UNL     1       4.397   5.235  17.320  0.00  0.00    +0.000 N 
ATOM      7  C   UNL     1       4.496   6.601  17.506  0.00  0.00    +0.000 C 
ATOM      8  O   UNL     1       5.425   7.321  17.171  0.00  0.00    +0.000 OA
ENDROOT
BRANCH   1  13
ATOM      9  C   UNL     1      -0.615   9.862  17.977  0.00  0.00    +0.000 A 
ATOM     10  C   UNL     1      -0.840  10.060  19.341  0.00  0.00    +0.000 A 
ATOM     11  C   UNL     1       0.121   9.689  20.282  0.00  0.00    +0.000 A 
ATOM     12  C   UNL     1       1.329   9.131  19.862  0.00  0.00    +0.000 A 
ATOM     13  C   UNL     1       1.573   8.941  18.498  0.00  0.00    +0.000 A 
ATOM     14  C   UNL     1       0.588   9.288  17.559  0.00  0.00    +0.000 A 
BRANCH   9  16
ATOM     15  C   UNL     1      -2.948   9.856  17.500  0.00  0.00    +0.000 C 
ATOM     16  O   UNL     1      -1.633  10.283  17.167  0.00  0.00    +0.000 OA
ENDBRANCH   9  16
ENDBRANCH   1  13
BRANCH   6  17
ATOM     17  C   UNL     1       5.459   4.538  16.583  0.00  0.00    +0.000 C 
BRANCH  17  18
ATOM     18  C   UNL     1       5.551   4.923  15.092  0.00  0.00    +0.000 C 
ATOM     19  C   UNL     1       5.411   3.695  14.198  0.00  0.00    +0.000 C 
ATOM     20  C   UNL     1       6.384   3.922  13.070  0.00  0.00    +0.000 C 
ATOM     21  C   UNL     1       7.375   4.924  13.615  0.00  0.00    +0.000 C 
ATOM     22  O   UNL     1       6.824   5.511  14.795  0.00  0.00    +0.000 OA
ENDBRANCH  17  18
ENDBRANCH   6  17
TORSDOF 4
ENDMDL
MODEL 6
REMARK VINA RESULT:      -6.6      1.118      1.861
REMARK  Name = 
REMARK  5 active torsions:
REMARK  status: ('A' for Active; 'I' for Inactive)
REMARK    1  A    between atoms: C_1  and  O_2
REMARK    2  A    between atoms: O_2  and  C_3
REMARK    3  A    between atoms: C_7  and  C_8
REMARK    4  A    between atoms: N_13  and  C_14
REMARK    5  A    between atoms: C_14  and  C_15
REMARK                            x       y       z     vdW  Elec       q    Type
REMARK                         _______ _______ _______ _____ _____    ______ ____
ROOT
ATOM      1  C   UNL     1       5.775   3.908  16.312  0.00  0.00    +0.000 C 
ATOM      2  C   UNL     1       5.277   4.884  17.074  0.00  0.00    +0.000 C 
ATOM      3  S   UNL     1       4.938   6.500  16.607  0.00  0.00    +0.000 S 
ATOM      4  C   UNL     1       3.748   6.687  17.890  0.00  0.00    +0.000 C 
ATOM      5  S   UNL     1       2.583   7.880  17.825  0.00  0.00    +0.000 S 
ATOM      6  N   UNL     1       3.904   5.675  18.817  0.00  0.00    +0.000 N 
ATOM      7  C   UNL     1       4.753   4.645  18.458  0.00  0.00    +0.000 C 
ATOM      8  O   UNL     1       5.006   3.643  19.110  0.00  0.00    +0.000 OA
ENDROOT
BRANCH   1  13
ATOM      9  C   UNL     1       7.580   5.075  13.210  0.00  0.00    +0.000 A 
ATOM     10  C   UNL     1       6.858   4.401  12.222  0.00  0.00    +0.000 A 
ATOM     11  C   UNL     1       5.812   3.544  12.565  0.00  0.00    +0.000 A 
ATOM     12  C   UNL     1       5.465   3.369  13.904  0.00  0.00    +0.000 A 
ATOM     13  C   UNL     1       6.169   4.049  14.903  0.00  0.00    +0.000 A 
ATOM     14  C   UNL     1       7.241   4.886  14.552  0.00  0.00    +0.000 A 
BRANCH   9  16
ATOM     15  C   UNL     1       8.296   6.611  11.538  0.00  0.00    +0.000 C 
ATOM     16  O   UNL     1       8.568   5.892  12.733  0.00  0.00    +0.000 OA
ENDBRANCH   9  16
ENDBRANCH   1  13
BRANCH   6  17
ATOM     17  C   UNL     1       3.146   5.570  20.070  0.00  0.00    +0.000 C 
BRANCH  17  18
ATOM     18  C   UNL     1       1.816   4.798  19.940  0.00  0.00    +0.000 C 
ATOM     19  C   UNL     1       1.763   3.627  20.916  0.00  0.00    +0.000 C 
ATOM     20  C   UNL     1       1.083   2.517  20.155  0.00  0.00    +0.000 C 
ATOM     21  C   UNL     1       1.267   2.881  18.700  0.00  0.00    +0.000 C 
ATOM     22  O   UNL     1       1.672   4.250  18.623  0.00  0.00    +0.000 OA
ENDBRANCH  17  18
ENDBRANCH   6  17
TORSDOF 4
ENDMDL
MODEL 7
REMARK VINA RESULT:      -6.6      4.200      7.861
REMARK  Name = 
REMARK  5 active torsions:
REMARK  status: ('A' for Active; 'I' for Inactive)
REMARK    1  A    between atoms: C_1  and  O_2
REMARK    2  A    between atoms: O_2  and  C_3
REMARK    3  A    between atoms: C_7  and  C_8
REMARK    4  A    between atoms: N_13  and  C_14
REMARK    5  A    between atoms: C_14  and  C_15
REMARK                            x       y       z     vdW  Elec       q    Type
REMARK                         _______ _______ _______ _____ _____    ______ ____
ROOT
ATOM      1  C   UNL     1       2.234   8.863  17.653  0.00  0.00    +0.000 C 
ATOM      2  C   UNL     1       2.623   7.802  18.365  0.00  0.00    +0.000 C 
ATOM      3  S   UNL     1       2.075   7.336  19.923  0.00  0.00    +0.000 S 
ATOM      4  C   UNL     1       2.514   5.655  19.641  0.00  0.00    +0.000 C 
ATOM      5  S   UNL     1       1.851   4.421  20.549  0.00  0.00    +0.000 S 
ATOM      6  N   UNL     1       3.361   5.573  18.552  0.00  0.00    +0.000 N 
ATOM      7  C   UNL     1       3.499   6.725  17.801  0.00  0.00    +0.000 C 
ATOM      8  O   UNL     1       4.167   6.863  16.786  0.00  0.00    +0.000 OA
ENDROOT
BRANCH   1  13
ATOM      9  C   UNL     1       0.798  12.028  19.124  0.00  0.00    +0.000 A 
ATOM     10  C   UNL     1      -0.569  11.755  19.040  0.00  0.00    +0.000 A 
ATOM     11  C   UNL     1      -1.023  10.562  18.477  0.00  0.00    +0.000 A 
ATOM     12  C   UNL     1      -0.108   9.620  18.008  0.00  0.00    +0.000 A 
ATOM     13  C   UNL     1       1.264   9.874  18.099  0.00  0.00    +0.000 A 
ATOM     14  C   UNL     1       1.713  11.090  18.639  0.00  0.00    +0.000 A 
BRANCH   9  16
ATOM     15  C   UNL     1       2.301  13.289  20.473  0.00  0.00    +0.000 C 
ATOM     16  O   UNL     1       1.103  13.226  19.711  0.00  0.00    +0.000 OA
ENDBRANCH   9  16
ENDBRANCH   1  13
BRANCH   6  17
ATOM     17  C   UNL     1       4.003   4.337  18.087  0.00  0.00    +0.000 C 
BRANCH  17  18
ATOM     18  C   UNL     1       5.501   4.234  18.441  0.00  0.00    +0.000 C 
ATOM     19  C   UNL     1       5.913   5.336  19.412  0.00  0.00    +0.000 C 
ATOM     20  C   UNL     1       7.289   5.756  18.963  0.00  0.00    +0.000 C 
ATOM     21  C   UNL     1       7.374   5.310  17.522  0.00  0.00    +0.000 C 
ATOM     22  O   UNL     1       6.313   4.387  17.269  0.00  0.00    +0.000 OA
ENDBRANCH  17  18
ENDBRANCH   6  17
TORSDOF 4
ENDMDL
MODEL 8
REMARK VINA RESULT:      -6.5      4.274      8.225
REMARK  Name = 
REMARK  5 active torsions:
REMARK  status: ('A' for Active; 'I' for Inactive)
REMARK    1  A    between atoms: C_1  and  O_2
REMARK    2  A    between atoms: O_2  and  C_3
REMARK    3  A    between atoms: C_7  and  C_8
REMARK    4  A    between atoms: N_13  and  C_14
REMARK    5  A    between atoms: C_14  and  C_15
REMARK                            x       y       z     vdW  Elec       q    Type
REMARK                         _______ _______ _______ _____ _____    ______ ____
ROOT
ATOM      1  C   UNL     1       1.977   8.843  18.218  0.00  0.00    +0.000 C 
ATOM      2  C   UNL     1       2.423   7.689  18.718  0.00  0.00    +0.000 C 
ATOM      3  S   UNL     1       1.903   6.906  20.154  0.00  0.00    +0.000 S 
ATOM      4  C   UNL     1       2.430   5.334  19.561  0.00  0.00    +0.000 C 
ATOM      5  S   UNL     1       1.835   3.917  20.212  0.00  0.00    +0.000 S 
ATOM      6  N   UNL     1       3.278   5.506  18.484  0.00  0.00    +0.000 N 
ATOM      7  C   UNL     1       3.354   6.786  17.967  0.00  0.00    +0.000 C 
ATOM      8  O   UNL     1       4.012   7.149  17.003  0.00  0.00    +0.000 OA
ENDROOT
BRANCH   1  13
ATOM      9  C   UNL     1       0.175  10.991  20.745  0.00  0.00    +0.000 A 
ATOM     10  C   UNL     1      -1.021  11.239  20.068  0.00  0.00    +0.000 A 
ATOM     11  C   UNL     1      -1.227  10.739  18.781  0.00  0.00    +0.000 A 
ATOM     12  C   UNL     1      -0.241   9.967  18.167  0.00  0.00    +0.000 A 
ATOM     13  C   UNL     1       0.955   9.698  18.840  0.00  0.00    +0.000 A 
ATOM     14  C   UNL     1       1.169  10.231  20.122  0.00  0.00    +0.000 A 
BRANCH   9  16
ATOM     15  C   UNL     1      -0.994  11.863  22.627  0.00  0.00    +0.000 C 
ATOM     16  O   UNL     1       0.238  11.528  22.001  0.00  0.00    +0.000 OA
ENDBRANCH   9  16
ENDBRANCH   1  13
BRANCH   6  17
ATOM     17  C   UNL     1       3.984   4.417  17.798  0.00  0.00    +0.000 C 
BRANCH  17  18
ATOM     18  C   UNL     1       5.459   4.256  18.222  0.00  0.00    +0.000 C 
ATOM     19  C   UNL     1       5.809   5.207  19.363  0.00  0.00    +0.000 C 
ATOM     20  C   UNL     1       7.207   5.679  19.061  0.00  0.00    +0.000 C 
ATOM     21  C   UNL     1       7.381   5.443  17.579  0.00  0.00    +0.000 C 
ATOM     22  O   UNL     1       6.339   4.570  17.135  0.00  0.00    +0.000 OA
ENDBRANCH  17  18
ENDBRANCH   6  17
TORSDOF 4
ENDMDL
MODEL 9
REMARK VINA RESULT:      -6.4      3.530      7.913
REMARK  Name = 
REMARK  5 active torsions:
REMARK  status: ('A' for Active; 'I' for Inactive)
REMARK    1  A    between atoms: C_1  and  O_2
REMARK    2  A    between atoms: O_2  and  C_3
REMARK    3  A    between atoms: C_7  and  C_8
REMARK    4  A    between atoms: N_13  and  C_14
REMARK    5  A    between atoms: C_14  and  C_15
REMARK                            x       y       z     vdW  Elec       q    Type
REMARK                         _______ _______ _______ _____ _____    ______ ____
ROOT
ATOM      1  C   UNL     1       2.880   8.461  18.041  0.00  0.00    +0.000 C 
ATOM      2  C   UNL     1       3.214   7.171  18.117  0.00  0.00    +0.000 C 
ATOM      3  S   UNL     1       2.245   5.875  18.690  0.00  0.00    +0.000 S 
ATOM      4  C   UNL     1       3.156   4.698  17.751  0.00  0.00    +0.000 C 
ATOM      5  S   UNL     1       2.520   3.197  17.391  0.00  0.00    +0.000 S 
ATOM      6  N   UNL     1       4.346   5.260  17.332  0.00  0.00    +0.000 N 
ATOM      7  C   UNL     1       4.474   6.624  17.519  0.00  0.00    +0.000 C 
ATOM      8  O   UNL     1       5.423   7.321  17.193  0.00  0.00    +0.000 OA
ENDROOT
BRANCH   1  13
ATOM      9  C   UNL     1       0.085   9.669  20.272  0.00  0.00    +0.000 A 
ATOM     10  C   UNL     1      -0.874  10.020  19.319  0.00  0.00    +0.000 A 
ATOM     11  C   UNL     1      -0.600   9.896  17.956  0.00  0.00    +0.000 A 
ATOM     12  C   UNL     1       0.633   9.400  17.535  0.00  0.00    +0.000 A 
ATOM     13  C   UNL     1       1.597   9.031  18.478  0.00  0.00    +0.000 A 
ATOM     14  C   UNL     1       1.327   9.188  19.848  0.00  0.00    +0.000 A 
BRANCH   9  16
ATOM     15  C   UNL     1       0.537   9.317  22.583  0.00  0.00    +0.000 C 
ATOM     16  O   UNL     1      -0.320   9.827  21.569  0.00  0.00    +0.000 OA
ENDBRANCH   9  16
ENDBRANCH   1  13
BRANCH   6  17
ATOM     17  C   UNL     1       5.399   4.537  16.607  0.00  0.00    +0.000 C 
BRANCH  17  18
ATOM     18  C   UNL     1       5.519   4.924  15.119  0.00  0.00    +0.000 C 
ATOM     19  C   UNL     1       5.382   3.698  14.221  0.00  0.00    +0.000 C 
ATOM     20  C   UNL     1       6.376   3.917  13.109  0.00  0.00    +0.000 C 
ATOM     21  C   UNL     1       7.368   4.908  13.672  0.00  0.00    +0.000 C 
ATOM     22  O   UNL     1       6.803   5.499  14.844  0.00  0.00    +0.000 OA
ENDBRANCH  17  18
ENDBRANCH   6  17
TORSDOF 4
ENDMDL
