MODEL 1
REMARK VINA RESULT:      -8.5      0.000      0.000
REMARK  Name = 
REMARK  5 active torsions:
REMARK  status: ('A' for Active; 'I' for Inactive)
REMARK    1  A    between atoms: C_1  and  C_2
REMARK    2  A    between atoms: C_4  and  C_5
REMARK    3  A    between atoms: C_7  and  C_8
REMARK    4  A    between atoms: C_15  and  O_16
REMARK    5  A    between atoms: O_16  and  C_17
REMARK                            x       y       z     vdW  Elec       q    Type
REMARK                         _______ _______ _______ _____ _____    ______ ____
ROOT
ATOM      1  C   UNL     1       8.318   8.990  18.157  0.00  0.00    +0.000 C 
ATOM      2  O   UNL     1       7.511   9.310  17.285  0.00  0.00    +0.000 OA
ATOM      3  N   UNL     1       8.453   7.707  18.641  0.00  0.00    +0.000 N 
ATOM      4  C   UNL     1       7.657   6.658  18.163  0.00  0.00    +0.000 A 
ATOM      5  C   UNL     1       7.373   6.471  16.809  0.00  0.00    +0.000 A 
ATOM      6  N   UNL     1       6.579   5.467  16.352  0.00  0.00    +0.000 NA
ATOM      7  C   UNL     1       6.045   4.685  17.316  0.00  0.00    +0.000 A 
ATOM      8  C   UNL     1       6.341   4.857  18.661  0.00  0.00    +0.000 A 
ATOM      9  N   UNL     1       7.175   5.827  19.109  0.00  0.00    +0.000 NA
ATOM     10  H   UNL     1       8.747   7.588  19.600  0.00  0.00    +0.000 HD
ENDROOT
BRANCH   1  17
ATOM     11  C   UNL     1      11.922  12.535  17.924  0.00  0.00    +0.000 C 
ATOM     12  C   UNL     1      10.868  11.786  18.689  0.00  0.00    +0.000 A 
ATOM     13  C   UNL     1      10.578  12.130  20.015  0.00  0.00    +0.000 A 
ATOM     14  C   UNL     1       9.593  11.446  20.733  0.00  0.00    +0.000 A 
ATOM     15  C   UNL     1       9.254  11.828  22.145  0.00  0.00    +0.000 C 
ATOM     16  C   UNL     1       8.897  10.403  20.110  0.00  0.00    +0.000 A 
ATOM     17  C   UNL     1       9.167  10.049  18.780  0.00  0.00    +0.000 A 
ATOM     18  C   UNL     1      10.158  10.742  18.073  0.00  0.00    +0.000 A 
ENDBRANCH   1  17
BRANCH   8  19
ATOM     19  O   UNL     1       5.677   4.037  19.562  0.00  0.00    +0.000 OA
BRANCH  19  20
ATOM     20  C   UNL     1       4.308   3.984  19.512  0.00  0.00    +0.000 A 
ATOM     21  C   UNL     1       3.610   5.173  19.699  0.00  0.00    +0.000 A 
ATOM     22  N   UNL     1       2.259   5.282  19.617  0.00  0.00    +0.000 NA
ATOM     23  C   UNL     1       1.583   4.141  19.337  0.00  0.00    +0.000 A 
ATOM     24  C   UNL     1       2.198   2.923  19.129  0.00  0.00    +0.000 A 
ATOM     25  F   UNL     1       1.477   1.829  18.853  0.00  0.00    +0.000 F 
ATOM     26  C   UNL     1       3.589   2.834  19.200  0.00  0.00    +0.000 A 
ENDBRANCH  19  20
ENDBRANCH   8  19
TORSDOF 3
ENDMDL
MODEL 2
REMARK VINA RESULT:      -8.4      1.163      1.358
REMARK  Name = 
REMARK  5 active torsions:
REMARK  status: ('A' for Active; 'I' for Inactive)
REMARK    1  A    between atoms: C_1  and  C_2
REMARK    2  A    between atoms: C_4  and  C_5
REMARK    3  A    between atoms: C_7  and  C_8
REMARK    4  A    between atoms: C_15  and  O_16
REMARK    5  A    between atoms: O_16  and  C_17
REMARK                            x       y       z     vdW  Elec       q    Type
REMARK                         _______ _______ _______ _____ _____    ______ ____
ROOT
ATOM      1  C   UNL     1       8.469   9.235  18.401  0.00  0.00    +0.000 C 
ATOM      2  O   UNL     1       7.722   9.617  17.501  0.00  0.00    +0.000 OA
ATOM      3  N   UNL     1       8.557   7.924  18.818  0.00  0.00    +0.000 N 
ATOM      4  C   UNL     1       7.779   6.917  18.232  0.00  0.00    +0.000 A 
ATOM      5  C   UNL     1       7.578   6.812  16.854  0.00  0.00    +0.000 A 
ATOM      6  N   UNL     1       6.800   5.849  16.293  0.00  0.00    +0.000 NA
ATOM      7  C   UNL     1       6.197   5.022  17.175  0.00  0.00    +0.000 A 
ATOM      8  C   UNL     1       6.411   5.113  18.543  0.00  0.00    +0.000 A 
ATOM      9  N   UNL     1       7.228   6.042  19.097  0.00  0.00    +0.000 NA
ATOM     10  H   UNL     1       8.789   7.746  19.785  0.00  0.00    +0.000 HD
ENDROOT
BRANCH   1  17
ATOM     11  C   UNL     1      12.313  12.515  18.677  0.00  0.00    +0.000 C 
ATOM     12  C   UNL     1      11.107  11.855  19.283  0.00  0.00    +0.000 A 
ATOM     13  C   UNL     1      10.651  12.241  20.551  0.00  0.00    +0.000 A 
ATOM     14  C   UNL     1       9.526  11.640  21.120  0.00  0.00    +0.000 A 
ATOM     15  C   UNL     1       9.011  12.068  22.464  0.00  0.00    +0.000 C 
ATOM     16  C   UNL     1       8.855  10.637  20.409  0.00  0.00    +0.000 A 
ATOM     17  C   UNL     1       9.291  10.242  19.135  0.00  0.00    +0.000 A 
ATOM     18  C   UNL     1      10.422  10.853  18.577  0.00  0.00    +0.000 A 
ENDBRANCH   1  17
BRANCH   8  19
ATOM     19  O   UNL     1       5.681   4.254  19.353  0.00  0.00    +0.000 OA
BRANCH  19  20
ATOM     20  C   UNL     1       4.466   3.805  18.904  0.00  0.00    +0.000 A 
ATOM     21  C   UNL     1       4.168   2.459  19.092  0.00  0.00    +0.000 A 
ATOM     22  N   UNL     1       2.983   1.888  18.754  0.00  0.00    +0.000 NA
ATOM     23  C   UNL     1       2.060   2.711  18.200  0.00  0.00    +0.000 A 
ATOM     24  C   UNL     1       2.271   4.059  17.988  0.00  0.00    +0.000 A 
ATOM     25  F   UNL     1       1.320   4.823  17.438  0.00  0.00    +0.000 F 
ATOM     26  C   UNL     1       3.489   4.631  18.357  0.00  0.00    +0.000 A 
ENDBRANCH  19  20
ENDBRANCH   8  19
TORSDOF 3
ENDMDL
MODEL 3
REMARK VINA RESULT:      -8.4      1.069      1.318
REMARK  Name = 
REMARK  5 active torsions:
REMARK  status: ('A' for Active; 'I' for Inactive)
REMARK    1  A    between atoms: C_1  and  C_2
REMARK    2  A    between atoms: C_4  and  C_5
REMARK    3  A    between atoms: C_7  and  C_8
REMARK    4  A    between atoms: C_15  and  O_16
REMARK    5  A    between atoms: O_16  and  C_17
REMARK                            x       y       z     vdW  Elec       q    Type
REMARK                         _______ _______ _______ _____ _____    ______ ____
ROOT
ATOM      1  C   UNL     1       8.287   8.986  18.156  0.00  0.00    +0.000 C 
ATOM      2  O   UNL     1       7.469   9.322  17.301  0.00  0.00    +0.000 OA
ATOM      3  N   UNL     1       8.433   7.693  18.611  0.00  0.00    +0.000 N 
ATOM      4  C   UNL     1       7.634   6.652  18.121  0.00  0.00    +0.000 A 
ATOM      5  C   UNL     1       7.334   6.493  16.766  0.00  0.00    +0.000 A 
ATOM      6  N   UNL     1       6.537   5.497  16.298  0.00  0.00    +0.000 NA
ATOM      7  C   UNL     1       6.018   4.692  17.252  0.00  0.00    +0.000 A 
ATOM      8  C   UNL     1       6.331   4.836  18.596  0.00  0.00    +0.000 A 
ATOM      9  N   UNL     1       7.167   5.799  19.054  0.00  0.00    +0.000 NA
ATOM     10  H   UNL     1       8.739   7.555  19.563  0.00  0.00    +0.000 HD
ENDROOT
BRANCH   1  17
ATOM     11  C   UNL     1      11.926  12.498  17.969  0.00  0.00    +0.000 C 
ATOM     12  C   UNL     1      10.859  11.756  18.721  0.00  0.00    +0.000 A 
ATOM     13  C   UNL     1      10.561  12.096  20.047  0.00  0.00    +0.000 A 
ATOM     14  C   UNL     1       9.564  11.419  20.753  0.00  0.00    +0.000 A 
ATOM     15  C   UNL     1       9.216  11.797  22.164  0.00  0.00    +0.000 C 
ATOM     16  C   UNL     1       8.863  10.385  20.120  0.00  0.00    +0.000 A 
ATOM     17  C   UNL     1       9.141  10.034  18.790  0.00  0.00    +0.000 A 
ATOM     18  C   UNL     1      10.145  10.721  18.096  0.00  0.00    +0.000 A 
ENDBRANCH   1  17
BRANCH   8  19
ATOM     19  O   UNL     1       5.680   3.995  19.488  0.00  0.00    +0.000 OA
BRANCH  19  20
ATOM     20  C   UNL     1       4.309   4.013  19.524  0.00  0.00    +0.000 A 
ATOM     21  C   UNL     1       3.641   2.840  19.186  0.00  0.00    +0.000 A 
ATOM     22  N   UNL     1       2.292   2.693  19.236  0.00  0.00    +0.000 NA
ATOM     23  C   UNL     1       1.587   3.776  19.642  0.00  0.00    +0.000 A 
ATOM     24  C   UNL     1       2.172   4.974  20.003  0.00  0.00    +0.000 A 
ATOM     25  F   UNL     1       1.423   6.011  20.399  0.00  0.00    +0.000 F 
ATOM     26  C   UNL     1       3.561   5.101  19.962  0.00  0.00    +0.000 A 
ENDBRANCH  19  20
ENDBRANCH   8  19
TORSDOF 3
ENDMDL
MODEL 4
REMARK VINA RESULT:      -8.3      5.258      7.198
REMARK  Name = 
REMARK  5 active torsions:
REMARK  status: ('A' for Active; 'I' for Inactive)
REMARK    1  A    between atoms: C_1  and  C_2
REMARK    2  A    between atoms: C_4  and  C_5
REMARK    3  A    between atoms: C_7  and  C_8
REMARK    4  A    between atoms: C_15  and  O_16
REMARK    5  A    between atoms: O_16  and  C_17
REMARK                            x       y       z     vdW  Elec       q    Type
REMARK                         _______ _______ _______ _____ _____    ______ ____
ROOT
ATOM      1  C   UNL     1       1.817   6.765  19.992  0.00  0.00    +0.000 C 
ATOM      2  O   UNL     1       1.601   5.870  20.809  0.00  0.00    +0.000 OA
ATOM      3  N   UNL     1       2.480   6.568  18.799  0.00  0.00    +0.000 N 
ATOM      4  C   UNL     1       2.968   5.308  18.435  0.00  0.00    +0.000 A 
ATOM      5  C   UNL     1       2.240   4.128  18.604  0.00  0.00    +0.000 A 
ATOM      6  N   UNL     1       2.729   2.904  18.273  0.00  0.00    +0.000 NA
ATOM      7  C   UNL     1       3.997   2.909  17.804  0.00  0.00    +0.000 A 
ATOM      8  C   UNL     1       4.715   4.081  17.616  0.00  0.00    +0.000 A 
ATOM      9  N   UNL     1       4.206   5.305  17.899  0.00  0.00    +0.000 NA
ATOM     10  H   UNL     1       3.017   7.336  18.421  0.00  0.00    +0.000 HD
ENDROOT
BRANCH   1  17
ATOM     11  C   UNL     1       1.116  11.623  18.758  0.00  0.00    +0.000 C 
ATOM     12  C   UNL     1       1.010  10.492  19.741  0.00  0.00    +0.000 A 
ATOM     13  C   UNL     1       0.411  10.695  20.991  0.00  0.00    +0.000 A 
ATOM     14  C   UNL     1       0.299   9.647  21.910  0.00  0.00    +0.000 A 
ATOM     15  C   UNL     1      -0.369   9.847  23.239  0.00  0.00    +0.000 C 
ATOM     16  C   UNL     1       0.799   8.385  21.568  0.00  0.00    +0.000 A 
ATOM     17  C   UNL     1       1.395   8.159  20.318  0.00  0.00    +0.000 A 
ATOM     18  C   UNL     1       1.501   9.219  19.408  0.00  0.00    +0.000 A 
ENDBRANCH   1  17
BRANCH   8  19
ATOM     19  O   UNL     1       6.031   3.952  17.197  0.00  0.00    +0.000 OA
BRANCH  19  20
ATOM     20  C   UNL     1       6.330   4.216  15.886  0.00  0.00    +0.000 A 
ATOM     21  C   UNL     1       7.295   5.185  15.628  0.00  0.00    +0.000 A 
ATOM     22  N   UNL     1       7.734   5.508  14.384  0.00  0.00    +0.000 NA
ATOM     23  C   UNL     1       7.176   4.824  13.357  0.00  0.00    +0.000 A 
ATOM     24  C   UNL     1       6.220   3.841  13.526  0.00  0.00    +0.000 A 
ATOM     25  F   UNL     1       5.705   3.197  12.471  0.00  0.00    +0.000 F 
ATOM     26  C   UNL     1       5.793   3.512  14.812  0.00  0.00    +0.000 A 
ENDBRANCH  19  20
ENDBRANCH   8  19
TORSDOF 3
ENDMDL
MODEL 5
REMARK VINA RESULT:      -8.3      0.430      1.773
REMARK  Name = 
REMARK  5 active torsions:
REMARK  status: ('A' for Active; 'I' for Inactive)
REMARK    1  A    between atoms: C_1  and  C_2
REMARK    2  A    between atoms: C_4  and  C_5
REMARK    3  A    between atoms: C_7  and  C_8
REMARK    4  A    between atoms: C_15  and  O_16
REMARK    5  A    between atoms: O_16  and  C_17
REMARK                            x       y       z     vdW  Elec       q    Type
REMARK                         _______ _______ _______ _____ _____    ______ ____
ROOT
ATOM      1  C   UNL     1       8.391   9.293  18.340  0.00  0.00    +0.000 C 
ATOM      2  O   UNL     1       7.609   9.635  17.453  0.00  0.00    +0.000 OA
ATOM      3  N   UNL     1       8.564   7.988  18.747  0.00  0.00    +0.000 N 
ATOM      4  C   UNL     1       7.838   6.940  18.167  0.00  0.00    +0.000 A 
ATOM      5  C   UNL     1       7.621   6.830  16.792  0.00  0.00    +0.000 A 
ATOM      6  N   UNL     1       6.893   5.826  16.236  0.00  0.00    +0.000 NA
ATOM      7  C   UNL     1       6.355   4.960  17.123  0.00  0.00    +0.000 A 
ATOM      8  C   UNL     1       6.585   5.056  18.488  0.00  0.00    +0.000 A 
ATOM      9  N   UNL     1       7.354   6.029  19.035  0.00  0.00    +0.000 NA
ATOM     10  H   UNL     1       8.822   7.819  19.709  0.00  0.00    +0.000 HD
ENDROOT
BRANCH   1  17
ATOM     11  C   UNL     1       9.345  12.104  22.439  0.00  0.00    +0.000 C 
ATOM     12  C   UNL     1       9.672  11.682  21.035  0.00  0.00    +0.000 A 
ATOM     13  C   UNL     1      10.795  12.204  20.382  0.00  0.00    +0.000 A 
ATOM     14  C   UNL     1      11.114  11.810  19.079  0.00  0.00    +0.000 A 
ATOM     15  C   UNL     1      12.333  12.341  18.382  0.00  0.00    +0.000 C 
ATOM     16  C   UNL     1      10.290  10.885  18.426  0.00  0.00    +0.000 A 
ATOM     17  C   UNL     1       9.164  10.344  19.066  0.00  0.00    +0.000 A 
ATOM     18  C   UNL     1       8.857  10.749  20.372  0.00  0.00    +0.000 A 
ENDBRANCH   1  17
BRANCH   8  19
ATOM     19  O   UNL     1       5.921   4.151  19.304  0.00  0.00    +0.000 OA
BRANCH  19  20
ATOM     20  C   UNL     1       4.552   4.093  19.240  0.00  0.00    +0.000 A 
ATOM     21  C   UNL     1       3.842   5.233  19.602  0.00  0.00    +0.000 A 
ATOM     22  N   UNL     1       2.490   5.342  19.531  0.00  0.00    +0.000 NA
ATOM     23  C   UNL     1       1.827   4.251  19.076  0.00  0.00    +0.000 A 
ATOM     24  C   UNL     1       2.455   3.084  18.687  0.00  0.00    +0.000 A 
ATOM     25  F   UNL     1       1.746   2.040  18.243  0.00  0.00    +0.000 F 
ATOM     26  C   UNL     1       3.846   2.998  18.751  0.00  0.00    +0.000 A 
ENDBRANCH  19  20
ENDBRANCH   8  19
TORSDOF 3
ENDMDL
MODEL 6
REMARK VINA RESULT:      -8.3      1.094      2.184
REMARK  Name = 
REMARK  5 active torsions:
REMARK  status: ('A' for Active; 'I' for Inactive)
REMARK    1  A    between atoms: C_1  and  C_2
REMARK    2  A    between atoms: C_4  and  C_5
REMARK    3  A    between atoms: C_7  and  C_8
REMARK    4  A    between atoms: C_15  and  O_16
REMARK    5  A    between atoms: O_16  and  C_17
REMARK                            x       y       z     vdW  Elec       q    Type
REMARK                         _______ _______ _______ _____ _____    ______ ____
ROOT
ATOM      1  C   UNL     1       8.293   9.194  18.156  0.00  0.00    +0.000 C 
ATOM      2  O   UNL     1       7.485   9.506  17.283  0.00  0.00    +0.000 OA
ATOM      3  N   UNL     1       8.481   7.902  18.599  0.00  0.00    +0.000 N 
ATOM      4  C   UNL     1       7.741   6.835  18.073  0.00  0.00    +0.000 A 
ATOM      5  C   UNL     1       7.486   6.682  16.709  0.00  0.00    +0.000 A 
ATOM      6  N   UNL     1       6.745   5.660  16.206  0.00  0.00    +0.000 NA
ATOM      7  C   UNL     1       6.234   4.821  17.134  0.00  0.00    +0.000 A 
ATOM      8  C   UNL     1       6.503   4.960  18.488  0.00  0.00    +0.000 A 
ATOM      9  N   UNL     1       7.285   5.951  18.982  0.00  0.00    +0.000 NA
ATOM     10  H   UNL     1       8.767   7.764  19.558  0.00  0.00    +0.000 HD
ENDROOT
BRANCH   1  17
ATOM     11  C   UNL     1       9.492  11.996  22.197  0.00  0.00    +0.000 C 
ATOM     12  C   UNL     1       9.709  11.603  20.763  0.00  0.00    +0.000 A 
ATOM     13  C   UNL     1      10.748  12.181  20.021  0.00  0.00    +0.000 A 
ATOM     14  C   UNL     1      10.964  11.816  18.689  0.00  0.00    +0.000 A 
ATOM     15  C   UNL     1      12.094  12.406  17.895  0.00  0.00    +0.000 C 
ATOM     16  C   UNL     1      10.125  10.864  18.098  0.00  0.00    +0.000 A 
ATOM     17  C   UNL     1       9.084  10.268  18.827  0.00  0.00    +0.000 A 
ATOM     18  C   UNL     1       8.878  10.645  20.161  0.00  0.00    +0.000 A 
ENDBRANCH   1  17
BRANCH   8  19
ATOM     19  O   UNL     1       5.864   4.080  19.351  0.00  0.00    +0.000 OA
BRANCH  19  20
ATOM     20  C   UNL     1       4.495   4.099  19.411  0.00  0.00    +0.000 A 
ATOM     21  C   UNL     1       3.823   2.905  19.166  0.00  0.00    +0.000 A 
ATOM     22  N   UNL     1       2.475   2.761  19.249  0.00  0.00    +0.000 NA
ATOM     23  C   UNL     1       1.776   3.869  19.593  0.00  0.00    +0.000 A 
ATOM     24  C   UNL     1       2.365   5.089  19.862  0.00  0.00    +0.000 A 
ATOM     25  F   UNL     1       1.621   6.150  20.199  0.00  0.00    +0.000 F 
ATOM     26  C   UNL     1       3.752   5.214  19.787  0.00  0.00    +0.000 A 
ENDBRANCH  19  20
ENDBRANCH   8  19
TORSDOF 3
ENDMDL
MODEL 7
REMARK VINA RESULT:      -8.3      5.908      9.050
REMARK  Name = 
REMARK  5 active torsions:
REMARK  status: ('A' for Active; 'I' for Inactive)
REMARK    1  A    between atoms: C_1  and  C_2
REMARK    2  A    between atoms: C_4  and  C_5
REMARK    3  A    between atoms: C_7  and  C_8
REMARK    4  A    between atoms: C_15  and  O_16
REMARK    5  A    between atoms: O_16  and  C_17
REMARK                            x       y       z     vdW  Elec       q    Type
REMARK                         _______ _______ _______ _____ _____    ______ ____
ROOT
ATOM      1  C   UNL     1       2.133   6.327  19.680  0.00  0.00    +0.000 C 
ATOM      2  O   UNL     1       1.342   5.847  20.491  0.00  0.00    +0.000 OA
ATOM      3  N   UNL     1       2.289   7.681  19.473  0.00  0.00    +0.000 N 
ATOM      4  C   UNL     1       1.533   8.621  20.185  0.00  0.00    +0.000 A 
ATOM      5  C   UNL     1       1.290   8.525  21.556  0.00  0.00    +0.000 A 
ATOM      6  N   UNL     1       0.533   9.425  22.238  0.00  0.00    +0.000 NA
ATOM      7  C   UNL     1      -0.005  10.403  21.476  0.00  0.00    +0.000 A 
ATOM      8  C   UNL     1       0.251  10.512  20.117  0.00  0.00    +0.000 A 
ATOM      9  N   UNL     1       1.048   9.642  19.450  0.00  0.00    +0.000 NA
ATOM     10  H   UNL     1       2.560   7.993  18.551  0.00  0.00    +0.000 HD
ENDROOT
BRANCH   1  17
ATOM     11  C   UNL     1       3.460   1.702  18.111  0.00  0.00    +0.000 C 
ATOM     12  C   UNL     1       3.569   3.198  18.022  0.00  0.00    +0.000 A 
ATOM     13  C   UNL     1       4.378   3.791  17.044  0.00  0.00    +0.000 A 
ATOM     14  C   UNL     1       4.478   5.182  16.946  0.00  0.00    +0.000 A 
ATOM     15  C   UNL     1       5.319   5.827  15.882  0.00  0.00    +0.000 C 
ATOM     16  C   UNL     1       3.761   5.982  17.843  0.00  0.00    +0.000 A 
ATOM     17  C   UNL     1       2.938   5.407  18.824  0.00  0.00    +0.000 A 
ATOM     18  C   UNL     1       2.848   4.012  18.911  0.00  0.00    +0.000 A 
ENDBRANCH   1  17
BRANCH   8  19
ATOM     19  O   UNL     1      -0.416  11.516  19.429  0.00  0.00    +0.000 OA
BRANCH  19  20
ATOM     20  C   UNL     1      -1.602  11.212  18.813  0.00  0.00    +0.000 A 
ATOM     21  C   UNL     1      -2.734  11.915  19.214  0.00  0.00    +0.000 A 
ATOM     22  N   UNL     1      -3.961  11.763  18.652  0.00  0.00    +0.000 NA
ATOM     23  C   UNL     1      -4.050  10.862  17.645  0.00  0.00    +0.000 A 
ATOM     24  C   UNL     1      -2.975  10.129  17.181  0.00  0.00    +0.000 A 
ATOM     25  F   UNL     1      -3.124   9.253  16.180  0.00  0.00    +0.000 F 
ATOM     26  C   UNL     1      -1.719  10.311  17.759  0.00  0.00    +0.000 A 
ENDBRANCH  19  20
ENDBRANCH   8  19
TORSDOF 3
ENDMDL
MODEL 8
REMARK VINA RESULT:      -8.2      5.012      7.388
REMARK  Name = 
REMARK  5 active torsions:
REMARK  status: ('A' for Active; 'I' for Inactive)
REMARK    1  A    between atoms: C_1  and  C_2
REMARK    2  A    between atoms: C_4  and  C_5
REMARK    3  A    between atoms: C_7  and  C_8
REMARK    4  A    between atoms: C_15  and  O_16
REMARK    5  A    between atoms: O_16  and  C_17
REMARK                            x       y       z     vdW  Elec       q    Type
REMARK                         _______ _______ _______ _____ _____    ______ ____
ROOT
ATOM      1  C   UNL     1       1.607   6.900  20.326  0.00  0.00    +0.000 C 
ATOM      2  O   UNL     1       1.460   6.054  21.208  0.00  0.00    +0.000 OA
ATOM      3  N   UNL     1       2.280   6.667  19.147  0.00  0.00    +0.000 N 
ATOM      4  C   UNL     1       2.860   5.423  18.870  0.00  0.00    +0.000 A 
ATOM      5  C   UNL     1       2.222   4.208  19.130  0.00  0.00    +0.000 A 
ATOM      6  N   UNL     1       2.799   3.002  18.885  0.00  0.00    +0.000 NA
ATOM      7  C   UNL     1       4.062   3.066  18.408  0.00  0.00    +0.000 A 
ATOM      8  C   UNL     1       4.690   4.271  18.130  0.00  0.00    +0.000 A 
ATOM      9  N   UNL     1       4.093   5.472  18.327  0.00  0.00    +0.000 NA
ATOM     10  H   UNL     1       2.757   7.443  18.709  0.00  0.00    +0.000 HD
ENDROOT
BRANCH   1  17
ATOM     11  C   UNL     1      -0.718  10.384  23.168  0.00  0.00    +0.000 C 
ATOM     12  C   UNL     1       0.004   9.986  21.912  0.00  0.00    +0.000 A 
ATOM     13  C   UNL     1       0.299  10.943  20.932  0.00  0.00    +0.000 A 
ATOM     14  C   UNL     1       0.979  10.586  19.764  0.00  0.00    +0.000 A 
ATOM     15  C   UNL     1       1.326  11.609  18.722  0.00  0.00    +0.000 C 
ATOM     16  C   UNL     1       1.362   9.252  19.580  0.00  0.00    +0.000 A 
ATOM     17  C   UNL     1       1.083   8.280  20.553  0.00  0.00    +0.000 A 
ATOM     18  C   UNL     1       0.400   8.653  21.718  0.00  0.00    +0.000 A 
ENDBRANCH   1  17
BRANCH   8  19
ATOM     19  O   UNL     1       6.012   4.210  17.711  0.00  0.00    +0.000 OA
BRANCH  19  20
ATOM     20  C   UNL     1       6.290   4.417  16.385  0.00  0.00    +0.000 A 
ATOM     21  C   UNL     1       7.304   5.316  16.072  0.00  0.00    +0.000 A 
ATOM     22  N   UNL     1       7.727   5.575  14.807  0.00  0.00    +0.000 NA
ATOM     23  C   UNL     1       7.099   4.896  13.817  0.00  0.00    +0.000 A 
ATOM     24  C   UNL     1       6.090   3.980  14.041  0.00  0.00    +0.000 A 
ATOM     25  F   UNL     1       5.508   3.338  13.021  0.00  0.00    +0.000 F 
ATOM     26  C   UNL     1       5.680   3.716  15.349  0.00  0.00    +0.000 A 
ENDBRANCH  19  20
ENDBRANCH   8  19
TORSDOF 3
ENDMDL
MODEL 9
REMARK VINA RESULT:      -8.1      5.914      8.907
REMARK  Name = 
REMARK  5 active torsions:
REMARK  status: ('A' for Active; 'I' for Inactive)
REMARK    1  A    between atoms: C_1  and  C_2
REMARK    2  A    between atoms: C_4  and  C_5
REMARK    3  A    between atoms: C_7  and  C_8
REMARK    4  A    between atoms: C_15  and  O_16
REMARK    5  A    between atoms: O_16  and  C_17
REMARK                            x       y       z     vdW  Elec       q    Type
REMARK                         _______ _______ _______ _____ _____    ______ ____
ROOT
ATOM      1  C   UNL     1       2.173   6.282  19.463  0.00  0.00    +0.000 C 
ATOM      2  O   UNL     1       1.399   5.769  20.271  0.00  0.00    +0.000 OA
ATOM      3  N   UNL     1       2.324   7.643  19.307  0.00  0.00    +0.000 N 
ATOM      4  C   UNL     1       1.585   8.553  20.074  0.00  0.00    +0.000 A 
ATOM      5  C   UNL     1       1.373   8.401  21.446  0.00  0.00    +0.000 A 
ATOM      6  N   UNL     1       0.633   9.272  22.180  0.00  0.00    +0.000 NA
ATOM      7  C   UNL     1       0.078  10.280  21.472  0.00  0.00    +0.000 A 
ATOM      8  C   UNL     1       0.304  10.445  20.113  0.00  0.00    +0.000 A 
ATOM      9  N   UNL     1       1.084   9.603  19.392  0.00  0.00    +0.000 NA
ATOM     10  H   UNL     1       2.575   7.993  18.393  0.00  0.00    +0.000 HD
ENDROOT
BRANCH   1  17
ATOM     11  C   UNL     1       5.583   5.549  15.796  0.00  0.00    +0.000 C 
ATOM     12  C   UNL     1       4.621   5.012  16.818  0.00  0.00    +0.000 A 
ATOM     13  C   UNL     1       4.498   3.631  17.017  0.00  0.00    +0.000 A 
ATOM     14  C   UNL     1       3.614   3.122  17.972  0.00  0.00    +0.000 A 
ATOM     15  C   UNL     1       3.497   1.644  18.214  0.00  0.00    +0.000 C 
ATOM     16  C   UNL     1       2.843   4.011  18.730  0.00  0.00    +0.000 A 
ATOM     17  C   UNL     1       2.958   5.398  18.552  0.00  0.00    +0.000 A 
ATOM     18  C   UNL     1       3.848   5.894  17.590  0.00  0.00    +0.000 A 
ENDBRANCH   1  17
BRANCH   8  19
ATOM     19  O   UNL     1      -0.378  11.476  19.482  0.00  0.00    +0.000 OA
BRANCH  19  20
ATOM     20  C   UNL     1      -1.575  11.195  18.876  0.00  0.00    +0.000 A 
ATOM     21  C   UNL     1      -2.686  11.935  19.272  0.00  0.00    +0.000 A 
ATOM     22  N   UNL     1      -3.920  11.808  18.719  0.00  0.00    +0.000 NA
ATOM     23  C   UNL     1      -4.038  10.896  17.724  0.00  0.00    +0.000 A 
ATOM     24  C   UNL     1      -2.985  10.128  17.265  0.00  0.00    +0.000 A 
ATOM     25  F   UNL     1      -3.163   9.243  16.277  0.00  0.00    +0.000 F 
ATOM     26  C   UNL     1      -1.721  10.284  17.835  0.00  0.00    +0.000 A 
ENDBRANCH  19  20
ENDBRANCH   8  19
TORSDOF 3
ENDMDL
