MODEL 1
REMARK VINA RESULT:      -7.7      0.000      0.000
REMARK  Name = 
REMARK  11 active torsions:
REMARK  status: ('A' for Active; 'I' for Inactive)
REMARK    1  A    between atoms: C_2  and  C_3
REMARK    2  A    between atoms: C_3  and  C_4
REMARK    3  A    between atoms: C_4  and  C_5
REMARK    4  A    between atoms: C_5  and  C_6
REMARK    5  A    between atoms: C_6  and  C_7
REMARK    6  A    between atoms: C_7  and  C_8
REMARK    7  A    between atoms: C_8  and  N_9
REMARK    8  A    between atoms: C_11  and  N_12
REMARK    9  A    between atoms: N_19  and  C_20
REMARK   10  A    between atoms: C_20  and  C_21
REMARK   11  A    between atoms: N_32  and  O_33
REMARK                            x       y       z     vdW  Elec       q    Type
REMARK                         _______ _______ _______ _____ _____    ______ ____
ROOT
ATOM      1  N   UNL     1       5.763   3.787  18.288  0.00  0.00    +0.000 N 
ATOM      2  C   UNL     1       4.818   3.991  19.303  0.00  0.00    +0.000 A 
ATOM      3  N   UNL     1       4.733   2.907  20.107  0.00  0.00    +0.000 NA
ATOM      4  C   UNL     1       3.640   2.749  20.876  0.00  0.00    +0.000 A 
ATOM      5  C   UNL     1       2.577   3.593  20.621  0.00  0.00    +0.000 A 
ATOM      6  C   UNL     1       1.181   3.440  20.439  0.00  0.00    +0.000 A 
ATOM      7  C   UNL     1       0.711   4.656  19.981  0.00  0.00    +0.000 A 
ATOM      8  N   UNL     1       1.733   5.590  20.242  0.00  0.00    +0.000 N 
ATOM      9  C   UNL     1       2.899   4.841  20.102  0.00  0.00    +0.000 A 
ATOM     10  N   UNL     1       4.025   5.097  19.392  0.00  0.00    +0.000 NA
ATOM     11  H   UNL     1       6.030   2.809  18.354  0.00  0.00    +0.000 HD
ENDROOT
BRANCH   1  14
ATOM     12  N   UNL     1       7.552   6.441  16.935  0.00  0.00    +0.000 N 
ATOM     13  C   UNL     1       7.051   5.800  18.033  0.00  0.00    +0.000 A 
ATOM     14  C   UNL     1       6.500   4.633  17.554  0.00  0.00    +0.000 A 
ATOM     15  C   UNL     1       6.832   4.604  16.187  0.00  0.00    +0.000 A 
ATOM     16  N   UNL     1       7.499   5.691  15.814  0.00  0.00    +0.000 NA
BRANCH  12  17
ATOM     17  C   UNL     1       8.047   7.804  16.878  0.00  0.00    +0.000 C 
BRANCH  17  18
ATOM     18  C   UNL     1       7.636   8.661  18.085  0.00  0.00    +0.000 C 
BRANCH  18  19
ATOM     19  C   UNL     1       8.803   9.425  18.734  0.00  0.00    +0.000 C 
BRANCH  19  20
ATOM     20  C   UNL     1       8.971  10.812  18.101  0.00  0.00    +0.000 C 
BRANCH  20  21
ATOM     21  C   UNL     1      10.438  11.216  17.923  0.00  0.00    +0.000 C 
BRANCH  21  22
ATOM     22  C   UNL     1      10.645  12.681  18.314  0.00  0.00    +0.000 C 
BRANCH  22  24
ATOM     23  O   UNL     1      12.208  13.281  16.546  0.00  0.00    +0.000 OA
ATOM     24  C   UNL     1      11.191  13.533  17.186  0.00  0.00    +0.000 C 
ATOM     25  N   UNL     1      10.427  14.652  16.934  0.00  0.00    +0.000 N 
ATOM     26  H   UNL     1       9.768  15.033  17.605  0.00  0.00    +0.000 HD
BRANCH  25  27
ATOM     27  O   UNL     1      10.943  15.545  15.969  0.00  0.00    +0.000 OA
ATOM     28  H   UNL     1      11.500  14.960  15.418  0.00  0.00    +0.000 HD
ENDBRANCH  25  27
ENDBRANCH  22  24
ENDBRANCH  21  22
ENDBRANCH  20  21
ENDBRANCH  19  20
ENDBRANCH  18  19
ENDBRANCH  17  18
ENDBRANCH  12  17
ENDBRANCH   1  14
BRANCH   8  29
ATOM     29  C   UNL     1       1.349   6.551  21.317  0.00  0.00    +0.000 C 
BRANCH  29  30
ATOM     30  C   UNL     1       0.779   7.916  21.042  0.00  0.00    +0.000 A 
ATOM     31  C   UNL     1      -0.067   8.595  21.922  0.00  0.00    +0.000 A 
ATOM     32  C   UNL     1      -0.364   9.954  21.715  0.00  0.00    +0.000 A 
ATOM     33  C   UNL     1       0.172  10.641  20.627  0.00  0.00    +0.000 A 
ATOM     34  C   UNL     1       1.023   9.991  19.760  0.00  0.00    +0.000 A 
ATOM     35  F   UNL     1       1.583  10.646  18.737  0.00  0.00    +0.000 F 
ATOM     36  C   UNL     1       1.322   8.638  19.949  0.00  0.00    +0.000 A 
ENDBRANCH  29  30
ENDBRANCH   8  29
TORSDOF 11
ENDMDL
MODEL 2
REMARK VINA RESULT:      -7.6      5.284      7.459
REMARK  Name = 
REMARK  11 active torsions:
REMARK  status: ('A' for Active; 'I' for Inactive)
REMARK    1  A    between atoms: C_2  and  C_3
REMARK    2  A    between atoms: C_3  and  C_4
REMARK    3  A    between atoms: C_4  and  C_5
REMARK    4  A    between atoms: C_5  and  C_6
REMARK    5  A    between atoms: C_6  and  C_7
REMARK    6  A    between atoms: C_7  and  C_8
REMARK    7  A    between atoms: C_8  and  N_9
REMARK    8  A    between atoms: C_11  and  N_12
REMARK    9  A    between atoms: N_19  and  C_20
REMARK   10  A    between atoms: C_20  and  C_21
REMARK   11  A    between atoms: N_32  and  O_33
REMARK                            x       y       z     vdW  Elec       q    Type
REMARK                         _______ _______ _______ _____ _____    ______ ____
ROOT
ATOM      1  N   UNL     1       2.049   5.997  20.063  0.00  0.00    +0.000 N 
ATOM      2  C   UNL     1       1.815   7.372  20.204  0.00  0.00    +0.000 A 
ATOM      3  N   UNL     1       1.206   7.638  21.382  0.00  0.00    +0.000 NA
ATOM      4  C   UNL     1       0.557   8.807  21.532  0.00  0.00    +0.000 A 
ATOM      5  C   UNL     1       0.368   9.560  20.390  0.00  0.00    +0.000 A 
ATOM      6  C   UNL     1      -0.722  10.239  19.790  0.00  0.00    +0.000 A 
ATOM      7  C   UNL     1      -0.306  10.605  18.526  0.00  0.00    +0.000 A 
ATOM      8  N   UNL     1       1.098  10.474  18.526  0.00  0.00    +0.000 N 
ATOM      9  C   UNL     1       1.322   9.407  19.392  0.00  0.00    +0.000 A 
ATOM     10  N   UNL     1       2.076   8.292  19.232  0.00  0.00    +0.000 NA
ATOM     11  H   UNL     1       1.564   5.555  20.838  0.00  0.00    +0.000 HD
ENDROOT
BRANCH   1  14
ATOM     12  N   UNL     1       4.850   4.681  18.481  0.00  0.00    +0.000 N 
ATOM     13  C   UNL     1       4.311   5.404  19.508  0.00  0.00    +0.000 A 
ATOM     14  C   UNL     1       2.948   5.301  19.352  0.00  0.00    +0.000 A 
ATOM     15  C   UNL     1       2.767   4.397  18.288  0.00  0.00    +0.000 A 
ATOM     16  N   UNL     1       3.925   3.995  17.776  0.00  0.00    +0.000 NA
BRANCH  12  17
ATOM     17  C   UNL     1       6.244   4.648  18.082  0.00  0.00    +0.000 C 
BRANCH  17  18
ATOM     18  C   UNL     1       6.602   5.681  17.002  0.00  0.00    +0.000 C 
BRANCH  18  19
ATOM     19  C   UNL     1       5.711   5.610  15.751  0.00  0.00    +0.000 C 
BRANCH  19  20
ATOM     20  C   UNL     1       6.512   5.135  14.533  0.00  0.00    +0.000 C 
BRANCH  20  21
ATOM     21  C   UNL     1       5.867   3.943  13.819  0.00  0.00    +0.000 C 
BRANCH  21  22
ATOM     22  C   UNL     1       6.551   3.685  12.474  0.00  0.00    +0.000 C 
BRANCH  22  24
ATOM     23  O   UNL     1       4.797   2.432  11.343  0.00  0.00    +0.000 OA
ATOM     24  C   UNL     1       5.964   2.512  11.716  0.00  0.00    +0.000 C 
ATOM     25  N   UNL     1       6.879   1.510  11.475  0.00  0.00    +0.000 N 
ATOM     26  H   UNL     1       7.743   1.414  11.999  0.00  0.00    +0.000 HD
BRANCH  25  27
ATOM     27  O   UNL     1       6.367   0.341  10.869  0.00  0.00    +0.000 OA
ATOM     28  H   UNL     1       6.204   0.635   9.951  0.00  0.00    +0.000 HD
ENDBRANCH  25  27
ENDBRANCH  22  24
ENDBRANCH  21  22
ENDBRANCH  20  21
ENDBRANCH  19  20
ENDBRANCH  18  19
ENDBRANCH  17  18
ENDBRANCH  12  17
ENDBRANCH   1  14
BRANCH   8  29
ATOM     29  C   UNL     1       1.782  11.798  18.457  0.00  0.00    +0.000 C 
BRANCH  29  30
ATOM     30  C   UNL     1       1.399  12.973  19.316  0.00  0.00    +0.000 A 
ATOM     31  C   UNL     1       1.805  13.128  20.644  0.00  0.00    +0.000 A 
ATOM     32  C   UNL     1       1.617  14.355  21.305  0.00  0.00    +0.000 A 
ATOM     33  C   UNL     1       1.016  15.429  20.652  0.00  0.00    +0.000 A 
ATOM     34  C   UNL     1       0.626  15.299  19.337  0.00  0.00    +0.000 A 
ATOM     35  F   UNL     1       0.091  16.334  18.680  0.00  0.00    +0.000 F 
ATOM     36  C   UNL     1       0.801  14.083  18.668  0.00  0.00    +0.000 A 
ENDBRANCH  29  30
ENDBRANCH   8  29
TORSDOF 11
ENDMDL
MODEL 3
REMARK VINA RESULT:      -7.6      5.779      8.954
REMARK  Name = 
REMARK  11 active torsions:
REMARK  status: ('A' for Active; 'I' for Inactive)
REMARK    1  A    between atoms: C_2  and  C_3
REMARK    2  A    between atoms: C_3  and  C_4
REMARK    3  A    between atoms: C_4  and  C_5
REMARK    4  A    between atoms: C_5  and  C_6
REMARK    5  A    between atoms: C_6  and  C_7
REMARK    6  A    between atoms: C_7  and  C_8
REMARK    7  A    between atoms: C_8  and  N_9
REMARK    8  A    between atoms: C_11  and  N_12
REMARK    9  A    between atoms: N_19  and  C_20
REMARK   10  A    between atoms: C_20  and  C_21
REMARK   11  A    between atoms: N_32  and  O_33
REMARK                            x       y       z     vdW  Elec       q    Type
REMARK                         _______ _______ _______ _____ _____    ______ ____
ROOT
ATOM      1  N   UNL     1       1.231   8.843  17.944  0.00  0.00    +0.000 N 
ATOM      2  C   UNL     1       0.613   9.938  18.564  0.00  0.00    +0.000 A 
ATOM      3  N   UNL     1      -0.612  10.163  18.035  0.00  0.00    +0.000 NA
ATOM      4  C   UNL     1      -1.186  11.367  18.207  0.00  0.00    +0.000 A 
ATOM      5  C   UNL     1      -0.384  12.367  18.722  0.00  0.00    +0.000 A 
ATOM      6  C   UNL     1      -0.107  13.717  18.394  0.00  0.00    +0.000 A 
ATOM      7  C   UNL     1       0.972  14.094  19.170  0.00  0.00    +0.000 A 
ATOM      8  N   UNL     1       1.082  13.119  20.181  0.00  0.00    +0.000 N 
ATOM      9  C   UNL     1       0.649  11.954  19.555  0.00  0.00    +0.000 A 
ATOM     10  N   UNL     1       1.219  10.724  19.498  0.00  0.00    +0.000 NA
ATOM     11  H   UNL     1       0.635   8.600  17.159  0.00  0.00    +0.000 HD
ENDROOT
BRANCH   1  14
ATOM     12  N   UNL     1       3.879   6.622  18.305  0.00  0.00    +0.000 N 
ATOM     13  C   UNL     1       3.282   7.636  17.610  0.00  0.00    +0.000 A 
ATOM     14  C   UNL     1       2.179   7.989  18.354  0.00  0.00    +0.000 A 
ATOM     15  C   UNL     1       2.272   7.225  19.532  0.00  0.00    +0.000 A 
ATOM     16  N   UNL     1       3.324   6.413  19.517  0.00  0.00    +0.000 NA
BRANCH  12  17
ATOM     17  C   UNL     1       4.957   5.769  17.839  0.00  0.00    +0.000 C 
BRANCH  17  18
ATOM     18  C   UNL     1       4.552   4.836  16.688  0.00  0.00    +0.000 C 
BRANCH  18  19
ATOM     19  C   UNL     1       3.362   3.920  17.017  0.00  0.00    +0.000 C 
BRANCH  19  20
ATOM     20  C   UNL     1       3.825   2.664  17.765  0.00  0.00    +0.000 C 
BRANCH  20  21
ATOM     21  C   UNL     1       2.669   1.878  18.393  0.00  0.00    +0.000 C 
BRANCH  21  22
ATOM     22  C   UNL     1       1.442   2.775  18.571  0.00  0.00    +0.000 C 
BRANCH  22  24
ATOM     23  O   UNL     1       0.649   4.261  20.329  0.00  0.00    +0.000 OA
ATOM     24  C   UNL     1       1.233   3.232  20.000  0.00  0.00    +0.000 C 
ATOM     25  N   UNL     1       1.775   2.371  20.929  0.00  0.00    +0.000 N 
ATOM     26  H   UNL     1       2.489   1.688  20.698  0.00  0.00    +0.000 HD
BRANCH  25  27
ATOM     27  O   UNL     1       1.711   2.796  22.275  0.00  0.00    +0.000 OA
ATOM     28  H   UNL     1       2.653   2.798  22.539  0.00  0.00    +0.000 HD
ENDBRANCH  25  27
ENDBRANCH  22  24
ENDBRANCH  21  22
ENDBRANCH  20  21
ENDBRANCH  19  20
ENDBRANCH  18  19
ENDBRANCH  17  18
ENDBRANCH  12  17
ENDBRANCH   1  14
BRANCH   8  29
ATOM     29  C   UNL     1       0.721  13.663  21.522  0.00  0.00    +0.000 C 
BRANCH  29  30
ATOM     30  C   UNL     1      -0.682  13.662  22.066  0.00  0.00    +0.000 A 
ATOM     31  C   UNL     1      -1.655  14.597  21.704  0.00  0.00    +0.000 A 
ATOM     32  C   UNL     1      -3.001  14.394  22.058  0.00  0.00    +0.000 A 
ATOM     33  C   UNL     1      -3.383  13.265  22.781  0.00  0.00    +0.000 A 
ATOM     34  C   UNL     1      -2.439  12.324  23.130  0.00  0.00    +0.000 A 
ATOM     35  F   UNL     1      -2.796  11.213  23.783  0.00  0.00    +0.000 F 
ATOM     36  C   UNL     1      -1.096  12.515  22.791  0.00  0.00    +0.000 A 
ENDBRANCH  29  30
ENDBRANCH   8  29
TORSDOF 11
ENDMDL
MODEL 4
REMARK VINA RESULT:      -7.5      4.936      9.544
REMARK  Name = 
REMARK  11 active torsions:
REMARK  status: ('A' for Active; 'I' for Inactive)
REMARK    1  A    between atoms: C_2  and  C_3
REMARK    2  A    between atoms: C_3  and  C_4
REMARK    3  A    between atoms: C_4  and  C_5
REMARK    4  A    between atoms: C_5  and  C_6
REMARK    5  A    between atoms: C_6  and  C_7
REMARK    6  A    between atoms: C_7  and  C_8
REMARK    7  A    between atoms: C_8  and  N_9
REMARK    8  A    between atoms: C_11  and  N_12
REMARK    9  A    between atoms: N_19  and  C_20
REMARK   10  A    between atoms: C_20  and  C_21
REMARK   11  A    between atoms: N_32  and  O_33
REMARK                            x       y       z     vdW  Elec       q    Type
REMARK                         _______ _______ _______ _____ _____    ______ ____
ROOT
ATOM      1  N   UNL     1       7.969   8.847  17.356  0.00  0.00    +0.000 N 
ATOM      2  C   UNL     1       8.241  10.025  18.066  0.00  0.00    +0.000 A 
ATOM      3  N   UNL     1       8.056  11.112  17.283  0.00  0.00    +0.000 NA
ATOM      4  C   UNL     1       8.627  12.277  17.640  0.00  0.00    +0.000 A 
ATOM      5  C   UNL     1       9.550  12.226  18.666  0.00  0.00    +0.000 A 
ATOM      6  C   UNL     1      10.855  12.730  18.884  0.00  0.00    +0.000 A 
ATOM      7  C   UNL     1      11.322  12.123  20.033  0.00  0.00    +0.000 A 
ATOM      8  N   UNL     1      10.192  11.569  20.666  0.00  0.00    +0.000 N 
ATOM      9  C   UNL     1       9.366  11.215  19.602  0.00  0.00    +0.000 A 
ATOM     10  N   UNL     1       8.725  10.050  19.340  0.00  0.00    +0.000 NA
ATOM     11  H   UNL     1       7.839   9.133  16.390  0.00  0.00    +0.000 HD
ENDROOT
BRANCH   1  14
ATOM     12  N   UNL     1       6.378   5.830  18.019  0.00  0.00    +0.000 N 
ATOM     13  C   UNL     1       6.520   6.934  17.227  0.00  0.00    +0.000 A 
ATOM     14  C   UNL     1       7.592   7.622  17.747  0.00  0.00    +0.000 A 
ATOM     15  C   UNL     1       8.103   6.791  18.763  0.00  0.00    +0.000 A 
ATOM     16  N   UNL     1       7.382   5.685  18.910  0.00  0.00    +0.000 NA
BRANCH  12  17
ATOM     17  C   UNL     1       5.266   4.897  18.015  0.00  0.00    +0.000 C 
BRANCH  17  18
ATOM     18  C   UNL     1       4.692   4.614  19.411  0.00  0.00    +0.000 C 
BRANCH  18  19
ATOM     19  C   UNL     1       3.489   5.497  19.782  0.00  0.00    +0.000 C 
BRANCH  19  20
ATOM     20  C   UNL     1       2.405   4.677  20.494  0.00  0.00    +0.000 C 
BRANCH  20  21
ATOM     21  C   UNL     1       1.230   4.315  19.581  0.00  0.00    +0.000 C 
BRANCH  21  22
ATOM     22  C   UNL     1       1.167   2.803  19.355  0.00  0.00    +0.000 C 
BRANCH  22  24
ATOM     23  O   UNL     1       2.218   2.656  17.163  0.00  0.00    +0.000 OA
ATOM     24  C   UNL     1       2.174   2.305  18.340  0.00  0.00    +0.000 C 
ATOM     25  N   UNL     1       3.064   1.392  18.862  0.00  0.00    +0.000 N 
ATOM     26  H   UNL     1       2.888   0.877  19.719  0.00  0.00    +0.000 HD
BRANCH  25  27
ATOM     27  O   UNL     1       3.960   0.805  17.940  0.00  0.00    +0.000 OA
ATOM     28  H   UNL     1       4.346   1.587  17.497  0.00  0.00    +0.000 HD
ENDBRANCH  25  27
ENDBRANCH  22  24
ENDBRANCH  21  22
ENDBRANCH  20  21
ENDBRANCH  19  20
ENDBRANCH  18  19
ENDBRANCH  17  18
ENDBRANCH  12  17
ENDBRANCH   1  14
BRANCH   8  29
ATOM     29  C   UNL     1       9.852  12.288  21.929  0.00  0.00    +0.000 C 
BRANCH  29  30
ATOM     30  C   UNL     1       8.489  12.245  22.565  0.00  0.00    +0.000 A 
ATOM     31  C   UNL     1       8.180  11.469  23.686  0.00  0.00    +0.000 A 
ATOM     32  C   UNL     1       6.967  11.661  24.369  0.00  0.00    +0.000 A 
ATOM     33  C   UNL     1       6.051  12.619  23.936  0.00  0.00    +0.000 A 
ATOM     34  C   UNL     1       6.348  13.404  22.844  0.00  0.00    +0.000 A 
ATOM     35  F   UNL     1       5.501  14.359  22.443  0.00  0.00    +0.000 F 
ATOM     36  C   UNL     1       7.548  13.221  22.150  0.00  0.00    +0.000 A 
ENDBRANCH  29  30
ENDBRANCH   8  29
TORSDOF 11
ENDMDL
MODEL 5
REMARK VINA RESULT:      -7.5      4.378      7.955
REMARK  Name = 
REMARK  11 active torsions:
REMARK  status: ('A' for Active; 'I' for Inactive)
REMARK    1  A    between atoms: C_2  and  C_3
REMARK    2  A    between atoms: C_3  and  C_4
REMARK    3  A    between atoms: C_4  and  C_5
REMARK    4  A    between atoms: C_5  and  C_6
REMARK    5  A    between atoms: C_6  and  C_7
REMARK    6  A    between atoms: C_7  and  C_8
REMARK    7  A    between atoms: C_8  and  N_9
REMARK    8  A    between atoms: C_11  and  N_12
REMARK    9  A    between atoms: N_19  and  C_20
REMARK   10  A    between atoms: C_20  and  C_21
REMARK   11  A    between atoms: N_32  and  O_33
REMARK                            x       y       z     vdW  Elec       q    Type
REMARK                         _______ _______ _______ _____ _____    ______ ____
ROOT
ATOM      1  N   UNL     1       0.873   9.710  18.571  0.00  0.00    +0.000 N 
ATOM      2  C   UNL     1       0.322  10.895  19.077  0.00  0.00    +0.000 A 
ATOM      3  N   UNL     1      -0.656  11.356  18.265  0.00  0.00    +0.000 NA
ATOM      4  C   UNL     1      -1.026  12.647  18.358  0.00  0.00    +0.000 A 
ATOM      5  C   UNL     1      -0.222  13.468  19.125  0.00  0.00    +0.000 A 
ATOM      6  C   UNL     1       0.372  14.743  18.964  0.00  0.00    +0.000 A 
ATOM      7  C   UNL     1       1.256  14.897  20.015  0.00  0.00    +0.000 A 
ATOM      8  N   UNL     1       0.915  13.906  20.957  0.00  0.00    +0.000 N 
ATOM      9  C   UNL     1       0.460  12.854  20.168  0.00  0.00    +0.000 A 
ATOM     10  N   UNL     1       0.791  11.539  20.184  0.00  0.00    +0.000 NA
ATOM     11  H   UNL     1       0.473   9.595  17.644  0.00  0.00    +0.000 HD
ENDROOT
BRANCH   1  14
ATOM     12  N   UNL     1       2.658   6.848  19.408  0.00  0.00    +0.000 N 
ATOM     13  C   UNL     1       2.393   7.849  18.516  0.00  0.00    +0.000 A 
ATOM     14  C   UNL     1       1.508   8.684  19.157  0.00  0.00    +0.000 A 
ATOM     15  C   UNL     1       1.404   8.175  20.465  0.00  0.00    +0.000 A 
ATOM     16  N   UNL     1       2.128   7.073  20.629  0.00  0.00    +0.000 NA
BRANCH  12  17
ATOM     17  C   UNL     1       3.370   5.612  19.139  0.00  0.00    +0.000 C 
BRANCH  17  18
ATOM     18  C   UNL     1       3.299   5.166  17.671  0.00  0.00    +0.000 C 
BRANCH  18  19
ATOM     19  C   UNL     1       4.546   5.530  16.847  0.00  0.00    +0.000 C 
BRANCH  19  20
ATOM     20  C   UNL     1       5.429   4.298  16.615  0.00  0.00    +0.000 C 
BRANCH  20  21
ATOM     21  C   UNL     1       6.914   4.565  16.885  0.00  0.00    +0.000 C 
BRANCH  21  22
ATOM     22  C   UNL     1       7.154   6.052  17.154  0.00  0.00    +0.000 C 
BRANCH  22  24
ATOM     23  O   UNL     1       8.388   7.340  18.811  0.00  0.00    +0.000 OA
ATOM     24  C   UNL     1       7.760   6.327  18.515  0.00  0.00    +0.000 C 
ATOM     25  N   UNL     1       7.542   5.311  19.420  0.00  0.00    +0.000 N 
ATOM     26  H   UNL     1       7.289   4.368  19.142  0.00  0.00    +0.000 HD
BRANCH  25  27
ATOM     27  O   UNL     1       8.175   5.457  20.674  0.00  0.00    +0.000 OA
ATOM     28  H   UNL     1       7.465   5.206  21.298  0.00  0.00    +0.000 HD
ENDBRANCH  25  27
ENDBRANCH  22  24
ENDBRANCH  21  22
ENDBRANCH  20  21
ENDBRANCH  19  20
ENDBRANCH  18  19
ENDBRANCH  17  18
ENDBRANCH  12  17
ENDBRANCH   1  14
BRANCH   8  29
ATOM     29  C   UNL     1       0.316  14.493  22.191  0.00  0.00    +0.000 C 
BRANCH  29  30
ATOM     30  C   UNL     1      -1.141  14.365  22.545  0.00  0.00    +0.000 A 
ATOM     31  C   UNL     1      -2.137  15.209  22.047  0.00  0.00    +0.000 A 
ATOM     32  C   UNL     1      -3.495  14.886  22.223  0.00  0.00    +0.000 A 
ATOM     33  C   UNL     1      -3.867  13.728  22.903  0.00  0.00    +0.000 A 
ATOM     34  C   UNL     1      -2.897  12.875  23.384  0.00  0.00    +0.000 A 
ATOM     35  F   UNL     1      -3.237  11.736  23.997  0.00  0.00    +0.000 F 
ATOM     36  C   UNL     1      -1.544  13.186  23.222  0.00  0.00    +0.000 A 
ENDBRANCH  29  30
ENDBRANCH   8  29
TORSDOF 11
ENDMDL
MODEL 6
REMARK VINA RESULT:      -7.5      5.843      8.953
REMARK  Name = 
REMARK  11 active torsions:
REMARK  status: ('A' for Active; 'I' for Inactive)
REMARK    1  A    between atoms: C_2  and  C_3
REMARK    2  A    between atoms: C_3  and  C_4
REMARK    3  A    between atoms: C_4  and  C_5
REMARK    4  A    between atoms: C_5  and  C_6
REMARK    5  A    between atoms: C_6  and  C_7
REMARK    6  A    between atoms: C_7  and  C_8
REMARK    7  A    between atoms: C_8  and  N_9
REMARK    8  A    between atoms: C_11  and  N_12
REMARK    9  A    between atoms: N_19  and  C_20
REMARK   10  A    between atoms: C_20  and  C_21
REMARK   11  A    between atoms: N_32  and  O_33
REMARK                            x       y       z     vdW  Elec       q    Type
REMARK                         _______ _______ _______ _____ _____    ______ ____
ROOT
ATOM      1  N   UNL     1       1.451   9.012  18.080  0.00  0.00    +0.000 N 
ATOM      2  C   UNL     1       0.492   9.730  18.808  0.00  0.00    +0.000 A 
ATOM      3  N   UNL     1      -0.460  10.229  17.987  0.00  0.00    +0.000 NA
ATOM      4  C   UNL     1      -1.225  11.247  18.420  0.00  0.00    +0.000 A 
ATOM      5  C   UNL     1      -0.833  11.861  19.594  0.00  0.00    +0.000 A 
ATOM      6  C   UNL     1      -0.653  13.196  20.031  0.00  0.00    +0.000 A 
ATOM      7  C   UNL     1      -0.015  13.125  21.254  0.00  0.00    +0.000 A 
ATOM      8  N   UNL     1      -0.154  11.791  21.686  0.00  0.00    +0.000 N 
ATOM      9  C   UNL     1      -0.144  11.064  20.500  0.00  0.00    +0.000 A 
ATOM     10  N   UNL     1       0.578   9.971  20.147  0.00  0.00    +0.000 NA
ATOM     11  H   UNL     1       1.239   9.183  17.102  0.00  0.00    +0.000 HD
ENDROOT
BRANCH   1  14
ATOM     12  N   UNL     1       3.831   6.486  18.264  0.00  0.00    +0.000 N 
ATOM     13  C   UNL     1       3.370   7.625  17.666  0.00  0.00    +0.000 A 
ATOM     14  C   UNL     1       2.288   8.021  18.419  0.00  0.00    +0.000 A 
ATOM     15  C   UNL     1       2.259   7.136  19.513  0.00  0.00    +0.000 A 
ATOM     16  N   UNL     1       3.217   6.218  19.436  0.00  0.00    +0.000 NA
BRANCH  12  17
ATOM     17  C   UNL     1       4.825   5.570  17.735  0.00  0.00    +0.000 C 
BRANCH  17  18
ATOM     18  C   UNL     1       4.677   4.132  18.254  0.00  0.00    +0.000 C 
BRANCH  18  19
ATOM     19  C   UNL     1       4.288   3.114  17.168  0.00  0.00    +0.000 C 
BRANCH  19  20
ATOM     20  C   UNL     1       3.025   2.341  17.567  0.00  0.00    +0.000 C 
BRANCH  20  21
ATOM     21  C   UNL     1       1.830   3.254  17.857  0.00  0.00    +0.000 C 
BRANCH  21  22
ATOM     22  C   UNL     1       0.942   2.650  18.948  0.00  0.00    +0.000 C 
BRANCH  22  24
ATOM     23  O   UNL     1       0.708   4.338  20.687  0.00  0.00    +0.000 OA
ATOM     24  C   UNL     1       1.170   3.262  20.315  0.00  0.00    +0.000 C 
ATOM     25  N   UNL     1       1.967   2.488  21.130  0.00  0.00    +0.000 N 
ATOM     26  H   UNL     1       2.581   1.763  20.774  0.00  0.00    +0.000 HD
BRANCH  25  27
ATOM     27  O   UNL     1       2.307   3.055  22.378  0.00  0.00    +0.000 OA
ATOM     28  H   UNL     1       2.906   2.381  22.758  0.00  0.00    +0.000 HD
ENDBRANCH  25  27
ENDBRANCH  22  24
ENDBRANCH  21  22
ENDBRANCH  20  21
ENDBRANCH  19  20
ENDBRANCH  18  19
ENDBRANCH  17  18
ENDBRANCH  12  17
ENDBRANCH   1  14
BRANCH   8  29
ATOM     29  C   UNL     1      -1.071  11.678  22.858  0.00  0.00    +0.000 C 
BRANCH  29  30
ATOM     30  C   UNL     1      -2.146  12.684  23.168  0.00  0.00    +0.000 A 
ATOM     31  C   UNL     1      -1.917  13.872  23.869  0.00  0.00    +0.000 A 
ATOM     32  C   UNL     1      -2.905  14.872  23.911  0.00  0.00    +0.000 A 
ATOM     33  C   UNL     1      -4.127  14.692  23.265  0.00  0.00    +0.000 A 
ATOM     34  C   UNL     1      -4.361  13.535  22.555  0.00  0.00    +0.000 A 
ATOM     35  F   UNL     1      -5.510  13.366  21.890  0.00  0.00    +0.000 F 
ATOM     36  C   UNL     1      -3.392  12.529  22.509  0.00  0.00    +0.000 A 
ENDBRANCH  29  30
ENDBRANCH   8  29
TORSDOF 11
ENDMDL
MODEL 7
REMARK VINA RESULT:      -7.3      5.556      7.680
REMARK  Name = 
REMARK  11 active torsions:
REMARK  status: ('A' for Active; 'I' for Inactive)
REMARK    1  A    between atoms: C_2  and  C_3
REMARK    2  A    between atoms: C_3  and  C_4
REMARK    3  A    between atoms: C_4  and  C_5
REMARK    4  A    between atoms: C_5  and  C_6
REMARK    5  A    between atoms: C_6  and  C_7
REMARK    6  A    between atoms: C_7  and  C_8
REMARK    7  A    between atoms: C_8  and  N_9
REMARK    8  A    between atoms: C_11  and  N_12
REMARK    9  A    between atoms: N_19  and  C_20
REMARK   10  A    between atoms: C_20  and  C_21
REMARK   11  A    between atoms: N_32  and  O_33
REMARK                            x       y       z     vdW  Elec       q    Type
REMARK                         _______ _______ _______ _____ _____    ______ ____
ROOT
ATOM      1  N   UNL     1       1.869   6.588  20.309  0.00  0.00    +0.000 N 
ATOM      2  C   UNL     1       1.702   7.977  20.399  0.00  0.00    +0.000 A 
ATOM      3  N   UNL     1       1.372   8.341  21.659  0.00  0.00    +0.000 NA
ATOM      4  C   UNL     1       0.798   9.541  21.862  0.00  0.00    +0.000 A 
ATOM      5  C   UNL     1       0.380  10.225  20.737  0.00  0.00    +0.000 A 
ATOM      6  C   UNL     1      -0.799  10.903  20.341  0.00  0.00    +0.000 A 
ATOM      7  C   UNL     1      -0.662  11.171  18.993  0.00  0.00    +0.000 A 
ATOM      8  N   UNL     1       0.704  10.987  18.699  0.00  0.00    +0.000 N 
ATOM      9  C   UNL     1       1.089   9.972  19.569  0.00  0.00    +0.000 A 
ATOM     10  N   UNL     1       1.764   8.820  19.331  0.00  0.00    +0.000 NA
ATOM     11  H   UNL     1       1.555   6.215  21.201  0.00  0.00    +0.000 HD
ENDROOT
BRANCH   1  14
ATOM     12  N   UNL     1       4.264   4.800  18.536  0.00  0.00    +0.000 N 
ATOM     13  C   UNL     1       3.867   5.400  19.698  0.00  0.00    +0.000 A 
ATOM     14  C   UNL     1       2.574   5.814  19.472  0.00  0.00    +0.000 A 
ATOM     15  C   UNL     1       2.243   5.306  18.202  0.00  0.00    +0.000 A 
ATOM     16  N   UNL     1       3.262   4.663  17.643  0.00  0.00    +0.000 NA
BRANCH  12  17
ATOM     17  C   UNL     1       5.611   4.384  18.192  0.00  0.00    +0.000 C 
BRANCH  17  18
ATOM     18  C   UNL     1       5.811   4.120  16.692  0.00  0.00    +0.000 C 
BRANCH  18  19
ATOM     19  C   UNL     1       6.463   5.289  15.934  0.00  0.00    +0.000 C 
BRANCH  19  20
ATOM     20  C   UNL     1       6.988   4.832  14.567  0.00  0.00    +0.000 C 
BRANCH  20  21
ATOM     21  C   UNL     1       5.889   4.270  13.660  0.00  0.00    +0.000 C 
BRANCH  21  22
ATOM     22  C   UNL     1       6.489   3.364  12.583  0.00  0.00    +0.000 C 
BRANCH  22  24
ATOM     23  O   UNL     1       5.590   1.585  11.185  0.00  0.00    +0.000 OA
ATOM     24  C   UNL     1       5.447   2.680  11.723  0.00  0.00    +0.000 C 
ATOM     25  N   UNL     1       4.289   3.414  11.588  0.00  0.00    +0.000 N 
ATOM     26  H   UNL     1       4.242   4.411  11.770  0.00  0.00    +0.000 HD
BRANCH  25  27
ATOM     27  O   UNL     1       3.320   2.881  10.708  0.00  0.00    +0.000 OA
ATOM     28  H   UNL     1       3.867   2.380  10.071  0.00  0.00    +0.000 HD
ENDBRANCH  25  27
ENDBRANCH  22  24
ENDBRANCH  21  22
ENDBRANCH  20  21
ENDBRANCH  19  20
ENDBRANCH  18  19
ENDBRANCH  17  18
ENDBRANCH  12  17
ENDBRANCH   1  14
BRANCH   8  29
ATOM     29  C   UNL     1       1.386  12.278  18.389  0.00  0.00    +0.000 C 
BRANCH  29  30
ATOM     30  C   UNL     1       1.408  13.449  19.332  0.00  0.00    +0.000 A 
ATOM     31  C   UNL     1       2.284  13.556  20.416  0.00  0.00    +0.000 A 
ATOM     32  C   UNL     1       2.417  14.775  21.103  0.00  0.00    +0.000 A 
ATOM     33  C   UNL     1       1.673  15.891  20.723  0.00  0.00    +0.000 A 
ATOM     34  C   UNL     1       0.819  15.808  19.646  0.00  0.00    +0.000 A 
ATOM     35  F   UNL     1       0.131  16.881  19.239  0.00  0.00    +0.000 F 
ATOM     36  C   UNL     1       0.671  14.601  18.956  0.00  0.00    +0.000 A 
ENDBRANCH  29  30
ENDBRANCH   8  29
TORSDOF 11
ENDMDL
MODEL 8
REMARK VINA RESULT:      -7.3      5.496      9.705
REMARK  Name = 
REMARK  11 active torsions:
REMARK  status: ('A' for Active; 'I' for Inactive)
REMARK    1  A    between atoms: C_2  and  C_3
REMARK    2  A    between atoms: C_3  and  C_4
REMARK    3  A    between atoms: C_4  and  C_5
REMARK    4  A    between atoms: C_5  and  C_6
REMARK    5  A    between atoms: C_6  and  C_7
REMARK    6  A    between atoms: C_7  and  C_8
REMARK    7  A    between atoms: C_8  and  N_9
REMARK    8  A    between atoms: C_11  and  N_12
REMARK    9  A    between atoms: N_19  and  C_20
REMARK   10  A    between atoms: C_20  and  C_21
REMARK   11  A    between atoms: N_32  and  O_33
REMARK                            x       y       z     vdW  Elec       q    Type
REMARK                         _______ _______ _______ _____ _____    ______ ____
ROOT
ATOM      1  N   UNL     1       0.894  10.946  20.090  0.00  0.00    +0.000 N 
ATOM      2  C   UNL     1       1.192  12.313  20.180  0.00  0.00    +0.000 A 
ATOM      3  N   UNL     1       0.976  12.770  21.434  0.00  0.00    +0.000 NA
ATOM      4  C   UNL     1       0.825  14.093  21.629  0.00  0.00    +0.000 A 
ATOM      5  C   UNL     1       0.678  14.872  20.498  0.00  0.00    +0.000 A 
ATOM      6  C   UNL     1      -0.204  15.899  20.081  0.00  0.00    +0.000 A 
ATOM      7  C   UNL     1       0.041  16.102  18.737  0.00  0.00    +0.000 A 
ATOM      8  N   UNL     1       1.275  15.477  18.469  0.00  0.00    +0.000 N 
ATOM      9  C   UNL     1       1.287  14.395  19.344  0.00  0.00    +0.000 A 
ATOM     10  N   UNL     1       1.550  13.085  19.115  0.00  0.00    +0.000 NA
ATOM     11  H   UNL     1       0.458  10.701  20.973  0.00  0.00    +0.000 HD
ENDROOT
BRANCH   1  14
ATOM     12  N   UNL     1       2.043   8.046  18.558  0.00  0.00    +0.000 N 
ATOM     13  C   UNL     1       1.390   8.647  19.598  0.00  0.00    +0.000 A 
ATOM     14  C   UNL     1       1.322   9.980  19.264  0.00  0.00    +0.000 A 
ATOM     15  C   UNL     1       1.840  10.059  17.958  0.00  0.00    +0.000 A 
ATOM     16  N   UNL     1       2.253   8.877  17.515  0.00  0.00    +0.000 NA
BRANCH  12  17
ATOM     17  C   UNL     1       2.549   6.686  18.521  0.00  0.00    +0.000 C 
BRANCH  17  18
ATOM     18  C   UNL     1       2.785   6.077  19.911  0.00  0.00    +0.000 C 
BRANCH  18  19
ATOM     19  C   UNL     1       1.582   5.294  20.462  0.00  0.00    +0.000 C 
BRANCH  19  20
ATOM     20  C   UNL     1       1.902   3.798  20.567  0.00  0.00    +0.000 C 
BRANCH  20  21
ATOM     21  C   UNL     1       1.713   3.050  19.244  0.00  0.00    +0.000 C 
BRANCH  21  22
ATOM     22  C   UNL     1       2.972   2.257  18.888  0.00  0.00    +0.000 C 
BRANCH  22  24
ATOM     23  O   UNL     1       3.999   3.634  17.163  0.00  0.00    +0.000 OA
ATOM     24  C   UNL     1       4.063   3.106  18.270  0.00  0.00    +0.000 C 
ATOM     25  N   UNL     1       5.171   3.237  19.078  0.00  0.00    +0.000 N 
ATOM     26  H   UNL     1       5.374   2.604  19.845  0.00  0.00    +0.000 HD
BRANCH  25  27
ATOM     27  O   UNL     1       6.269   3.926  18.514  0.00  0.00    +0.000 OA
ATOM     28  H   UNL     1       7.008   3.653  19.093  0.00  0.00    +0.000 HD
ENDBRANCH  25  27
ENDBRANCH  22  24
ENDBRANCH  21  22
ENDBRANCH  20  21
ENDBRANCH  19  20
ENDBRANCH  18  19
ENDBRANCH  17  18
ENDBRANCH  12  17
ENDBRANCH   1  14
BRANCH   8  29
ATOM     29  C   UNL     1       2.350  16.470  18.176  0.00  0.00    +0.000 C 
BRANCH  29  30
ATOM     30  C   UNL     1       3.803  16.234  18.491  0.00  0.00    +0.000 A 
ATOM     31  C   UNL     1       4.451  16.768  19.608  0.00  0.00    +0.000 A 
ATOM     32  C   UNL     1       5.731  16.312  19.970  0.00  0.00    +0.000 A 
ATOM     33  C   UNL     1       6.376  15.332  19.217  0.00  0.00    +0.000 A 
ATOM     34  C   UNL     1       5.743  14.783  18.124  0.00  0.00    +0.000 A 
ATOM     35  F   UNL     1       6.328  13.809  17.418  0.00  0.00    +0.000 F 
ATOM     36  C   UNL     1       4.473  15.230  17.748  0.00  0.00    +0.000 A 
ENDBRANCH  29  30
ENDBRANCH   8  29
TORSDOF 11
ENDMDL
MODEL 9
REMARK VINA RESULT:      -7.3      4.522      7.778
REMARK  Name = 
REMARK  11 active torsions:
REMARK  status: ('A' for Active; 'I' for Inactive)
REMARK    1  A    between atoms: C_2  and  C_3
REMARK    2  A    between atoms: C_3  and  C_4
REMARK    3  A    between atoms: C_4  and  C_5
REMARK    4  A    between atoms: C_5  and  C_6
REMARK    5  A    between atoms: C_6  and  C_7
REMARK    6  A    between atoms: C_7  and  C_8
REMARK    7  A    between atoms: C_8  and  N_9
REMARK    8  A    between atoms: C_11  and  N_12
REMARK    9  A    between atoms: N_19  and  C_20
REMARK   10  A    between atoms: C_20  and  C_21
REMARK   11  A    between atoms: N_32  and  O_33
REMARK                            x       y       z     vdW  Elec       q    Type
REMARK                         _______ _______ _______ _____ _____    ______ ____
ROOT
ATOM      1  N   UNL     1       1.000   9.312  18.263  0.00  0.00    +0.000 N 
ATOM      2  C   UNL     1       0.299  10.392  18.819  0.00  0.00    +0.000 A 
ATOM      3  N   UNL     1      -0.718  10.771  18.012  0.00  0.00    +0.000 NA
ATOM      4  C   UNL     1      -1.248  11.998  18.163  0.00  0.00    +0.000 A 
ATOM      5  C   UNL     1      -0.563  12.871  18.986  0.00  0.00    +0.000 A 
ATOM      6  C   UNL     1      -0.130  14.217  18.903  0.00  0.00    +0.000 A 
ATOM      7  C   UNL     1       0.713  14.423  19.977  0.00  0.00    +0.000 A 
ATOM      8  N   UNL     1       0.486  13.349  20.860  0.00  0.00    +0.000 N 
ATOM      9  C   UNL     1       0.176  12.291  20.010  0.00  0.00    +0.000 A 
ATOM     10  N   UNL     1       0.668  11.029  19.966  0.00  0.00    +0.000 NA
ATOM     11  H   UNL     1       0.630   9.198  17.325  0.00  0.00    +0.000 HD
ENDROOT
BRANCH   1  14
ATOM     12  N   UNL     1       3.062   6.610  18.988  0.00  0.00    +0.000 N 
ATOM     13  C   UNL     1       2.665   7.585  18.116  0.00  0.00    +0.000 A 
ATOM     14  C   UNL     1       1.749   8.344  18.809  0.00  0.00    +0.000 A 
ATOM     15  C   UNL     1       1.761   7.828  20.119  0.00  0.00    +0.000 A 
ATOM     16  N   UNL     1       2.582   6.790  20.237  0.00  0.00    +0.000 NA
BRANCH  12  17
ATOM     17  C   UNL     1       3.859   5.439  18.674  0.00  0.00    +0.000 C 
BRANCH  17  18
ATOM     18  C   UNL     1       3.481   4.774  17.342  0.00  0.00    +0.000 C 
BRANCH  18  19
ATOM     19  C   UNL     1       4.666   4.117  16.615  0.00  0.00    +0.000 C 
BRANCH  19  20
ATOM     20  C   UNL     1       5.236   5.049  15.539  0.00  0.00    +0.000 C 
BRANCH  20  21
ATOM     21  C   UNL     1       6.286   6.022  16.083  0.00  0.00    +0.000 C 
BRANCH  21  22
ATOM     22  C   UNL     1       7.360   5.270  16.873  0.00  0.00    +0.000 C 
BRANCH  22  24
ATOM     23  O   UNL     1       7.971   7.062  18.404  0.00  0.00    +0.000 OA
ATOM     24  C   UNL     1       7.657   5.888  18.223  0.00  0.00    +0.000 C 
ATOM     25  N   UNL     1       7.547   4.994  19.265  0.00  0.00    +0.000 N 
ATOM     26  H   UNL     1       7.573   3.987  19.134  0.00  0.00    +0.000 HD
BRANCH  25  27
ATOM     27  O   UNL     1       7.919   5.480  20.538  0.00  0.00    +0.000 OA
ATOM     28  H   UNL     1       8.587   6.159  20.316  0.00  0.00    +0.000 HD
ENDBRANCH  25  27
ENDBRANCH  22  24
ENDBRANCH  21  22
ENDBRANCH  20  21
ENDBRANCH  19  20
ENDBRANCH  18  19
ENDBRANCH  17  18
ENDBRANCH  12  17
ENDBRANCH   1  14
BRANCH   8  29
ATOM     29  C   UNL     1      -0.198  13.791  22.110  0.00  0.00    +0.000 C 
BRANCH  29  30
ATOM     30  C   UNL     1      -1.649  13.517  22.401  0.00  0.00    +0.000 A 
ATOM     31  C   UNL     1      -2.104  12.377  23.069  0.00  0.00    +0.000 A 
ATOM     32  C   UNL     1      -3.434  12.302  23.519  0.00  0.00    +0.000 A 
ATOM     33  C   UNL     1      -4.319  13.356  23.300  0.00  0.00    +0.000 A 
ATOM     34  C   UNL     1      -3.881  14.495  22.660  0.00  0.00    +0.000 A 
ATOM     35  F   UNL     1      -4.704  15.535  22.482  0.00  0.00    +0.000 F 
ATOM     36  C   UNL     1      -2.564  14.582  22.200  0.00  0.00    +0.000 A 
ENDBRANCH  29  30
ENDBRANCH   8  29
TORSDOF 11
ENDMDL
