MODEL 1
REMARK VINA RESULT:      -6.1      0.000      0.000
REMARK  Name = 
REMARK  3 active torsions:
REMARK  status: ('A' for Active; 'I' for Inactive)
REMARK    1  A    between atoms: N_3  and  C_4
REMARK    2  A    between atoms: C_4  and  C_5
REMARK    3  A    between atoms: C_11  and  O_12
REMARK                            x       y       z     vdW  Elec       q    Type
REMARK                         _______ _______ _______ _____ _____    ______ ____
ROOT
ATOM      1  C   UNL     1       3.853   4.338  18.773  0.00  0.00    +0.000 C 
ATOM      2  C   UNL     1       3.501   4.143  17.499  0.00  0.00    +0.000 C 
ATOM      3  C   UNL     1       2.628   2.948  17.360  0.00  0.00    +0.000 C 
ATOM      4  N   UNL     1       2.511   2.371  18.713  0.00  0.00    +0.000 NA
ATOM      5  C   UNL     1       1.132   2.296  19.194  0.00  0.00    +0.000 C 
ATOM      6  C   UNL     1       0.958   3.282  20.336  0.00  0.00    +0.000 C 
ATOM      7  C   UNL     1       2.361   3.653  20.780  0.00  0.00    +0.000 C 
ATOM      8  C   UNL     1       3.296   3.243  19.633  0.00  0.00    +0.000 C 
ENDROOT
BRANCH   7   9
ATOM      9  O   UNL     1       2.683   2.925  21.972  0.00  0.00    +0.000 OA
ATOM     10  H   UNL     1       2.193   2.083  21.935  0.00  0.00    +0.000 HD
ENDBRANCH   7   9
BRANCH   1  11
ATOM     11  C   UNL     1       4.837   5.332  19.291  0.00  0.00    +0.000 C 
BRANCH  11  14
ATOM     12  N   UNL     1       7.707   4.510  17.937  0.00  0.00    +0.000 NA
ATOM     13  N   UNL     1       6.931   4.582  18.770  0.00  0.00    +0.000 NA
ATOM     14  N   UNL     1       6.080   4.662  19.676  0.00  0.00    +0.000 NA
ENDBRANCH  11  14
ENDBRANCH   1  11
TORSDOF 3
ENDMDL
MODEL 2
REMARK VINA RESULT:      -6.0      1.622      2.124
REMARK  Name = 
REMARK  3 active torsions:
REMARK  status: ('A' for Active; 'I' for Inactive)
REMARK    1  A    between atoms: N_3  and  C_4
REMARK    2  A    between atoms: C_4  and  C_5
REMARK    3  A    between atoms: C_11  and  O_12
REMARK                            x       y       z     vdW  Elec       q    Type
REMARK                         _______ _______ _______ _____ _____    ______ ____
ROOT
ATOM      1  C   UNL     1       5.094   5.040  18.720  0.00  0.00    +0.000 C 
ATOM      2  C   UNL     1       4.169   5.901  18.285  0.00  0.00    +0.000 C 
ATOM      3  C   UNL     1       2.918   5.195  17.900  0.00  0.00    +0.000 C 
ATOM      4  N   UNL     1       3.186   3.758  18.098  0.00  0.00    +0.000 NA
ATOM      5  C   UNL     1       2.271   3.123  19.047  0.00  0.00    +0.000 C 
ATOM      6  C   UNL     1       3.046   2.747  20.298  0.00  0.00    +0.000 C 
ATOM      7  C   UNL     1       4.512   2.811  19.910  0.00  0.00    +0.000 C 
ATOM      8  C   UNL     1       4.578   3.636  18.616  0.00  0.00    +0.000 C 
ENDROOT
BRANCH   7   9
ATOM      9  O   UNL     1       4.994   1.481  19.680  0.00  0.00    +0.000 OA
ATOM     10  H   UNL     1       4.895   1.301  18.727  0.00  0.00    +0.000 HD
ENDBRANCH   7   9
BRANCH   1  11
ATOM     11  C   UNL     1       6.517   5.342  19.048  0.00  0.00    +0.000 C 
BRANCH  11  14
ATOM     12  N   UNL     1       7.493   5.556  15.926  0.00  0.00    +0.000 NA
ATOM     13  N   UNL     1       7.455   5.115  16.978  0.00  0.00    +0.000 NA
ATOM     14  N   UNL     1       7.410   4.637  18.127  0.00  0.00    +0.000 NA
ENDBRANCH  11  14
ENDBRANCH   1  11
TORSDOF 3
ENDMDL
MODEL 3
REMARK VINA RESULT:      -5.9      3.054      4.100
REMARK  Name = 
REMARK  3 active torsions:
REMARK  status: ('A' for Active; 'I' for Inactive)
REMARK    1  A    between atoms: N_3  and  C_4
REMARK    2  A    between atoms: C_4  and  C_5
REMARK    3  A    between atoms: C_11  and  O_12
REMARK                            x       y       z     vdW  Elec       q    Type
REMARK                         _______ _______ _______ _____ _____    ______ ____
ROOT
ATOM      1  C   UNL     1       5.285   5.444  16.165  0.00  0.00    +0.000 C 
ATOM      2  C   UNL     1       5.127   6.757  16.351  0.00  0.00    +0.000 C 
ATOM      3  C   UNL     1       4.085   7.032  17.375  0.00  0.00    +0.000 C 
ATOM      4  N   UNL     1       3.559   5.715  17.783  0.00  0.00    +0.000 NA
ATOM      5  C   UNL     1       3.715   5.446  19.212  0.00  0.00    +0.000 C 
ATOM      6  C   UNL     1       4.737   4.337  19.392  0.00  0.00    +0.000 C 
ATOM      7  C   UNL     1       4.885   3.686  18.029  0.00  0.00    +0.000 C 
ATOM      8  C   UNL     1       4.310   4.684  17.013  0.00  0.00    +0.000 C 
ENDROOT
BRANCH   7   9
ATOM      9  O   UNL     1       4.137   2.464  18.009  0.00  0.00    +0.000 OA
ATOM     10  H   UNL     1       4.660   1.800  18.494  0.00  0.00    +0.000 HD
ENDBRANCH   7   9
BRANCH   1  11
ATOM     11  C   UNL     1       6.118   4.779  15.121  0.00  0.00    +0.000 C 
BRANCH  11  14
ATOM     12  N   UNL     1       8.502   5.802  13.118  0.00  0.00    +0.000 NA
ATOM     13  N   UNL     1       8.027   5.533  14.120  0.00  0.00    +0.000 NA
ATOM     14  N   UNL     1       7.504   5.238  15.211  0.00  0.00    +0.000 NA
ENDBRANCH  11  14
ENDBRANCH   1  11
TORSDOF 3
ENDMDL
MODEL 4
REMARK VINA RESULT:      -5.8      2.299      3.222
REMARK  Name = 
REMARK  3 active torsions:
REMARK  status: ('A' for Active; 'I' for Inactive)
REMARK    1  A    between atoms: N_3  and  C_4
REMARK    2  A    between atoms: C_4  and  C_5
REMARK    3  A    between atoms: C_11  and  O_12
REMARK                            x       y       z     vdW  Elec       q    Type
REMARK                         _______ _______ _______ _____ _____    ______ ____
ROOT
ATOM      1  C   UNL     1       5.041   4.874  16.404  0.00  0.00    +0.000 C 
ATOM      2  C   UNL     1       4.820   6.168  16.658  0.00  0.00    +0.000 C 
ATOM      3  C   UNL     1       3.676   6.343  17.592  0.00  0.00    +0.000 C 
ATOM      4  N   UNL     1       3.159   4.987  17.860  0.00  0.00    +0.000 NA
ATOM      5  C   UNL     1       3.187   4.627  19.277  0.00  0.00    +0.000 C 
ATOM      6  C   UNL     1       4.225   3.537  19.484  0.00  0.00    +0.000 C 
ATOM      7  C   UNL     1       4.525   2.984  18.102  0.00  0.00    +0.000 C 
ATOM      8  C   UNL     1       4.016   4.032  17.102  0.00  0.00    +0.000 C 
ENDROOT
BRANCH   7   9
ATOM      9  O   UNL     1       3.825   1.746  17.930  0.00  0.00    +0.000 OA
ATOM     10  H   UNL     1       4.098   1.158  18.659  0.00  0.00    +0.000 HD
ENDBRANCH   7   9
BRANCH   1  11
ATOM     11  C   UNL     1       5.992   4.306  15.406  0.00  0.00    +0.000 C 
BRANCH  11  14
ATOM     12  N   UNL     1       8.241   4.193  17.788  0.00  0.00    +0.000 NA
ATOM     13  N   UNL     1       7.816   4.483  16.770  0.00  0.00    +0.000 NA
ATOM     14  N   UNL     1       7.347   4.797  15.660  0.00  0.00    +0.000 NA
ENDBRANCH  11  14
ENDBRANCH   1  11
TORSDOF 3
ENDMDL
MODEL 5
REMARK VINA RESULT:      -5.8      2.330      3.111
REMARK  Name = 
REMARK  3 active torsions:
REMARK  status: ('A' for Active; 'I' for Inactive)
REMARK    1  A    between atoms: N_3  and  C_4
REMARK    2  A    between atoms: C_4  and  C_5
REMARK    3  A    between atoms: C_11  and  O_12
REMARK                            x       y       z     vdW  Elec       q    Type
REMARK                         _______ _______ _______ _____ _____    ______ ____
ROOT
ATOM      1  C   UNL     1       5.885   5.506  17.841  0.00  0.00    +0.000 C 
ATOM      2  C   UNL     1       5.305   6.675  17.554  0.00  0.00    +0.000 C 
ATOM      3  C   UNL     1       3.832   6.523  17.418  0.00  0.00    +0.000 C 
ATOM      4  N   UNL     1       3.553   5.086  17.603  0.00  0.00    +0.000 NA
ATOM      5  C   UNL     1       2.645   4.812  18.716  0.00  0.00    +0.000 C 
ATOM      6  C   UNL     1       3.419   4.110  19.818  0.00  0.00    +0.000 C 
ATOM      7  C   UNL     1       4.704   3.622  19.174  0.00  0.00    +0.000 C 
ATOM      8  C   UNL     1       4.857   4.415  17.868  0.00  0.00    +0.000 C 
ENDROOT
BRANCH   7   9
ATOM      9  O   UNL     1       4.587   2.221  18.897  0.00  0.00    +0.000 OA
ATOM     10  H   UNL     1       4.224   2.136  17.996  0.00  0.00    +0.000 HD
ENDBRANCH   7   9
BRANCH   1  11
ATOM     11  C   UNL     1       7.348   5.222  17.902  0.00  0.00    +0.000 C 
BRANCH  11  14
ATOM     12  N   UNL     1       7.536   5.367  14.632  0.00  0.00    +0.000 NA
ATOM     13  N   UNL     1       7.636   4.884  15.661  0.00  0.00    +0.000 NA
ATOM     14  N   UNL     1       7.744   4.361  16.786  0.00  0.00    +0.000 NA
ENDBRANCH  11  14
ENDBRANCH   1  11
TORSDOF 3
ENDMDL
MODEL 6
REMARK VINA RESULT:      -5.7      2.714      3.689
REMARK  Name = 
REMARK  3 active torsions:
REMARK  status: ('A' for Active; 'I' for Inactive)
REMARK    1  A    between atoms: N_3  and  C_4
REMARK    2  A    between atoms: C_4  and  C_5
REMARK    3  A    between atoms: C_11  and  O_12
REMARK                            x       y       z     vdW  Elec       q    Type
REMARK                         _______ _______ _______ _____ _____    ______ ____
ROOT
ATOM      1  C   UNL     1       3.587   2.399  19.320  0.00  0.00    +0.000 C 
ATOM      2  C   UNL     1       2.378   2.130  18.818  0.00  0.00    +0.000 C 
ATOM      3  C   UNL     1       1.622   3.380  18.542  0.00  0.00    +0.000 C 
ATOM      4  N   UNL     1       2.492   4.486  18.985  0.00  0.00    +0.000 NA
ATOM      5  C   UNL     1       2.818   5.430  17.916  0.00  0.00    +0.000 C 
ATOM      6  C   UNL     1       4.296   5.302  17.585  0.00  0.00    +0.000 C 
ATOM      7  C   UNL     1       4.916   4.550  18.749  0.00  0.00    +0.000 C 
ATOM      8  C   UNL     1       3.753   3.878  19.494  0.00  0.00    +0.000 C 
ENDROOT
BRANCH   7   9
ATOM      9  O   UNL     1       5.586   5.484  19.606  0.00  0.00    +0.000 OA
ATOM     10  H   UNL     1       5.264   5.323  20.512  0.00  0.00    +0.000 HD
ENDBRANCH   7   9
BRANCH   1  11
ATOM     11  C   UNL     1       4.571   1.418  19.863  0.00  0.00    +0.000 C 
BRANCH  11  14
ATOM     12  N   UNL     1       6.404   0.261  22.322  0.00  0.00    +0.000 NA
ATOM     13  N   UNL     1       5.760   1.027  21.774  0.00  0.00    +0.000 NA
ATOM     14  N   UNL     1       5.057   1.860  21.171  0.00  0.00    +0.000 NA
ENDBRANCH  11  14
ENDBRANCH   1  11
TORSDOF 3
ENDMDL
MODEL 7
REMARK VINA RESULT:      -5.7      1.787      2.035
REMARK  Name = 
REMARK  3 active torsions:
REMARK  status: ('A' for Active; 'I' for Inactive)
REMARK    1  A    between atoms: N_3  and  C_4
REMARK    2  A    between atoms: C_4  and  C_5
REMARK    3  A    between atoms: C_11  and  O_12
REMARK                            x       y       z     vdW  Elec       q    Type
REMARK                         _______ _______ _______ _____ _____    ______ ____
ROOT
ATOM      1  C   UNL     1       3.234   4.278  17.833  0.00  0.00    +0.000 C 
ATOM      2  C   UNL     1       1.943   4.595  17.692  0.00  0.00    +0.000 C 
ATOM      3  C   UNL     1       1.068   3.558  18.301  0.00  0.00    +0.000 C 
ATOM      4  N   UNL     1       1.972   2.507  18.804  0.00  0.00    +0.000 NA
ATOM      5  C   UNL     1       1.846   2.274  20.242  0.00  0.00    +0.000 C 
ATOM      6  C   UNL     1       3.116   2.748  20.929  0.00  0.00    +0.000 C 
ATOM      7  C   UNL     1       4.149   2.897  19.827  0.00  0.00    +0.000 C 
ATOM      8  C   UNL     1       3.366   2.945  18.507  0.00  0.00    +0.000 C 
ENDROOT
BRANCH   7   9
ATOM      9  O   UNL     1       5.024   1.762  19.847  0.00  0.00    +0.000 OA
ATOM     10  H   UNL     1       4.747   1.174  19.120  0.00  0.00    +0.000 HD
ENDBRANCH   7   9
BRANCH   1  11
ATOM     11  C   UNL     1       4.402   4.981  17.227  0.00  0.00    +0.000 C 
BRANCH  11  14
ATOM     12  N   UNL     1       7.609   4.646  16.636  0.00  0.00    +0.000 NA
ATOM     13  N   UNL     1       6.509   4.342  16.619  0.00  0.00    +0.000 NA
ATOM     14  N   UNL     1       5.307   4.015  16.603  0.00  0.00    +0.000 NA
ENDBRANCH  11  14
ENDBRANCH   1  11
TORSDOF 3
ENDMDL
MODEL 8
REMARK VINA RESULT:      -5.7      2.662      3.390
REMARK  Name = 
REMARK  3 active torsions:
REMARK  status: ('A' for Active; 'I' for Inactive)
REMARK    1  A    between atoms: N_3  and  C_4
REMARK    2  A    between atoms: C_4  and  C_5
REMARK    3  A    between atoms: C_11  and  O_12
REMARK                            x       y       z     vdW  Elec       q    Type
REMARK                         _______ _______ _______ _____ _____    ______ ____
ROOT
ATOM      1  C   UNL     1       5.293   5.082  17.107  0.00  0.00    +0.000 C 
ATOM      2  C   UNL     1       5.036   6.372  17.345  0.00  0.00    +0.000 C 
ATOM      3  C   UNL     1       3.629   6.565  17.786  0.00  0.00    +0.000 C 
ATOM      4  N   UNL     1       3.004   5.229  17.747  0.00  0.00    +0.000 NA
ATOM      5  C   UNL     1       2.478   4.798  19.041  0.00  0.00    +0.000 C 
ATOM      6  C   UNL     1       3.321   3.642  19.552  0.00  0.00    +0.000 C 
ATOM      7  C   UNL     1       4.107   3.143  18.352  0.00  0.00    +0.000 C 
ATOM      8  C   UNL     1       4.052   4.265  17.306  0.00  0.00    +0.000 C 
ENDROOT
BRANCH   7   9
ATOM      9  O   UNL     1       3.484   1.956  17.845  0.00  0.00    +0.000 OA
ATOM     10  H   UNL     1       2.520   2.096  17.893  0.00  0.00    +0.000 HD
ENDBRANCH   7   9
BRANCH   1  11
ATOM     11  C   UNL     1       6.533   4.511  16.506  0.00  0.00    +0.000 C 
BRANCH  11  14
ATOM     12  N   UNL     1       7.849   5.505  13.673  0.00  0.00    +0.000 NA
ATOM     13  N   UNL     1       7.635   5.545  14.793  0.00  0.00    +0.000 NA
ATOM     14  N   UNL     1       7.399   5.584  16.015  0.00  0.00    +0.000 NA
ENDBRANCH  11  14
ENDBRANCH   1  11
TORSDOF 3
ENDMDL
MODEL 9
REMARK VINA RESULT:      -5.6      1.866      1.947
REMARK  Name = 
REMARK  3 active torsions:
REMARK  status: ('A' for Active; 'I' for Inactive)
REMARK    1  A    between atoms: N_3  and  C_4
REMARK    2  A    between atoms: C_4  and  C_5
REMARK    3  A    between atoms: C_11  and  O_12
REMARK                            x       y       z     vdW  Elec       q    Type
REMARK                         _______ _______ _______ _____ _____    ______ ____
ROOT
ATOM      1  C   UNL     1       3.844   4.670  17.916  0.00  0.00    +0.000 C 
ATOM      2  C   UNL     1       3.874   3.576  17.150  0.00  0.00    +0.000 C 
ATOM      3  C   UNL     1       3.461   2.372  17.917  0.00  0.00    +0.000 C 
ATOM      4  N   UNL     1       3.212   2.835  19.296  0.00  0.00    +0.000 NA
ATOM      5  C   UNL     1       1.848   2.577  19.756  0.00  0.00    +0.000 C 
ATOM      6  C   UNL     1       1.122   3.903  19.902  0.00  0.00    +0.000 C 
ATOM      7  C   UNL     1       2.203   4.968  19.902  0.00  0.00    +0.000 C 
ATOM      8  C   UNL     1       3.459   4.304  19.319  0.00  0.00    +0.000 C 
ENDROOT
BRANCH   7   9
ATOM      9  O   UNL     1       2.443   5.393  21.249  0.00  0.00    +0.000 OA
ATOM     10  H   UNL     1       2.803   4.626  21.732  0.00  0.00    +0.000 HD
ENDBRANCH   7   9
BRANCH   1  11
ATOM     11  C   UNL     1       4.332   6.033  17.556  0.00  0.00    +0.000 C 
BRANCH  11  14
ATOM     12  N   UNL     1       7.375   6.494  16.428  0.00  0.00    +0.000 NA
ATOM     13  N   UNL     1       6.262   6.254  16.354  0.00  0.00    +0.000 NA
ATOM     14  N   UNL     1       5.047   5.993  16.279  0.00  0.00    +0.000 NA
ENDBRANCH  11  14
ENDBRANCH   1  11
TORSDOF 3
ENDMDL
