MODEL 1
REMARK VINA RESULT:      -6.5      0.000      0.000
REMARK  Name = 
REMARK  9 active torsions:
REMARK  status: ('A' for Active; 'I' for Inactive)
REMARK    1  A    between atoms: C_1  and  O_2
REMARK    2  A    between atoms: O_2  and  C_3
REMARK    3  A    between atoms: C_3  and  C_5
REMARK    4  A    between atoms: C_5  and  C_6
REMARK    5  A    between atoms: C_13  and  O_15
REMARK    6  A    between atoms: O_15  and  C_16
REMARK    7  A    between atoms: C_16  and  C_17
REMARK    8  A    between atoms: C_16  and  C_18
REMARK    9  A    between atoms: C_16  and  C_19
REMARK                            x       y       z     vdW  Elec       q    Type
REMARK                         _______ _______ _______ _____ _____    ______ ____
ROOT
ATOM      1  C   UNL     1       3.197   4.241  18.211  0.00  0.00    +0.000 C 
ATOM      2  C   UNL     1       1.985   3.356  18.675  0.00  0.00    +0.000 C 
ATOM      3  O   UNL     1       0.880   3.419  18.133  0.00  0.00    +0.000 OA
ATOM      4  N   UNL     1       2.178   2.437  19.672  0.00  0.00    +0.000 N 
ATOM      5  C   UNL     1       3.347   2.463  20.518  0.00  0.00    +0.000 C 
ATOM      6  C   UNL     1       4.580   2.794  19.700  0.00  0.00    +0.000 C 
ATOM      7  N   UNL     1       4.417   4.096  19.052  0.00  0.00    +0.000 N 
ATOM      8  C   UNL     1       5.510   4.944  19.115  0.00  0.00    +0.000 C 
ATOM      9  O   UNL     1       6.471   4.720  19.848  0.00  0.00    +0.000 OA
ATOM     10  H   UNL     1       1.327   2.005  20.012  0.00  0.00    +0.000 HD
ENDROOT
BRANCH   1  11
ATOM     11  C   UNL     1       2.629   5.652  17.998  0.00  0.00    +0.000 C 
BRANCH  11  12
ATOM     12  C   UNL     1       2.284   6.324  19.302  0.00  0.00    +0.000 C 
ATOM     13  O   UNL     1       1.943   5.754  20.330  0.00  0.00    +0.000 OA
BRANCH  12  15
ATOM     14  C   UNL     1       2.546   8.098  17.808  0.00  0.00    +0.000 C 
ATOM     15  O   UNL     1       2.392   7.675  19.163  0.00  0.00    +0.000 OA
ENDBRANCH  12  15
ENDBRANCH  11  12
ENDBRANCH   1  11
BRANCH   8  16
ATOM     16  O   UNL     1       5.426   6.031  18.309  0.00  0.00    +0.000 OA
BRANCH  16  17
ATOM     17  C   UNL     1       6.318   6.144  17.162  0.00  0.00    +0.000 C 
ATOM     18  C   UNL     1       6.949   4.795  16.784  0.00  0.00    +0.000 C 
ATOM     19  C   UNL     1       5.429   6.598  15.991  0.00  0.00    +0.000 C 
ATOM     20  C   UNL     1       7.379   7.228  17.400  0.00  0.00    +0.000 C 
ENDBRANCH  16  17
ENDBRANCH   8  16
TORSDOF 5
ENDMDL
MODEL 2
REMARK VINA RESULT:      -6.4      1.882      4.288
REMARK  Name = 
REMARK  9 active torsions:
REMARK  status: ('A' for Active; 'I' for Inactive)
REMARK    1  A    between atoms: C_1  and  O_2
REMARK    2  A    between atoms: O_2  and  C_3
REMARK    3  A    between atoms: C_3  and  C_5
REMARK    4  A    between atoms: C_5  and  C_6
REMARK    5  A    between atoms: C_13  and  O_15
REMARK    6  A    between atoms: O_15  and  C_16
REMARK    7  A    between atoms: C_16  and  C_17
REMARK    8  A    between atoms: C_16  and  C_18
REMARK    9  A    between atoms: C_16  and  C_19
REMARK                            x       y       z     vdW  Elec       q    Type
REMARK                         _______ _______ _______ _____ _____    ______ ____
ROOT
ATOM      1  C   UNL     1       4.684   6.040  17.787  0.00  0.00    +0.000 C 
ATOM      2  C   UNL     1       5.297   6.424  16.393  0.00  0.00    +0.000 C 
ATOM      3  O   UNL     1       4.905   7.398  15.748  0.00  0.00    +0.000 OA
ATOM      4  N   UNL     1       6.347   5.690  15.905  0.00  0.00    +0.000 N 
ATOM      5  C   UNL     1       6.704   4.407  16.461  0.00  0.00    +0.000 C 
ATOM      6  C   UNL     1       6.588   4.439  17.973  0.00  0.00    +0.000 C 
ATOM      7  N   UNL     1       5.219   4.775  18.363  0.00  0.00    +0.000 N 
ATOM      8  C   UNL     1       4.673   4.009  19.380  0.00  0.00    +0.000 C 
ATOM      9  O   UNL     1       5.208   2.977  19.781  0.00  0.00    +0.000 OA
ATOM     10  H   UNL     1       6.596   5.906  14.947  0.00  0.00    +0.000 HD
ENDROOT
BRANCH   1  11
ATOM     11  C   UNL     1       3.162   6.176  17.628  0.00  0.00    +0.000 C 
BRANCH  11  12
ATOM     12  C   UNL     1       2.634   7.417  18.302  0.00  0.00    +0.000 C 
ATOM     13  O   UNL     1       2.418   7.541  19.500  0.00  0.00    +0.000 OA
BRANCH  12  15
ATOM     14  C   UNL     1       1.804   9.560  17.901  0.00  0.00    +0.000 C 
ATOM     15  O   UNL     1       2.414   8.385  17.369  0.00  0.00    +0.000 OA
ENDBRANCH  12  15
ENDBRANCH  11  12
ENDBRANCH   1  11
BRANCH   8  16
ATOM     16  O   UNL     1       3.512   4.490  19.886  0.00  0.00    +0.000 OA
BRANCH  16  17
ATOM     17  C   UNL     1       2.404   3.576  20.135  0.00  0.00    +0.000 C 
ATOM     18  C   UNL     1       2.609   2.754  21.416  0.00  0.00    +0.000 C 
ATOM     19  C   UNL     1       1.169   4.470  20.336  0.00  0.00    +0.000 C 
ATOM     20  C   UNL     1       2.149   2.682  18.913  0.00  0.00    +0.000 C 
ENDBRANCH  16  17
ENDBRANCH   8  16
TORSDOF 5
ENDMDL
MODEL 3
REMARK VINA RESULT:      -6.3      2.355      5.193
REMARK  Name = 
REMARK  9 active torsions:
REMARK  status: ('A' for Active; 'I' for Inactive)
REMARK    1  A    between atoms: C_1  and  O_2
REMARK    2  A    between atoms: O_2  and  C_3
REMARK    3  A    between atoms: C_3  and  C_5
REMARK    4  A    between atoms: C_5  and  C_6
REMARK    5  A    between atoms: C_13  and  O_15
REMARK    6  A    between atoms: O_15  and  C_16
REMARK    7  A    between atoms: C_16  and  C_17
REMARK    8  A    between atoms: C_16  and  C_18
REMARK    9  A    between atoms: C_16  and  C_19
REMARK                            x       y       z     vdW  Elec       q    Type
REMARK                         _______ _______ _______ _____ _____    ______ ____
ROOT
ATOM      1  C   UNL     1       5.427   6.046  17.794  0.00  0.00    +0.000 C 
ATOM      2  C   UNL     1       6.693   6.936  17.525  0.00  0.00    +0.000 C 
ATOM      3  O   UNL     1       6.697   7.838  16.686  0.00  0.00    +0.000 OA
ATOM      4  N   UNL     1       7.811   6.747  18.295  0.00  0.00    +0.000 N 
ATOM      5  C   UNL     1       7.982   5.573  19.117  0.00  0.00    +0.000 C 
ATOM      6  C   UNL     1       6.671   5.205  19.785  0.00  0.00    +0.000 C 
ATOM      7  N   UNL     1       5.649   4.945  18.771  0.00  0.00    +0.000 N 
ATOM      8  C   UNL     1       4.866   3.821  18.975  0.00  0.00    +0.000 C 
ATOM      9  O   UNL     1       5.145   2.974  19.821  0.00  0.00    +0.000 OA
ATOM     10  H   UNL     1       8.628   7.255  17.976  0.00  0.00    +0.000 HD
ENDROOT
BRANCH   1  11
ATOM     11  C   UNL     1       4.869   5.682  16.409  0.00  0.00    +0.000 C 
BRANCH  11  12
ATOM     12  C   UNL     1       5.839   4.848  15.612  0.00  0.00    +0.000 C 
ATOM     13  O   UNL     1       6.189   3.708  15.884  0.00  0.00    +0.000 OA
BRANCH  12  15
ATOM     14  C   UNL     1       7.132   4.815  13.671  0.00  0.00    +0.000 C 
ATOM     15  O   UNL     1       6.285   5.563  14.542  0.00  0.00    +0.000 OA
ENDBRANCH  12  15
ENDBRANCH  11  12
ENDBRANCH   1  11
BRANCH   8  16
ATOM     16  O   UNL     1       3.780   3.738  18.169  0.00  0.00    +0.000 OA
BRANCH  16  17
ATOM     17  C   UNL     1       2.445   3.822  18.750  0.00  0.00    +0.000 C 
ATOM     18  C   UNL     1       2.400   4.767  19.960  0.00  0.00    +0.000 C 
ATOM     19  C   UNL     1       1.552   4.418  17.648  0.00  0.00    +0.000 C 
ATOM     20  C   UNL     1       1.909   2.424  19.091  0.00  0.00    +0.000 C 
ENDBRANCH  16  17
ENDBRANCH   8  16
TORSDOF 5
ENDMDL
MODEL 4
REMARK VINA RESULT:      -6.3      0.096      1.012
REMARK  Name = 
REMARK  9 active torsions:
REMARK  status: ('A' for Active; 'I' for Inactive)
REMARK    1  A    between atoms: C_1  and  O_2
REMARK    2  A    between atoms: O_2  and  C_3
REMARK    3  A    between atoms: C_3  and  C_5
REMARK    4  A    between atoms: C_5  and  C_6
REMARK    5  A    between atoms: C_13  and  O_15
REMARK    6  A    between atoms: O_15  and  C_16
REMARK    7  A    between atoms: C_16  and  C_17
REMARK    8  A    between atoms: C_16  and  C_18
REMARK    9  A    between atoms: C_16  and  C_19
REMARK                            x       y       z     vdW  Elec       q    Type
REMARK                         _______ _______ _______ _____ _____    ______ ____
ROOT
ATOM      1  C   UNL     1       3.244   4.271  18.186  0.00  0.00    +0.000 C 
ATOM      2  C   UNL     1       2.039   3.362  18.622  0.00  0.00    +0.000 C 
ATOM      3  O   UNL     1       0.938   3.422  18.072  0.00  0.00    +0.000 OA
ATOM      4  N   UNL     1       2.237   2.424  19.601  0.00  0.00    +0.000 N 
ATOM      5  C   UNL     1       3.399   2.447  20.457  0.00  0.00    +0.000 C 
ATOM      6  C   UNL     1       4.634   2.810  19.655  0.00  0.00    +0.000 C 
ATOM      7  N   UNL     1       4.459   4.123  19.034  0.00  0.00    +0.000 N 
ATOM      8  C   UNL     1       5.541   4.984  19.123  0.00  0.00    +0.000 C 
ATOM      9  O   UNL     1       6.499   4.757  19.858  0.00  0.00    +0.000 OA
ATOM     10  H   UNL     1       1.388   1.975  19.925  0.00  0.00    +0.000 HD
ENDROOT
BRANCH   1  11
ATOM     11  C   UNL     1       2.660   5.679  17.998  0.00  0.00    +0.000 C 
BRANCH  11  12
ATOM     12  C   UNL     1       2.291   6.317  19.312  0.00  0.00    +0.000 C 
ATOM     13  O   UNL     1       2.064   5.720  20.356  0.00  0.00    +0.000 OA
BRANCH  12  15
ATOM     14  C   UNL     1       2.643   8.120  17.873  0.00  0.00    +0.000 C 
ATOM     15  O   UNL     1       2.230   7.670  19.163  0.00  0.00    +0.000 OA
ENDBRANCH  12  15
ENDBRANCH  11  12
ENDBRANCH   1  11
BRANCH   8  16
ATOM     16  O   UNL     1       5.449   6.086  18.339  0.00  0.00    +0.000 OA
BRANCH  16  17
ATOM     17  C   UNL     1       6.312   6.210  17.171  0.00  0.00    +0.000 C 
ATOM     18  C   UNL     1       7.434   7.236  17.386  0.00  0.00    +0.000 C 
ATOM     19  C   UNL     1       6.961   4.827  16.989  0.00  0.00    +0.000 C 
ATOM     20  C   UNL     1       5.487   6.516  15.912  0.00  0.00    +0.000 C 
ENDBRANCH  16  17
ENDBRANCH   8  16
TORSDOF 5
ENDMDL
MODEL 5
REMARK VINA RESULT:      -6.3      1.883      4.281
REMARK  Name = 
REMARK  9 active torsions:
REMARK  status: ('A' for Active; 'I' for Inactive)
REMARK    1  A    between atoms: C_1  and  O_2
REMARK    2  A    between atoms: O_2  and  C_3
REMARK    3  A    between atoms: C_3  and  C_5
REMARK    4  A    between atoms: C_5  and  C_6
REMARK    5  A    between atoms: C_13  and  O_15
REMARK    6  A    between atoms: O_15  and  C_16
REMARK    7  A    between atoms: C_16  and  C_17
REMARK    8  A    between atoms: C_16  and  C_18
REMARK    9  A    between atoms: C_16  and  C_19
REMARK                            x       y       z     vdW  Elec       q    Type
REMARK                         _______ _______ _______ _____ _____    ______ ____
ROOT
ATOM      1  C   UNL     1       4.706   6.021  17.732  0.00  0.00    +0.000 C 
ATOM      2  C   UNL     1       5.298   6.388  16.324  0.00  0.00    +0.000 C 
ATOM      3  O   UNL     1       4.900   7.357  15.676  0.00  0.00    +0.000 OA
ATOM      4  N   UNL     1       6.336   5.645  15.827  0.00  0.00    +0.000 N 
ATOM      5  C   UNL     1       6.697   4.366  16.391  0.00  0.00    +0.000 C 
ATOM      6  C   UNL     1       6.605   4.414  17.904  0.00  0.00    +0.000 C 
ATOM      7  N   UNL     1       5.244   4.759  18.312  0.00  0.00    +0.000 N 
ATOM      8  C   UNL     1       4.711   4.007  19.345  0.00  0.00    +0.000 C 
ATOM      9  O   UNL     1       5.248   2.977  19.748  0.00  0.00    +0.000 OA
ATOM     10  H   UNL     1       6.572   5.849  14.863  0.00  0.00    +0.000 HD
ENDROOT
BRANCH   1  11
ATOM     11  C   UNL     1       3.182   6.162  17.596  0.00  0.00    +0.000 C 
BRANCH  11  12
ATOM     12  C   UNL     1       2.666   7.396  18.292  0.00  0.00    +0.000 C 
ATOM     13  O   UNL     1       2.433   7.495  19.489  0.00  0.00    +0.000 OA
BRANCH  12  15
ATOM     14  C   UNL     1       1.672   9.464  17.865  0.00  0.00    +0.000 C 
ATOM     15  O   UNL     1       2.478   8.391  17.379  0.00  0.00    +0.000 OA
ENDBRANCH  12  15
ENDBRANCH  11  12
ENDBRANCH   1  11
BRANCH   8  16
ATOM     16  O   UNL     1       3.560   4.498  19.865  0.00  0.00    +0.000 OA
BRANCH  16  17
ATOM     17  C   UNL     1       2.404   3.621  20.006  0.00  0.00    +0.000 C 
ATOM     18  C   UNL     1       2.244   2.677  18.806  0.00  0.00    +0.000 C 
ATOM     19  C   UNL     1       2.686   2.764  21.252  0.00  0.00    +0.000 C 
ATOM     20  C   UNL     1       1.130   4.437  20.270  0.00  0.00    +0.000 C 
ENDBRANCH  16  17
ENDBRANCH   8  16
TORSDOF 5
ENDMDL
MODEL 6
REMARK VINA RESULT:      -6.2      1.868      4.359
REMARK  Name = 
REMARK  9 active torsions:
REMARK  status: ('A' for Active; 'I' for Inactive)
REMARK    1  A    between atoms: C_1  and  O_2
REMARK    2  A    between atoms: O_2  and  C_3
REMARK    3  A    between atoms: C_3  and  C_5
REMARK    4  A    between atoms: C_5  and  C_6
REMARK    5  A    between atoms: C_13  and  O_15
REMARK    6  A    between atoms: O_15  and  C_16
REMARK    7  A    between atoms: C_16  and  C_17
REMARK    8  A    between atoms: C_16  and  C_18
REMARK    9  A    between atoms: C_16  and  C_19
REMARK                            x       y       z     vdW  Elec       q    Type
REMARK                         _______ _______ _______ _____ _____    ______ ____
ROOT
ATOM      1  C   UNL     1       4.507   5.962  17.888  0.00  0.00    +0.000 C 
ATOM      2  C   UNL     1       5.092   6.401  16.498  0.00  0.00    +0.000 C 
ATOM      3  O   UNL     1       4.664   7.381  15.886  0.00  0.00    +0.000 OA
ATOM      4  N   UNL     1       6.156   5.712  15.978  0.00  0.00    +0.000 N 
ATOM      5  C   UNL     1       6.556   4.425  16.494  0.00  0.00    +0.000 C 
ATOM      6  C   UNL     1       6.457   4.412  18.007  0.00  0.00    +0.000 C 
ATOM      7  N   UNL     1       5.084   4.697  18.422  0.00  0.00    +0.000 N 
ATOM      8  C   UNL     1       4.573   3.888  19.423  0.00  0.00    +0.000 C 
ATOM      9  O   UNL     1       5.142   2.862  19.789  0.00  0.00    +0.000 OA
ATOM     10  H   UNL     1       6.388   5.961  15.024  0.00  0.00    +0.000 HD
ENDROOT
BRANCH   1  11
ATOM     11  C   UNL     1       2.980   6.059  17.750  0.00  0.00    +0.000 C 
BRANCH  11  12
ATOM     12  C   UNL     1       2.439   7.331  18.350  0.00  0.00    +0.000 C 
ATOM     13  O   UNL     1       1.977   8.275  17.724  0.00  0.00    +0.000 OA
BRANCH  12  15
ATOM     14  C   UNL     1       1.588   8.076  20.391  0.00  0.00    +0.000 C 
ATOM     15  O   UNL     1       2.557   7.283  19.707  0.00  0.00    +0.000 OA
ENDBRANCH  12  15
ENDBRANCH  11  12
ENDBRANCH   1  11
BRANCH   8  16
ATOM     16  O   UNL     1       3.404   4.321  19.956  0.00  0.00    +0.000 OA
BRANCH  16  17
ATOM     17  C   UNL     1       2.330   3.367  20.202  0.00  0.00    +0.000 C 
ATOM     18  C   UNL     1       2.505   2.630  21.537  0.00  0.00    +0.000 C 
ATOM     19  C   UNL     1       1.044   4.207  20.287  0.00  0.00    +0.000 C 
ATOM     20  C   UNL     1       2.184   2.394  19.022  0.00  0.00    +0.000 C 
ENDBRANCH  16  17
ENDBRANCH   8  16
TORSDOF 5
ENDMDL
MODEL 7
REMARK VINA RESULT:      -6.2      2.415      5.278
REMARK  Name = 
REMARK  9 active torsions:
REMARK  status: ('A' for Active; 'I' for Inactive)
REMARK    1  A    between atoms: C_1  and  O_2
REMARK    2  A    between atoms: O_2  and  C_3
REMARK    3  A    between atoms: C_3  and  C_5
REMARK    4  A    between atoms: C_5  and  C_6
REMARK    5  A    between atoms: C_13  and  O_15
REMARK    6  A    between atoms: O_15  and  C_16
REMARK    7  A    between atoms: C_16  and  C_17
REMARK    8  A    between atoms: C_16  and  C_18
REMARK    9  A    between atoms: C_16  and  C_19
REMARK                            x       y       z     vdW  Elec       q    Type
REMARK                         _______ _______ _______ _____ _____    ______ ____
ROOT
ATOM      1  C   UNL     1       5.643   6.172  17.732  0.00  0.00    +0.000 C 
ATOM      2  C   UNL     1       6.921   7.072  17.581  0.00  0.00    +0.000 C 
ATOM      3  O   UNL     1       6.980   7.999  16.772  0.00  0.00    +0.000 OA
ATOM      4  N   UNL     1       7.983   6.862  18.421  0.00  0.00    +0.000 N 
ATOM      5  C   UNL     1       8.101   5.664  19.217  0.00  0.00    +0.000 C 
ATOM      6  C   UNL     1       6.748   5.272  19.780  0.00  0.00    +0.000 C 
ATOM      7  N   UNL     1       5.800   5.042  18.689  0.00  0.00    +0.000 N 
ATOM      8  C   UNL     1       5.010   3.910  18.803  0.00  0.00    +0.000 C 
ATOM      9  O   UNL     1       5.232   3.038  19.640  0.00  0.00    +0.000 OA
ATOM     10  H   UNL     1       8.818   7.381  18.175  0.00  0.00    +0.000 HD
ENDROOT
BRANCH   1  11
ATOM     11  C   UNL     1       5.185   5.849  16.302  0.00  0.00    +0.000 C 
BRANCH  11  12
ATOM     12  C   UNL     1       6.151   4.934  15.594  0.00  0.00    +0.000 C 
ATOM     13  O   UNL     1       7.364   4.916  15.752  0.00  0.00    +0.000 OA
BRANCH  12  15
ATOM     14  C   UNL     1       6.190   3.842  13.531  0.00  0.00    +0.000 C 
ATOM     15  O   UNL     1       5.469   4.131  14.729  0.00  0.00    +0.000 OA
ENDBRANCH  12  15
ENDBRANCH  11  12
ENDBRANCH   1  11
BRANCH   8  16
ATOM     16  O   UNL     1       3.983   3.849  17.920  0.00  0.00    +0.000 OA
BRANCH  16  17
ATOM     17  C   UNL     1       2.619   3.705  18.413  0.00  0.00    +0.000 C 
ATOM     18  C   UNL     1       2.203   2.232  18.541  0.00  0.00    +0.000 C 
ATOM     19  C   UNL     1       2.623   4.323  19.822  0.00  0.00    +0.000 C 
ATOM     20  C   UNL     1       1.638   4.507  17.546  0.00  0.00    +0.000 C 
ENDBRANCH  16  17
ENDBRANCH   8  16
TORSDOF 5
ENDMDL
MODEL 8
REMARK VINA RESULT:      -6.1      2.396      5.188
REMARK  Name = 
REMARK  9 active torsions:
REMARK  status: ('A' for Active; 'I' for Inactive)
REMARK    1  A    between atoms: C_1  and  O_2
REMARK    2  A    between atoms: O_2  and  C_3
REMARK    3  A    between atoms: C_3  and  C_5
REMARK    4  A    between atoms: C_5  and  C_6
REMARK    5  A    between atoms: C_13  and  O_15
REMARK    6  A    between atoms: O_15  and  C_16
REMARK    7  A    between atoms: C_16  and  C_17
REMARK    8  A    between atoms: C_16  and  C_18
REMARK    9  A    between atoms: C_16  and  C_19
REMARK                            x       y       z     vdW  Elec       q    Type
REMARK                         _______ _______ _______ _____ _____    ______ ____
ROOT
ATOM      1  C   UNL     1       5.240   5.794  17.658  0.00  0.00    +0.000 C 
ATOM      2  C   UNL     1       6.448   6.739  17.319  0.00  0.00    +0.000 C 
ATOM      3  O   UNL     1       6.401   7.562  16.404  0.00  0.00    +0.000 OA
ATOM      4  N   UNL     1       7.567   6.694  18.108  0.00  0.00    +0.000 N 
ATOM      5  C   UNL     1       7.806   5.611  19.032  0.00  0.00    +0.000 C 
ATOM      6  C   UNL     1       6.515   5.215  19.722  0.00  0.00    +0.000 C 
ATOM      7  N   UNL     1       5.523   4.800  18.730  0.00  0.00    +0.000 N 
ATOM      8  C   UNL     1       4.814   3.648  19.028  0.00  0.00    +0.000 C 
ATOM      9  O   UNL     1       5.139   2.899  19.947  0.00  0.00    +0.000 OA
ATOM     10  H   UNL     1       8.352   7.225  17.750  0.00  0.00    +0.000 HD
ENDROOT
BRANCH   1  11
ATOM     11  C   UNL     1       4.723   5.274  16.309  0.00  0.00    +0.000 C 
BRANCH  11  12
ATOM     12  C   UNL     1       5.775   4.492  15.565  0.00  0.00    +0.000 C 
ATOM     13  O   UNL     1       6.509   3.642  16.051  0.00  0.00    +0.000 OA
BRANCH  12  15
ATOM     14  C   UNL     1       6.163   3.843  13.357  0.00  0.00    +0.000 C 
ATOM     15  O   UNL     1       5.801   4.887  14.261  0.00  0.00    +0.000 OA
ENDBRANCH  12  15
ENDBRANCH  11  12
ENDBRANCH   1  11
BRANCH   8  16
ATOM     16  O   UNL     1       3.745   3.422  18.227  0.00  0.00    +0.000 OA
BRANCH  16  17
ATOM     17  C   UNL     1       2.400   3.636  18.746  0.00  0.00    +0.000 C 
ATOM     18  C   UNL     1       1.472   4.277  17.703  0.00  0.00    +0.000 C 
ATOM     19  C   UNL     1       1.855   2.235  19.071  0.00  0.00    +0.000 C 
ATOM     20  C   UNL     1       2.442   4.444  20.052  0.00  0.00    +0.000 C 
ENDBRANCH  16  17
ENDBRANCH   8  16
TORSDOF 5
ENDMDL
MODEL 9
REMARK VINA RESULT:      -6.0      1.867      4.369
REMARK  Name = 
REMARK  9 active torsions:
REMARK  status: ('A' for Active; 'I' for Inactive)
REMARK    1  A    between atoms: C_1  and  O_2
REMARK    2  A    between atoms: O_2  and  C_3
REMARK    3  A    between atoms: C_3  and  C_5
REMARK    4  A    between atoms: C_5  and  C_6
REMARK    5  A    between atoms: C_13  and  O_15
REMARK    6  A    between atoms: O_15  and  C_16
REMARK    7  A    between atoms: C_16  and  C_17
REMARK    8  A    between atoms: C_16  and  C_18
REMARK    9  A    between atoms: C_16  and  C_19
REMARK                            x       y       z     vdW  Elec       q    Type
REMARK                         _______ _______ _______ _____ _____    ______ ____
ROOT
ATOM      1  C   UNL     1       4.649   5.987  17.811  0.00  0.00    +0.000 C 
ATOM      2  C   UNL     1       5.265   6.392  16.424  0.00  0.00    +0.000 C 
ATOM      3  O   UNL     1       4.854   7.358  15.779  0.00  0.00    +0.000 OA
ATOM      4  N   UNL     1       6.338   5.688  15.944  0.00  0.00    +0.000 N 
ATOM      5  C   UNL     1       6.723   4.412  16.498  0.00  0.00    +0.000 C 
ATOM      6  C   UNL     1       6.592   4.435  18.009  0.00  0.00    +0.000 C 
ATOM      7  N   UNL     1       5.211   4.734  18.387  0.00  0.00    +0.000 N 
ATOM      8  C   UNL     1       4.676   3.950  19.396  0.00  0.00    +0.000 C 
ATOM      9  O   UNL     1       5.234   2.931  19.798  0.00  0.00    +0.000 OA
ATOM     10  H   UNL     1       6.591   5.913  14.989  0.00  0.00    +0.000 HD
ENDROOT
BRANCH   1  11
ATOM     11  C   UNL     1       3.126   6.084  17.638  0.00  0.00    +0.000 C 
BRANCH  11  12
ATOM     12  C   UNL     1       2.570   7.351  18.236  0.00  0.00    +0.000 C 
ATOM     13  O   UNL     1       2.245   8.352  17.613  0.00  0.00    +0.000 OA
BRANCH  12  15
ATOM     14  C   UNL     1       1.653   8.193  20.210  0.00  0.00    +0.000 C 
ATOM     15  O   UNL     1       2.497   7.223  19.592  0.00  0.00    +0.000 OA
ENDBRANCH  12  15
ENDBRANCH  11  12
ENDBRANCH   1  11
BRANCH   8  16
ATOM     16  O   UNL     1       3.498   4.399  19.893  0.00  0.00    +0.000 OA
BRANCH  16  17
ATOM     17  C   UNL     1       2.413   3.455  20.132  0.00  0.00    +0.000 C 
ATOM     18  C   UNL     1       1.042   4.146  20.173  0.00  0.00    +0.000 C 
ATOM     19  C   UNL     1       2.427   2.497  18.928  0.00  0.00    +0.000 C 
ATOM     20  C   UNL     1       2.678   2.628  21.399  0.00  0.00    +0.000 C 
ENDBRANCH  16  17
ENDBRANCH   8  16
TORSDOF 5
ENDMDL
