MODEL 1
REMARK VINA RESULT:      -7.5      0.000      0.000
REMARK  Name = 
REMARK  4 active torsions:
REMARK  status: ('A' for Active; 'I' for Inactive)
REMARK    1  A    between atoms: C_2  and  C_3
REMARK    2  A    between atoms: C_3  and  N_4
REMARK    3  A    between atoms: N_9  and  C_10
REMARK    4  A    between atoms: C_10  and  C_11
REMARK                            x       y       z     vdW  Elec       q    Type
REMARK                         _______ _______ _______ _____ _____    ______ ____
ROOT
ATOM      1  C   UNL     1       5.644   4.293  19.113  0.00  0.00    +0.000 C 
ENDROOT
BRANCH   1   2
ATOM      2  C   UNL     1       4.125   3.955  19.038  0.00  0.00    +0.000 C 
ATOM      3  C   UNL     1       3.263   5.245  19.201  0.00  0.00    +0.000 C 
ATOM      4  C   UNL     1       1.762   4.896  19.110  0.00  0.00    +0.000 C 
ATOM      5  C   UNL     1       1.463   4.275  17.729  0.00  0.00    +0.000 C 
ATOM      6  C   UNL     1       2.298   2.990  17.550  0.00  0.00    +0.000 C 
ATOM      7  C   UNL     1       1.925   1.978  18.655  0.00  0.00    +0.000 C 
ATOM      8  C   UNL     1       2.227   2.594  20.038  0.00  0.00    +0.000 C 
ATOM      9  C   UNL     1       1.400   3.885  20.221  0.00  0.00    +0.000 C 
ATOM     10  C   UNL     1       3.731   2.926  20.139  0.00  0.00    +0.000 C 
ATOM     11  C   UNL     1       3.804   3.331  17.649  0.00  0.00    +0.000 C 
ENDBRANCH   1   2
BRANCH   1  14
ATOM     12  O   UNL     1       6.416   6.191  17.245  0.00  0.00    +0.000 OA
ATOM     13  C   UNL     1       6.694   5.026  17.003  0.00  0.00    +0.000 C 
ATOM     14  N   UNL     1       6.341   4.033  17.862  0.00  0.00    +0.000 N 
ATOM     15  H   UNL     1       6.612   3.071  17.618  0.00  0.00    +0.000 HD
BRANCH  13  16
ATOM     16  C   UNL     1       7.473   4.695  15.753  0.00  0.00    +0.000 C 
BRANCH  16  17
ATOM     17  N   UNL     1       6.794   5.239  14.554  0.00  0.00    +0.000 NA
ATOM     18  C   UNL     1       5.622   4.410  14.210  0.00  0.00    +0.000 C 
ATOM     19  C   UNL     1       6.114   3.421  13.166  0.00  0.00    +0.000 C 
ATOM     20  C   UNL     1       6.924   4.351  12.302  0.00  0.00    +0.000 C 
ATOM     21  C   UNL     1       7.673   5.159  13.354  0.00  0.00    +0.000 C 
ENDBRANCH  16  17
ENDBRANCH  13  16
ENDBRANCH   1  14
TORSDOF 4
ENDMDL
MODEL 2
REMARK VINA RESULT:      -7.4      0.232      1.742
REMARK  Name = 
REMARK  4 active torsions:
REMARK  status: ('A' for Active; 'I' for Inactive)
REMARK    1  A    between atoms: C_2  and  C_3
REMARK    2  A    between atoms: C_3  and  N_4
REMARK    3  A    between atoms: N_9  and  C_10
REMARK    4  A    between atoms: C_10  and  C_11
REMARK                            x       y       z     vdW  Elec       q    Type
REMARK                         _______ _______ _______ _____ _____    ______ ____
ROOT
ATOM      1  C   UNL     1       5.630   4.512  18.857  0.00  0.00    +0.000 C 
ENDROOT
BRANCH   1   2
ATOM      2  C   UNL     1       4.137   4.068  18.816  0.00  0.00    +0.000 C 
ATOM      3  C   UNL     1       3.856   2.975  19.893  0.00  0.00    +0.000 C 
ATOM      4  C   UNL     1       2.371   2.557  19.852  0.00  0.00    +0.000 C 
ATOM      5  C   UNL     1       1.484   3.783  20.153  0.00  0.00    +0.000 C 
ATOM      6  C   UNL     1       1.737   4.875  19.093  0.00  0.00    +0.000 C 
ATOM      7  C   UNL     1       1.385   4.323  17.695  0.00  0.00    +0.000 C 
ATOM      8  C   UNL     1       2.273   3.098  17.387  0.00  0.00    +0.000 C 
ATOM      9  C   UNL     1       2.031   2.004  18.450  0.00  0.00    +0.000 C 
ATOM     10  C   UNL     1       3.759   3.518  17.409  0.00  0.00    +0.000 C 
ATOM     11  C   UNL     1       3.227   5.293  19.123  0.00  0.00    +0.000 C 
ENDBRANCH   1   2
BRANCH   1  14
ATOM     12  O   UNL     1       6.603   6.379  17.054  0.00  0.00    +0.000 OA
ATOM     13  C   UNL     1       6.792   5.201  16.792  0.00  0.00    +0.000 C 
ATOM     14  N   UNL     1       6.336   4.222  17.618  0.00  0.00    +0.000 N 
ATOM     15  H   UNL     1       6.536   3.247  17.359  0.00  0.00    +0.000 HD
BRANCH  13  16
ATOM     16  C   UNL     1       7.574   4.834  15.554  0.00  0.00    +0.000 C 
BRANCH  16  17
ATOM     17  N   UNL     1       6.872   5.296  14.334  0.00  0.00    +0.000 NA
ATOM     18  C   UNL     1       5.661   4.485  14.103  0.00  0.00    +0.000 C 
ATOM     19  C   UNL     1       6.082   3.392  13.134  0.00  0.00    +0.000 C 
ATOM     20  C   UNL     1       6.892   4.213  12.166  0.00  0.00    +0.000 C 
ATOM     21  C   UNL     1       7.704   5.081  13.119  0.00  0.00    +0.000 C 
ENDBRANCH  16  17
ENDBRANCH  13  16
ENDBRANCH   1  14
TORSDOF 4
ENDMDL
MODEL 3
REMARK VINA RESULT:      -7.4      1.300      2.268
REMARK  Name = 
REMARK  4 active torsions:
REMARK  status: ('A' for Active; 'I' for Inactive)
REMARK    1  A    between atoms: C_2  and  C_3
REMARK    2  A    between atoms: C_3  and  N_4
REMARK    3  A    between atoms: N_9  and  C_10
REMARK    4  A    between atoms: C_10  and  C_11
REMARK                            x       y       z     vdW  Elec       q    Type
REMARK                         _______ _______ _______ _____ _____    ______ ____
ROOT
ATOM      1  C   UNL     1       3.271   6.234  18.665  0.00  0.00    +0.000 C 
ENDROOT
BRANCH   1   2
ATOM      2  C   UNL     1       2.726   4.858  19.150  0.00  0.00    +0.000 C 
ATOM      3  C   UNL     1       1.970   4.126  17.998  0.00  0.00    +0.000 C 
ATOM      4  C   UNL     1       1.450   2.758  18.488  0.00  0.00    +0.000 C 
ATOM      5  C   UNL     1       2.642   1.883  18.929  0.00  0.00    +0.000 C 
ATOM      6  C   UNL     1       3.398   2.583  20.077  0.00  0.00    +0.000 C 
ATOM      7  C   UNL     1       2.443   2.782  21.273  0.00  0.00    +0.000 C 
ATOM      8  C   UNL     1       1.251   3.661  20.838  0.00  0.00    +0.000 C 
ATOM      9  C   UNL     1       0.494   2.970  19.683  0.00  0.00    +0.000 C 
ATOM     10  C   UNL     1       1.768   5.037  20.365  0.00  0.00    +0.000 C 
ATOM     11  C   UNL     1       3.916   3.959  19.595  0.00  0.00    +0.000 C 
ENDBRANCH   1   2
BRANCH   1  14
ATOM     12  O   UNL     1       5.918   6.315  17.845  0.00  0.00    +0.000 OA
ATOM     13  C   UNL     1       5.067   6.231  16.973  0.00  0.00    +0.000 C 
ATOM     14  N   UNL     1       3.745   6.199  17.290  0.00  0.00    +0.000 N 
ATOM     15  H   UNL     1       3.070   6.113  16.519  0.00  0.00    +0.000 HD
BRANCH  13  16
ATOM     16  C   UNL     1       5.495   6.127  15.529  0.00  0.00    +0.000 C 
BRANCH  16  17
ATOM     17  N   UNL     1       6.055   4.786  15.244  0.00  0.00    +0.000 NA
ATOM     18  C   UNL     1       7.423   4.907  14.703  0.00  0.00    +0.000 C 
ATOM     19  C   UNL     1       7.267   4.879  13.192  0.00  0.00    +0.000 C 
ATOM     20  C   UNL     1       6.275   3.753  13.062  0.00  0.00    +0.000 C 
ATOM     21  C   UNL     1       5.288   4.098  14.170  0.00  0.00    +0.000 C 
ENDBRANCH  16  17
ENDBRANCH  13  16
ENDBRANCH   1  14
TORSDOF 4
ENDMDL
MODEL 4
REMARK VINA RESULT:      -7.4      0.424      1.790
REMARK  Name = 
REMARK  4 active torsions:
REMARK  status: ('A' for Active; 'I' for Inactive)
REMARK    1  A    between atoms: C_2  and  C_3
REMARK    2  A    between atoms: C_3  and  N_4
REMARK    3  A    between atoms: N_9  and  C_10
REMARK    4  A    between atoms: C_10  and  C_11
REMARK                            x       y       z     vdW  Elec       q    Type
REMARK                         _______ _______ _______ _____ _____    ______ ____
ROOT
ATOM      1  C   UNL     1       5.427   4.117  19.409  0.00  0.00    +0.000 C 
ENDROOT
BRANCH   1   2
ATOM      2  C   UNL     1       3.902   3.857  19.225  0.00  0.00    +0.000 C 
ATOM      3  C   UNL     1       3.627   3.107  17.885  0.00  0.00    +0.000 C 
ATOM      4  C   UNL     1       2.115   2.844  17.723  0.00  0.00    +0.000 C 
ATOM      5  C   UNL     1       1.620   1.964  18.890  0.00  0.00    +0.000 C 
ATOM      6  C   UNL     1       1.872   2.691  20.227  0.00  0.00    +0.000 C 
ATOM      7  C   UNL     1       1.101   4.029  20.235  0.00  0.00    +0.000 C 
ATOM      8  C   UNL     1       1.596   4.915  19.072  0.00  0.00    +0.000 C 
ATOM      9  C   UNL     1       1.355   4.188  17.730  0.00  0.00    +0.000 C 
ATOM     10  C   UNL     1       3.105   5.195  19.242  0.00  0.00    +0.000 C 
ATOM     11  C   UNL     1       3.385   2.967  20.392  0.00  0.00    +0.000 C 
ENDBRANCH   1   2
BRANCH   1  14
ATOM     12  O   UNL     1       6.373   6.162  17.795  0.00  0.00    +0.000 OA
ATOM     13  C   UNL     1       6.617   5.017  17.444  0.00  0.00    +0.000 C 
ATOM     14  N   UNL     1       6.178   3.957  18.174  0.00  0.00    +0.000 N 
ATOM     15  H   UNL     1       6.424   3.015  17.843  0.00  0.00    +0.000 HD
BRANCH  13  16
ATOM     16  C   UNL     1       7.448   4.784  16.205  0.00  0.00    +0.000 C 
BRANCH  16  17
ATOM     17  N   UNL     1       6.779   5.352  15.012  0.00  0.00    +0.000 NA
ATOM     18  C   UNL     1       5.499   4.660  14.764  0.00  0.00    +0.000 C 
ATOM     19  C   UNL     1       5.814   3.572  13.751  0.00  0.00    +0.000 C 
ATOM     20  C   UNL     1       6.686   4.354  12.805  0.00  0.00    +0.000 C 
ATOM     21  C   UNL     1       7.580   5.110  13.780  0.00  0.00    +0.000 C 
ENDBRANCH  16  17
ENDBRANCH  13  16
ENDBRANCH   1  14
TORSDOF 4
ENDMDL
MODEL 5
REMARK VINA RESULT:      -7.4      1.298      2.559
REMARK  Name = 
REMARK  4 active torsions:
REMARK  status: ('A' for Active; 'I' for Inactive)
REMARK    1  A    between atoms: C_2  and  C_3
REMARK    2  A    between atoms: C_3  and  N_4
REMARK    3  A    between atoms: N_9  and  C_10
REMARK    4  A    between atoms: C_10  and  C_11
REMARK                            x       y       z     vdW  Elec       q    Type
REMARK                         _______ _______ _______ _____ _____    ______ ____
ROOT
ATOM      1  C   UNL     1       3.336   6.211  18.726  0.00  0.00    +0.000 C 
ENDROOT
BRANCH   1   2
ATOM      2  C   UNL     1       2.786   4.843  19.228  0.00  0.00    +0.000 C 
ATOM      3  C   UNL     1       3.956   3.880  19.599  0.00  0.00    +0.000 C 
ATOM      4  C   UNL     1       3.396   2.535  20.109  0.00  0.00    +0.000 C 
ATOM      5  C   UNL     1       2.542   2.780  21.371  0.00  0.00    +0.000 C 
ATOM      6  C   UNL     1       1.370   3.722  21.025  0.00  0.00    +0.000 C 
ATOM      7  C   UNL     1       0.493   3.070  19.934  0.00  0.00    +0.000 C 
ATOM      8  C   UNL     1       1.343   2.827  18.669  0.00  0.00    +0.000 C 
ATOM      9  C   UNL     1       2.523   1.890  19.010  0.00  0.00    +0.000 C 
ATOM     10  C   UNL     1       1.888   4.173  18.145  0.00  0.00    +0.000 C 
ATOM     11  C   UNL     1       1.924   5.070  20.504  0.00  0.00    +0.000 C 
ENDBRANCH   1   2
BRANCH   1  14
ATOM     12  O   UNL     1       5.949   6.316  17.808  0.00  0.00    +0.000 OA
ATOM     13  C   UNL     1       5.068   6.216  16.968  0.00  0.00    +0.000 C 
ATOM     14  N   UNL     1       3.759   6.171  17.334  0.00  0.00    +0.000 N 
ATOM     15  H   UNL     1       3.057   6.071  16.589  0.00  0.00    +0.000 HD
BRANCH  13  16
ATOM     16  C   UNL     1       5.443   6.105  15.510  0.00  0.00    +0.000 C 
BRANCH  16  17
ATOM     17  N   UNL     1       5.979   4.758  15.208  0.00  0.00    +0.000 NA
ATOM     18  C   UNL     1       7.382   4.853  14.761  0.00  0.00    +0.000 C 
ATOM     19  C   UNL     1       7.324   4.889  13.242  0.00  0.00    +0.000 C 
ATOM     20  C   UNL     1       6.309   3.803  13.004  0.00  0.00    +0.000 C 
ATOM     21  C   UNL     1       5.262   4.138  14.059  0.00  0.00    +0.000 C 
ENDBRANCH  16  17
ENDBRANCH  13  16
ENDBRANCH   1  14
TORSDOF 4
ENDMDL
MODEL 6
REMARK VINA RESULT:      -7.3      1.011      1.999
REMARK  Name = 
REMARK  4 active torsions:
REMARK  status: ('A' for Active; 'I' for Inactive)
REMARK    1  A    between atoms: C_2  and  C_3
REMARK    2  A    between atoms: C_3  and  N_4
REMARK    3  A    between atoms: N_9  and  C_10
REMARK    4  A    between atoms: C_10  and  C_11
REMARK                            x       y       z     vdW  Elec       q    Type
REMARK                         _______ _______ _______ _____ _____    ______ ____
ROOT
ATOM      1  C   UNL     1       5.242   3.655  19.811  0.00  0.00    +0.000 C 
ENDROOT
BRANCH   1   2
ATOM      2  C   UNL     1       3.715   3.615  19.505  0.00  0.00    +0.000 C 
ATOM      3  C   UNL     1       2.945   2.859  20.633  0.00  0.00    +0.000 C 
ATOM      4  C   UNL     1       1.433   2.840  20.324  0.00  0.00    +0.000 C 
ATOM      5  C   UNL     1       0.905   4.288  20.254  0.00  0.00    +0.000 C 
ATOM      6  C   UNL     1       1.646   5.053  19.136  0.00  0.00    +0.000 C 
ATOM      7  C   UNL     1       1.394   4.353  17.783  0.00  0.00    +0.000 C 
ATOM      8  C   UNL     1       1.925   2.905  17.848  0.00  0.00    +0.000 C 
ATOM      9  C   UNL     1       1.193   2.136  18.970  0.00  0.00    +0.000 C 
ATOM     10  C   UNL     1       3.441   2.922  18.137  0.00  0.00    +0.000 C 
ATOM     11  C   UNL     1       3.164   5.069  19.435  0.00  0.00    +0.000 C 
ENDBRANCH   1   2
BRANCH   1  14
ATOM     12  O   UNL     1       6.720   5.826  18.925  0.00  0.00    +0.000 OA
ATOM     13  C   UNL     1       6.762   4.810  18.248  0.00  0.00    +0.000 C 
ATOM     14  N   UNL     1       6.056   3.705  18.606  0.00  0.00    +0.000 N 
ATOM     15  H   UNL     1       6.138   2.871  18.010  0.00  0.00    +0.000 HD
BRANCH  13  16
ATOM     16  C   UNL     1       7.638   4.775  17.019  0.00  0.00    +0.000 C 
BRANCH  16  17
ATOM     17  N   UNL     1       6.995   5.495  15.896  0.00  0.00    +0.000 NA
ATOM     18  C   UNL     1       5.527   5.395  15.997  0.00  0.00    +0.000 C 
ATOM     19  C   UNL     1       5.138   4.213  15.124  0.00  0.00    +0.000 C 
ATOM     20  C   UNL     1       6.004   4.492  13.924  0.00  0.00    +0.000 C 
ATOM     21  C   UNL     1       7.324   4.860  14.590  0.00  0.00    +0.000 C 
ENDBRANCH  16  17
ENDBRANCH  13  16
ENDBRANCH   1  14
TORSDOF 4
ENDMDL
MODEL 7
REMARK VINA RESULT:      -7.3      1.081      1.681
REMARK  Name = 
REMARK  4 active torsions:
REMARK  status: ('A' for Active; 'I' for Inactive)
REMARK    1  A    between atoms: C_2  and  C_3
REMARK    2  A    between atoms: C_3  and  N_4
REMARK    3  A    between atoms: N_9  and  C_10
REMARK    4  A    between atoms: C_10  and  C_11
REMARK                            x       y       z     vdW  Elec       q    Type
REMARK                         _______ _______ _______ _____ _____    ______ ____
ROOT
ATOM      1  C   UNL     1       4.399   5.493  18.180  0.00  0.00    +0.000 C 
ENDROOT
BRANCH   1   2
ATOM      2  C   UNL     1       3.402   4.550  18.918  0.00  0.00    +0.000 C 
ATOM      3  C   UNL     1       2.174   4.226  18.011  0.00  0.00    +0.000 C 
ATOM      4  C   UNL     1       1.204   3.279  18.749  0.00  0.00    +0.000 C 
ATOM      5  C   UNL     1       1.930   1.959  19.084  0.00  0.00    +0.000 C 
ATOM      6  C   UNL     1       3.144   2.254  19.990  0.00  0.00    +0.000 C 
ATOM      7  C   UNL     1       2.657   2.914  21.298  0.00  0.00    +0.000 C 
ATOM      8  C   UNL     1       1.934   4.238  20.968  0.00  0.00    +0.000 C 
ATOM      9  C   UNL     1       0.722   3.950  20.054  0.00  0.00    +0.000 C 
ATOM     10  C   UNL     1       2.908   5.194  20.247  0.00  0.00    +0.000 C 
ATOM     11  C   UNL     1       4.117   3.210  19.260  0.00  0.00    +0.000 C 
ENDBRANCH   1   2
BRANCH   1  14
ATOM     12  O   UNL     1       7.057   4.889  17.676  0.00  0.00    +0.000 OA
ATOM     13  C   UNL     1       6.250   4.630  16.795  0.00  0.00    +0.000 C 
ATOM     14  N   UNL     1       4.929   4.907  16.959  0.00  0.00    +0.000 N 
ATOM     15  H   UNL     1       4.289   4.656  16.193  0.00  0.00    +0.000 HD
BRANCH  13  16
ATOM     16  C   UNL     1       6.726   3.963  15.528  0.00  0.00    +0.000 C 
BRANCH  16  17
ATOM     17  N   UNL     1       6.354   4.767  14.341  0.00  0.00    +0.000 NA
ATOM     18  C   UNL     1       5.412   4.017  13.489  0.00  0.00    +0.000 C 
ATOM     19  C   UNL     1       6.269   3.333  12.437  0.00  0.00    +0.000 C 
ATOM     20  C   UNL     1       7.190   4.470  12.085  0.00  0.00    +0.000 C 
ATOM     21  C   UNL     1       7.535   5.013  13.466  0.00  0.00    +0.000 C 
ENDBRANCH  16  17
ENDBRANCH  13  16
ENDBRANCH   1  14
TORSDOF 4
ENDMDL
MODEL 8
REMARK VINA RESULT:      -7.3      1.096      2.181
REMARK  Name = 
REMARK  4 active torsions:
REMARK  status: ('A' for Active; 'I' for Inactive)
REMARK    1  A    between atoms: C_2  and  C_3
REMARK    2  A    between atoms: C_3  and  N_4
REMARK    3  A    between atoms: N_9  and  C_10
REMARK    4  A    between atoms: C_10  and  C_11
REMARK                            x       y       z     vdW  Elec       q    Type
REMARK                         _______ _______ _______ _____ _____    ______ ____
ROOT
ATOM      1  C   UNL     1       4.277   5.508  17.997  0.00  0.00    +0.000 C 
ENDROOT
BRANCH   1   2
ATOM      2  C   UNL     1       3.344   4.542  18.786  0.00  0.00    +0.000 C 
ATOM      3  C   UNL     1       4.069   3.193  19.082  0.00  0.00    +0.000 C 
ATOM      4  C   UNL     1       3.139   2.253  19.877  0.00  0.00    +0.000 C 
ATOM      5  C   UNL     1       2.765   2.915  21.219  0.00  0.00    +0.000 C 
ATOM      6  C   UNL     1       2.036   4.248  20.951  0.00  0.00    +0.000 C 
ATOM      7  C   UNL     1       0.749   3.974  20.142  0.00  0.00    +0.000 C 
ATOM      8  C   UNL     1       1.119   3.315  18.796  0.00  0.00    +0.000 C 
ATOM      9  C   UNL     1       1.857   1.984  19.058  0.00  0.00    +0.000 C 
ATOM     10  C   UNL     1       2.034   4.262  17.991  0.00  0.00    +0.000 C 
ATOM     11  C   UNL     1       2.960   5.193  20.146  0.00  0.00    +0.000 C 
ENDBRANCH   1   2
BRANCH   1  14
ATOM     12  O   UNL     1       6.955   4.964  17.531  0.00  0.00    +0.000 OA
ATOM     13  C   UNL     1       6.163   4.655  16.653  0.00  0.00    +0.000 C 
ATOM     14  N   UNL     1       4.834   4.899  16.798  0.00  0.00    +0.000 N 
ATOM     15  H   UNL     1       4.208   4.606  16.036  0.00  0.00    +0.000 HD
BRANCH  13  16
ATOM     16  C   UNL     1       6.668   3.962  15.411  0.00  0.00    +0.000 C 
BRANCH  16  17
ATOM     17  N   UNL     1       6.326   4.742  14.200  0.00  0.00    +0.000 NA
ATOM     18  C   UNL     1       5.401   3.977  13.342  0.00  0.00    +0.000 C 
ATOM     19  C   UNL     1       6.281   3.269  12.324  0.00  0.00    +0.000 C 
ATOM     20  C   UNL     1       7.213   4.397  11.970  0.00  0.00    +0.000 C 
ATOM     21  C   UNL     1       7.527   4.967  13.348  0.00  0.00    +0.000 C 
ENDBRANCH  16  17
ENDBRANCH  13  16
ENDBRANCH   1  14
TORSDOF 4
ENDMDL
MODEL 9
REMARK VINA RESULT:      -7.3      4.431      6.683
REMARK  Name = 
REMARK  4 active torsions:
REMARK  status: ('A' for Active; 'I' for Inactive)
REMARK    1  A    between atoms: C_2  and  C_3
REMARK    2  A    between atoms: C_3  and  N_4
REMARK    3  A    between atoms: N_9  and  C_10
REMARK    4  A    between atoms: C_10  and  C_11
REMARK                            x       y       z     vdW  Elec       q    Type
REMARK                         _______ _______ _______ _____ _____    ______ ____
ROOT
ATOM      1  C   UNL     1       3.032   6.564  18.644  0.00  0.00    +0.000 C 
ENDROOT
BRANCH   1   2
ATOM      2  C   UNL     1       2.628   5.121  19.070  0.00  0.00    +0.000 C 
ATOM      3  C   UNL     1       1.815   4.418  17.939  0.00  0.00    +0.000 C 
ATOM      4  C   UNL     1       1.435   2.985  18.369  0.00  0.00    +0.000 C 
ATOM      5  C   UNL     1       2.719   2.170  18.631  0.00  0.00    +0.000 C 
ATOM      6  C   UNL     1       3.535   2.842  19.755  0.00  0.00    +0.000 C 
ATOM      7  C   UNL     1       2.689   2.887  21.045  0.00  0.00    +0.000 C 
ATOM      8  C   UNL     1       1.405   3.705  20.789  0.00  0.00    +0.000 C 
ATOM      9  C   UNL     1       0.587   3.043  19.659  0.00  0.00    +0.000 C 
ATOM     10  C   UNL     1       1.782   5.144  20.378  0.00  0.00    +0.000 C 
ATOM     11  C   UNL     1       3.912   4.282  19.334  0.00  0.00    +0.000 C 
ENDBRANCH   1   2
BRANCH   1  14
ATOM     12  O   UNL     1       2.149   8.913  17.467  0.00  0.00    +0.000 OA
ATOM     13  C   UNL     1       1.814   8.710  18.625  0.00  0.00    +0.000 C 
ATOM     14  N   UNL     1       2.216   7.587  19.278  0.00  0.00    +0.000 N 
ATOM     15  H   UNL     1       1.894   7.457  20.247  0.00  0.00    +0.000 HD
BRANCH  13  16
ATOM     16  C   UNL     1       0.915   9.703  19.321  0.00  0.00    +0.000 C 
BRANCH  16  17
ATOM     17  N   UNL     1       0.275  10.608  18.339  0.00  0.00    +0.000 NA
ATOM     18  C   UNL     1       0.129  11.961  18.909  0.00  0.00    +0.000 C 
ATOM     19  C   UNL     1      -1.277  12.011  19.484  0.00  0.00    +0.000 C 
ATOM     20  C   UNL     1      -2.032  11.353  18.360  0.00  0.00    +0.000 C 
ATOM     21  C   UNL     1      -1.118  10.178  18.036  0.00  0.00    +0.000 C 
ENDBRANCH  16  17
ENDBRANCH  13  16
ENDBRANCH   1  14
TORSDOF 4
ENDMDL
