MODEL 1
REMARK VINA RESULT:      -6.0      0.000      0.000
REMARK  Name = 
REMARK  8 active torsions:
REMARK  status: ('A' for Active; 'I' for Inactive)
REMARK    1  A    between atoms: C_1  and  N_2
REMARK    2  A    between atoms: N_2  and  C_3
REMARK    3  A    between atoms: C_3  and  C_4
REMARK    4  A    between atoms: C_5  and  C_6
REMARK    5  A    between atoms: C_6  and  O_7
REMARK    6  A    between atoms: O_7  and  C_8
REMARK    7  A    between atoms: C_12  and  C_13
REMARK    8  A    between atoms: C_14  and  C_15
REMARK                            x       y       z     vdW  Elec       q    Type
REMARK                         _______ _______ _______ _____ _____    ______ ____
ROOT
ATOM      1  O   UNL     1       4.799   3.577  16.805  0.00  0.00    +0.000 OA
ENDROOT
BRANCH   1   2
ATOM      2  C   UNL     1       3.960   4.328  17.595  0.00  0.00    +0.000 A 
ATOM      3  C   UNL     1       4.073   5.712  17.762  0.00  0.00    +0.000 A 
ATOM      4  C   UNL     1       3.180   6.401  18.579  0.00  0.00    +0.000 A 
ATOM      5  C   UNL     1       2.171   5.713  19.242  0.00  0.00    +0.000 A 
ATOM      6  C   UNL     1       2.036   4.322  19.101  0.00  0.00    +0.000 A 
ATOM      7  C   UNL     1       0.927   3.635  19.850  0.00  0.00    +0.000 C 
ATOM      8  C   UNL     1       2.936   3.619  18.266  0.00  0.00    +0.000 A 
ATOM      9  C   UNL     1       2.829   2.127  18.063  0.00  0.00    +0.000 C 
ENDBRANCH   1   2
BRANCH   1  10
ATOM     10  C   UNL     1       5.960   4.237  16.304  0.00  0.00    +0.000 C 
BRANCH  10  12
ATOM     11  C   UNL     1       6.222   3.718  13.540  0.00  0.00    +0.000 C 
ATOM     12  C   UNL     1       6.101   3.958  14.816  0.00  0.00    +0.000 C 
BRANCH  11  13
ATOM     13  C   UNL     1       6.369   3.441  12.106  0.00  0.00    +0.000 C 
BRANCH  13  15
ATOM     14  C   UNL     1       6.790   1.348  11.004  0.00  0.00    +0.000 C 
ATOM     15  N   UNL     1       5.845   2.113  11.804  0.00  0.00    +0.000 NA
ATOM     16  H   UNL     1       5.670   1.626  12.682  0.00  0.00    +0.000 HD
ENDBRANCH  13  15
ENDBRANCH  11  13
ENDBRANCH  10  12
ENDBRANCH   1  10
TORSDOF 5
ENDMDL
MODEL 2
REMARK VINA RESULT:      -5.9      3.252      4.405
REMARK  Name = 
REMARK  8 active torsions:
REMARK  status: ('A' for Active; 'I' for Inactive)
REMARK    1  A    between atoms: C_1  and  N_2
REMARK    2  A    between atoms: N_2  and  C_3
REMARK    3  A    between atoms: C_3  and  C_4
REMARK    4  A    between atoms: C_5  and  C_6
REMARK    5  A    between atoms: C_6  and  O_7
REMARK    6  A    between atoms: O_7  and  C_8
REMARK    7  A    between atoms: C_12  and  C_13
REMARK    8  A    between atoms: C_14  and  C_15
REMARK                            x       y       z     vdW  Elec       q    Type
REMARK                         _______ _______ _______ _____ _____    ______ ____
ROOT
ATOM      1  O   UNL     1       2.068   5.966  17.943  0.00  0.00    +0.000 OA
ENDROOT
BRANCH   1   2
ATOM      2  C   UNL     1       2.079   4.641  18.315  0.00  0.00    +0.000 A 
ATOM      3  C   UNL     1       2.335   3.584  17.436  0.00  0.00    +0.000 A 
ATOM      4  C   UNL     1       2.331   2.268  17.893  0.00  0.00    +0.000 A 
ATOM      5  C   UNL     1       2.063   1.997  19.229  0.00  0.00    +0.000 A 
ATOM      6  C   UNL     1       1.795   3.036  20.134  0.00  0.00    +0.000 A 
ATOM      7  C   UNL     1       1.506   2.676  21.566  0.00  0.00    +0.000 C 
ATOM      8  C   UNL     1       1.806   4.375  19.677  0.00  0.00    +0.000 A 
ATOM      9  C   UNL     1       1.542   5.533  20.607  0.00  0.00    +0.000 C 
ENDBRANCH   1   2
BRANCH   1  10
ATOM     10  C   UNL     1       3.224   6.730  18.278  0.00  0.00    +0.000 C 
BRANCH  10  12
ATOM     11  C   UNL     1       5.537   5.405  17.346  0.00  0.00    +0.000 C 
ATOM     12  C   UNL     1       4.469   6.018  17.776  0.00  0.00    +0.000 C 
BRANCH  11  13
ATOM     13  C   UNL     1       6.742   4.713  16.873  0.00  0.00    +0.000 C 
BRANCH  13  15
ATOM     14  C   UNL     1       7.864   5.538  18.831  0.00  0.00    +0.000 C 
ATOM     15  N   UNL     1       7.590   4.368  18.010  0.00  0.00    +0.000 NA
ATOM     16  H   UNL     1       7.111   3.664  18.570  0.00  0.00    +0.000 HD
ENDBRANCH  13  15
ENDBRANCH  11  13
ENDBRANCH  10  12
ENDBRANCH   1  10
TORSDOF 5
ENDMDL
MODEL 3
REMARK VINA RESULT:      -5.8      2.325      3.621
REMARK  Name = 
REMARK  8 active torsions:
REMARK  status: ('A' for Active; 'I' for Inactive)
REMARK    1  A    between atoms: C_1  and  N_2
REMARK    2  A    between atoms: N_2  and  C_3
REMARK    3  A    between atoms: C_3  and  C_4
REMARK    4  A    between atoms: C_5  and  C_6
REMARK    5  A    between atoms: C_6  and  O_7
REMARK    6  A    between atoms: O_7  and  C_8
REMARK    7  A    between atoms: C_12  and  C_13
REMARK    8  A    between atoms: C_14  and  C_15
REMARK                            x       y       z     vdW  Elec       q    Type
REMARK                         _______ _______ _______ _____ _____    ______ ____
ROOT
ATOM      1  O   UNL     1       2.201   6.027  17.937  0.00  0.00    +0.000 OA
ENDROOT
BRANCH   1   2
ATOM      2  C   UNL     1       2.130   4.707  18.319  0.00  0.00    +0.000 A 
ATOM      3  C   UNL     1       2.294   3.629  17.442  0.00  0.00    +0.000 A 
ATOM      4  C   UNL     1       2.211   2.320  17.909  0.00  0.00    +0.000 A 
ATOM      5  C   UNL     1       1.954   2.076  19.253  0.00  0.00    +0.000 A 
ATOM      6  C   UNL     1       1.777   3.137  20.156  0.00  0.00    +0.000 A 
ATOM      7  C   UNL     1       1.496   2.806  21.597  0.00  0.00    +0.000 C 
ATOM      8  C   UNL     1       1.869   4.468  19.688  0.00  0.00    +0.000 A 
ATOM      9  C   UNL     1       1.704   5.648  20.615  0.00  0.00    +0.000 C 
ENDBRANCH   1   2
BRANCH   1  10
ATOM     10  C   UNL     1       3.443   6.689  18.163  0.00  0.00    +0.000 C 
BRANCH  10  12
ATOM     11  C   UNL     1       5.526   5.234  16.930  0.00  0.00    +0.000 C 
ATOM     12  C   UNL     1       4.564   5.906  17.499  0.00  0.00    +0.000 C 
BRANCH  11  13
ATOM     13  C   UNL     1       6.608   4.468  16.298  0.00  0.00    +0.000 C 
BRANCH  13  15
ATOM     14  C   UNL     1       7.164   4.877  13.997  0.00  0.00    +0.000 C 
ATOM     15  N   UNL     1       7.341   5.324  15.370  0.00  0.00    +0.000 NA
ATOM     16  H   UNL     1       6.993   6.277  15.465  0.00  0.00    +0.000 HD
ENDBRANCH  13  15
ENDBRANCH  11  13
ENDBRANCH  10  12
ENDBRANCH   1  10
TORSDOF 5
ENDMDL
MODEL 4
REMARK VINA RESULT:      -5.8      1.463      2.082
REMARK  Name = 
REMARK  8 active torsions:
REMARK  status: ('A' for Active; 'I' for Inactive)
REMARK    1  A    between atoms: C_1  and  N_2
REMARK    2  A    between atoms: N_2  and  C_3
REMARK    3  A    between atoms: C_3  and  C_4
REMARK    4  A    between atoms: C_5  and  C_6
REMARK    5  A    between atoms: C_6  and  O_7
REMARK    6  A    between atoms: O_7  and  C_8
REMARK    7  A    between atoms: C_12  and  C_13
REMARK    8  A    between atoms: C_14  and  C_15
REMARK                            x       y       z     vdW  Elec       q    Type
REMARK                         _______ _______ _______ _____ _____    ______ ____
ROOT
ATOM      1  O   UNL     1       3.889   3.612  16.710  0.00  0.00    +0.000 OA
ENDROOT
BRANCH   1   2
ATOM      2  C   UNL     1       3.640   3.323  18.032  0.00  0.00    +0.000 A 
ATOM      3  C   UNL     1       4.534   2.641  18.864  0.00  0.00    +0.000 A 
ATOM      4  C   UNL     1       4.209   2.389  20.195  0.00  0.00    +0.000 A 
ATOM      5  C   UNL     1       2.985   2.808  20.703  0.00  0.00    +0.000 A 
ATOM      6  C   UNL     1       2.064   3.488  19.890  0.00  0.00    +0.000 A 
ATOM      7  C   UNL     1       0.754   3.911  20.499  0.00  0.00    +0.000 C 
ATOM      8  C   UNL     1       2.393   3.754  18.541  0.00  0.00    +0.000 A 
ATOM      9  C   UNL     1       1.450   4.495  17.625  0.00  0.00    +0.000 C 
ENDBRANCH   1   2
BRANCH   1  10
ATOM     10  C   UNL     1       4.966   4.509  16.447  0.00  0.00    +0.000 C 
BRANCH  10  12
ATOM     11  C   UNL     1       6.048   3.963  13.896  0.00  0.00    +0.000 C 
ATOM     12  C   UNL     1       5.548   4.215  15.074  0.00  0.00    +0.000 C 
BRANCH  11  13
ATOM     13  C   UNL     1       6.623   3.680  12.575  0.00  0.00    +0.000 C 
BRANCH  13  15
ATOM     14  C   UNL     1       4.514   3.143  11.556  0.00  0.00    +0.000 C 
ATOM     15  N   UNL     1       5.837   2.648  11.907  0.00  0.00    +0.000 NA
ATOM     16  H   UNL     1       6.329   2.363  11.061  0.00  0.00    +0.000 HD
ENDBRANCH  13  15
ENDBRANCH  11  13
ENDBRANCH  10  12
ENDBRANCH   1  10
TORSDOF 5
ENDMDL
MODEL 5
REMARK VINA RESULT:      -5.8      1.655      2.303
REMARK  Name = 
REMARK  8 active torsions:
REMARK  status: ('A' for Active; 'I' for Inactive)
REMARK    1  A    between atoms: C_1  and  N_2
REMARK    2  A    between atoms: N_2  and  C_3
REMARK    3  A    between atoms: C_3  and  C_4
REMARK    4  A    between atoms: C_5  and  C_6
REMARK    5  A    between atoms: C_6  and  O_7
REMARK    6  A    between atoms: O_7  and  C_8
REMARK    7  A    between atoms: C_12  and  C_13
REMARK    8  A    between atoms: C_14  and  C_15
REMARK                            x       y       z     vdW  Elec       q    Type
REMARK                         _______ _______ _______ _____ _____    ______ ____
ROOT
ATOM      1  O   UNL     1       5.068   3.965  19.254  0.00  0.00    +0.000 OA
ENDROOT
BRANCH   1   2
ATOM      2  C   UNL     1       3.729   4.074  19.551  0.00  0.00    +0.000 A 
ATOM      3  C   UNL     1       3.181   5.105  20.322  0.00  0.00    +0.000 A 
ATOM      4  C   UNL     1       1.812   5.145  20.576  0.00  0.00    +0.000 A 
ATOM      5  C   UNL     1       0.981   4.153  20.069  0.00  0.00    +0.000 A 
ATOM      6  C   UNL     1       1.503   3.102  19.298  0.00  0.00    +0.000 A 
ATOM      7  C   UNL     1       0.551   2.056  18.783  0.00  0.00    +0.000 C 
ATOM      8  C   UNL     1       2.891   3.061  19.030  0.00  0.00    +0.000 A 
ATOM      9  C   UNL     1       3.506   1.965  18.194  0.00  0.00    +0.000 C 
ENDBRANCH   1   2
BRANCH   1  10
ATOM     10  C   UNL     1       5.695   5.123  18.706  0.00  0.00    +0.000 C 
BRANCH  10  12
ATOM     11  C   UNL     1       5.711   4.945  15.888  0.00  0.00    +0.000 C 
ATOM     12  C   UNL     1       5.704   5.028  17.190  0.00  0.00    +0.000 C 
BRANCH  11  13
ATOM     13  C   UNL     1       5.712   4.843  14.423  0.00  0.00    +0.000 C 
BRANCH  13  15
ATOM     14  C   UNL     1       6.225   3.399  12.573  0.00  0.00    +0.000 C 
ATOM     15  N   UNL     1       6.260   3.552  14.020  0.00  0.00    +0.000 NA
ATOM     16  H   UNL     1       7.224   3.493  14.345  0.00  0.00    +0.000 HD
ENDBRANCH  13  15
ENDBRANCH  11  13
ENDBRANCH  10  12
ENDBRANCH   1  10
TORSDOF 5
ENDMDL
MODEL 6
REMARK VINA RESULT:      -5.7      0.923      1.071
REMARK  Name = 
REMARK  8 active torsions:
REMARK  status: ('A' for Active; 'I' for Inactive)
REMARK    1  A    between atoms: C_1  and  N_2
REMARK    2  A    between atoms: N_2  and  C_3
REMARK    3  A    between atoms: C_3  and  C_4
REMARK    4  A    between atoms: C_5  and  C_6
REMARK    5  A    between atoms: C_6  and  O_7
REMARK    6  A    between atoms: O_7  and  C_8
REMARK    7  A    between atoms: C_12  and  C_13
REMARK    8  A    between atoms: C_14  and  C_15
REMARK                            x       y       z     vdW  Elec       q    Type
REMARK                         _______ _______ _______ _____ _____    ______ ____
ROOT
ATOM      1  O   UNL     1       5.423   4.436  16.744  0.00  0.00    +0.000 OA
ENDROOT
BRANCH   1   2
ATOM      2  C   UNL     1       4.299   4.911  17.379  0.00  0.00    +0.000 A 
ATOM      3  C   UNL     1       4.032   6.269  17.585  0.00  0.00    +0.000 A 
ATOM      4  C   UNL     1       2.868   6.670  18.236  0.00  0.00    +0.000 A 
ATOM      5  C   UNL     1       1.965   5.718  18.694  0.00  0.00    +0.000 A 
ATOM      6  C   UNL     1       2.208   4.347  18.509  0.00  0.00    +0.000 A 
ATOM      7  C   UNL     1       1.194   3.367  19.034  0.00  0.00    +0.000 C 
ATOM      8  C   UNL     1       3.385   3.936  17.841  0.00  0.00    +0.000 A 
ATOM      9  C   UNL     1       3.692   2.478  17.600  0.00  0.00    +0.000 C 
ENDBRANCH   1   2
BRANCH   1  10
ATOM     10  C   UNL     1       6.052   5.319  15.818  0.00  0.00    +0.000 C 
BRANCH  10  12
ATOM     11  C   UNL     1       6.416   3.998  13.348  0.00  0.00    +0.000 C 
ATOM     12  C   UNL     1       6.247   4.608  14.489  0.00  0.00    +0.000 C 
BRANCH  11  13
ATOM     13  C   UNL     1       6.616   3.318  12.063  0.00  0.00    +0.000 C 
BRANCH  13  15
ATOM     14  C   UNL     1       4.310   3.117  11.418  0.00  0.00    +0.000 C 
ATOM     15  N   UNL     1       5.511   2.397  11.815  0.00  0.00    +0.000 NA
ATOM     16  H   UNL     1       5.785   1.756  11.072  0.00  0.00    +0.000 HD
ENDBRANCH  13  15
ENDBRANCH  11  13
ENDBRANCH  10  12
ENDBRANCH   1  10
TORSDOF 5
ENDMDL
MODEL 7
REMARK VINA RESULT:      -5.7      2.080      3.057
REMARK  Name = 
REMARK  8 active torsions:
REMARK  status: ('A' for Active; 'I' for Inactive)
REMARK    1  A    between atoms: C_1  and  N_2
REMARK    2  A    between atoms: N_2  and  C_3
REMARK    3  A    between atoms: C_3  and  C_4
REMARK    4  A    between atoms: C_5  and  C_6
REMARK    5  A    between atoms: C_6  and  O_7
REMARK    6  A    between atoms: O_7  and  C_8
REMARK    7  A    between atoms: C_12  and  C_13
REMARK    8  A    between atoms: C_14  and  C_15
REMARK                            x       y       z     vdW  Elec       q    Type
REMARK                         _______ _______ _______ _____ _____    ______ ____
ROOT
ATOM      1  O   UNL     1       6.417   3.651  15.648  0.00  0.00    +0.000 OA
ENDROOT
BRANCH   1   2
ATOM      2  C   UNL     1       6.466   4.278  16.872  0.00  0.00    +0.000 A 
ATOM      3  C   UNL     1       7.643   4.758  17.457  0.00  0.00    +0.000 A 
ATOM      4  C   UNL     1       7.609   5.385  18.701  0.00  0.00    +0.000 A 
ATOM      5  C   UNL     1       6.401   5.531  19.373  0.00  0.00    +0.000 A 
ATOM      6  C   UNL     1       5.204   5.053  18.814  0.00  0.00    +0.000 A 
ATOM      7  C   UNL     1       3.931   5.236  19.595  0.00  0.00    +0.000 C 
ATOM      8  C   UNL     1       5.233   4.423  17.548  0.00  0.00    +0.000 A 
ATOM      9  C   UNL     1       3.977   3.905  16.892  0.00  0.00    +0.000 C 
ENDBRANCH   1   2
BRANCH   1  10
ATOM     10  C   UNL     1       6.611   4.477  14.502  0.00  0.00    +0.000 C 
BRANCH  10  12
ATOM     11  C   UNL     1       5.369   3.291  12.260  0.00  0.00    +0.000 C 
ATOM     12  C   UNL     1       5.943   3.839  13.296  0.00  0.00    +0.000 C 
BRANCH  11  13
ATOM     13  C   UNL     1       4.724   2.687  11.088  0.00  0.00    +0.000 C 
BRANCH  13  15
ATOM     14  C   UNL     1       3.166   3.995   9.809  0.00  0.00    +0.000 C 
ATOM     15  N   UNL     1       3.346   3.158  10.986  0.00  0.00    +0.000 NA
ATOM     16  H   UNL     1       2.730   2.349  10.925  0.00  0.00    +0.000 HD
ENDBRANCH  13  15
ENDBRANCH  11  13
ENDBRANCH  10  12
ENDBRANCH   1  10
TORSDOF 5
ENDMDL
MODEL 8
REMARK VINA RESULT:      -5.7      1.669      2.117
REMARK  Name = 
REMARK  8 active torsions:
REMARK  status: ('A' for Active; 'I' for Inactive)
REMARK    1  A    between atoms: C_1  and  N_2
REMARK    2  A    between atoms: N_2  and  C_3
REMARK    3  A    between atoms: C_3  and  C_4
REMARK    4  A    between atoms: C_5  and  C_6
REMARK    5  A    between atoms: C_6  and  O_7
REMARK    6  A    between atoms: O_7  and  C_8
REMARK    7  A    between atoms: C_12  and  C_13
REMARK    8  A    between atoms: C_14  and  C_15
REMARK                            x       y       z     vdW  Elec       q    Type
REMARK                         _______ _______ _______ _____ _____    ______ ____
ROOT
ATOM      1  O   UNL     1       5.810   3.888  15.820  0.00  0.00    +0.000 OA
ENDROOT
BRANCH   1   2
ATOM      2  C   UNL     1       5.013   4.801  16.470  0.00  0.00    +0.000 A 
ATOM      3  C   UNL     1       5.182   6.188  16.384  0.00  0.00    +0.000 A 
ATOM      4  C   UNL     1       4.329   7.047  17.072  0.00  0.00    +0.000 A 
ATOM      5  C   UNL     1       3.305   6.530  17.857  0.00  0.00    +0.000 A 
ATOM      6  C   UNL     1       3.115   5.143  17.970  0.00  0.00    +0.000 A 
ATOM      7  C   UNL     1       1.993   4.646  18.840  0.00  0.00    +0.000 C 
ATOM      8  C   UNL     1       3.974   4.266  17.266  0.00  0.00    +0.000 A 
ATOM      9  C   UNL     1       3.807   2.768  17.335  0.00  0.00    +0.000 C 
ENDBRANCH   1   2
BRANCH   1  10
ATOM     10  C   UNL     1       6.527   4.364  14.683  0.00  0.00    +0.000 C 
BRANCH  10  12
ATOM     11  C   UNL     1       5.379   3.307  12.330  0.00  0.00    +0.000 C 
ATOM     12  C   UNL     1       5.909   3.796  13.417  0.00  0.00    +0.000 C 
BRANCH  11  13
ATOM     13  C   UNL     1       4.794   2.755  11.102  0.00  0.00    +0.000 C 
BRANCH  13  15
ATOM     14  C   UNL     1       3.173   4.037   9.876  0.00  0.00    +0.000 C 
ATOM     15  N   UNL     1       3.391   3.145  11.006  0.00  0.00    +0.000 NA
ATOM     16  H   UNL     1       2.828   2.304  10.888  0.00  0.00    +0.000 HD
ENDBRANCH  13  15
ENDBRANCH  11  13
ENDBRANCH  10  12
ENDBRANCH   1  10
TORSDOF 5
ENDMDL
MODEL 9
REMARK VINA RESULT:      -5.6      1.273      2.317
REMARK  Name = 
REMARK  8 active torsions:
REMARK  status: ('A' for Active; 'I' for Inactive)
REMARK    1  A    between atoms: C_1  and  N_2
REMARK    2  A    between atoms: N_2  and  C_3
REMARK    3  A    between atoms: C_3  and  C_4
REMARK    4  A    between atoms: C_5  and  C_6
REMARK    5  A    between atoms: C_6  and  O_7
REMARK    6  A    between atoms: O_7  and  C_8
REMARK    7  A    between atoms: C_12  and  C_13
REMARK    8  A    between atoms: C_14  and  C_15
REMARK                            x       y       z     vdW  Elec       q    Type
REMARK                         _______ _______ _______ _____ _____    ______ ____
ROOT
ATOM      1  O   UNL     1       4.988   4.761  17.775  0.00  0.00    +0.000 OA
ENDROOT
BRANCH   1   2
ATOM      2  C   UNL     1       3.900   3.971  18.069  0.00  0.00    +0.000 A 
ATOM      3  C   UNL     1       3.623   2.755  17.435  0.00  0.00    +0.000 A 
ATOM      4  C   UNL     1       2.500   2.012  17.792  0.00  0.00    +0.000 A 
ATOM      5  C   UNL     1       1.641   2.481  18.779  0.00  0.00    +0.000 A 
ATOM      6  C   UNL     1       1.888   3.702  19.427  0.00  0.00    +0.000 A 
ATOM      7  C   UNL     1       0.917   4.157  20.482  0.00  0.00    +0.000 C 
ATOM      8  C   UNL     1       3.032   4.456  19.074  0.00  0.00    +0.000 A 
ATOM      9  C   UNL     1       3.357   5.766  19.749  0.00  0.00    +0.000 C 
ENDBRANCH   1   2
BRANCH   1  10
ATOM     10  C   UNL     1       4.832   5.684  16.700  0.00  0.00    +0.000 C 
BRANCH  10  12
ATOM     11  C   UNL     1       6.170   4.706  14.413  0.00  0.00    +0.000 C 
ATOM     12  C   UNL     1       5.553   5.158  15.469  0.00  0.00    +0.000 C 
BRANCH  11  13
ATOM     13  C   UNL     1       6.854   4.195  13.219  0.00  0.00    +0.000 C 
BRANCH  13  15
ATOM     14  C   UNL     1       5.094   3.239  11.892  0.00  0.00    +0.000 C 
ATOM     15  N   UNL     1       6.215   2.959  12.776  0.00  0.00    +0.000 NA
ATOM     16  H   UNL     1       6.906   2.397  12.282  0.00  0.00    +0.000 HD
ENDBRANCH  13  15
ENDBRANCH  11  13
ENDBRANCH  10  12
ENDBRANCH   1  10
TORSDOF 5
ENDMDL
