MODEL 1
REMARK VINA RESULT:      -7.9      0.000      0.000
REMARK  Name = 
REMARK  6 active torsions:
REMARK  status: ('A' for Active; 'I' for Inactive)
REMARK    1  A    between atoms: C_2  and  C_13
REMARK    2  A    between atoms: N_3  and  C_4
REMARK    3  A    between atoms: C_4  and  C_5
REMARK    4  A    between atoms: C_5  and  C_6
REMARK    5  A    between atoms: N_15  and  C_16
REMARK    6  A    between atoms: C_24  and  O_25
REMARK                            x       y       z     vdW  Elec       q    Type
REMARK                         _______ _______ _______ _____ _____    ______ ____
ROOT
ATOM      1  C   UNL     1       2.602   7.129  19.049  0.00  0.00    +0.000 A 
ATOM      2  N   UNL     1       1.968   7.459  20.200  0.00  0.00    +0.000 NA
ATOM      3  N   UNL     1       1.387   8.676  19.953  0.00  0.00    +0.000 N 
ATOM      4  C   UNL     1       1.690   9.129  18.689  0.00  0.00    +0.000 A 
ATOM      5  C   UNL     1       2.461   8.167  18.103  0.00  0.00    +0.000 A 
ENDROOT
BRANCH   3   6
ATOM      6  C   UNL     1       0.605   9.331  20.948  0.00  0.00    +0.000 A 
ATOM      7  C   UNL     1       0.688   8.913  22.285  0.00  0.00    +0.000 A 
ATOM      8  C   UNL     1      -0.044   9.573  23.281  0.00  0.00    +0.000 A 
ATOM      9  C   UNL     1      -0.875  10.645  22.952  0.00  0.00    +0.000 A 
ATOM     10  C   UNL     1      -0.979  11.053  21.628  0.00  0.00    +0.000 A 
ATOM     11  C   UNL     1      -0.244  10.400  20.635  0.00  0.00    +0.000 A 
ATOM     12  F   UNL     1      -0.415  10.833  19.380  0.00  0.00    +0.000 F 
ENDBRANCH   3   6
BRANCH   1  14
ATOM     13  O   UNL     1       3.926   5.281  19.769  0.00  0.00    +0.000 OA
ATOM     14  C   UNL     1       3.317   5.853  18.867  0.00  0.00    +0.000 C 
ATOM     15  N   UNL     1       3.251   5.342  17.586  0.00  0.00    +0.000 N 
ATOM     16  H   UNL     1       2.697   5.869  16.917  0.00  0.00    +0.000 HD
BRANCH  15  17
ATOM     17  C   UNL     1       3.942   4.124  17.201  0.00  0.00    +0.000 C 
BRANCH  17  18
ATOM     18  C   UNL     1       5.008   4.388  16.144  0.00  0.00    +0.000 C 
BRANCH  18  19
ATOM     19  C   UNL     1       5.554   5.802  16.236  0.00  0.00    +0.000 C 
ATOM     20  O   UNL     1       5.095   6.724  15.567  0.00  0.00    +0.000 OA
ATOM     21  N   UNL     1       6.601   5.991  17.116  0.00  0.00    +0.000 N 
ATOM     22  C   UNL     1       7.295   4.988  17.901  0.00  0.00    +0.000 C 
ATOM     23  C   UNL     1       7.786   5.768  19.107  0.00  0.00    +0.000 C 
ATOM     24  C   UNL     1       8.117   7.140  18.531  0.00  0.00    +0.000 C 
ATOM     25  C   UNL     1       7.153   7.311  17.359  0.00  0.00    +0.000 C 
ENDBRANCH  18  19
ENDBRANCH  17  18
ENDBRANCH  15  17
ENDBRANCH   1  14
BRANCH   5  26
ATOM     26  O   UNL     1       2.957   8.255  16.862  0.00  0.00    +0.000 OA
ATOM     27  H   UNL     1       3.495   7.476  16.643  0.00  0.00    +0.000 HD
ENDBRANCH   5  26
TORSDOF 6
ENDMDL
MODEL 2
REMARK VINA RESULT:      -7.6      2.601      4.296
REMARK  Name = 
REMARK  6 active torsions:
REMARK  status: ('A' for Active; 'I' for Inactive)
REMARK    1  A    between atoms: C_2  and  C_13
REMARK    2  A    between atoms: N_3  and  C_4
REMARK    3  A    between atoms: C_4  and  C_5
REMARK    4  A    between atoms: C_5  and  C_6
REMARK    5  A    between atoms: N_15  and  C_16
REMARK    6  A    between atoms: C_24  and  O_25
REMARK                            x       y       z     vdW  Elec       q    Type
REMARK                         _______ _______ _______ _____ _____    ______ ____
ROOT
ATOM      1  C   UNL     1       2.731   7.585  18.413  0.00  0.00    +0.000 A 
ATOM      2  N   UNL     1       2.143   8.675  17.862  0.00  0.00    +0.000 NA
ATOM      3  N   UNL     1       1.333   9.180  18.846  0.00  0.00    +0.000 N 
ATOM      4  C   UNL     1       1.369   8.397  19.977  0.00  0.00    +0.000 A 
ATOM      5  C   UNL     1       2.244   7.380  19.721  0.00  0.00    +0.000 A 
ENDROOT
BRANCH   3   6
ATOM      6  C   UNL     1       0.564  10.360  18.628  0.00  0.00    +0.000 A 
ATOM      7  C   UNL     1      -0.782  10.252  18.246  0.00  0.00    +0.000 A 
ATOM      8  C   UNL     1      -1.562  11.403  18.067  0.00  0.00    +0.000 A 
ATOM      9  C   UNL     1      -1.005  12.669  18.253  0.00  0.00    +0.000 A 
ATOM     10  C   UNL     1       0.333  12.786  18.612  0.00  0.00    +0.000 A 
ATOM     11  C   UNL     1       1.110  11.639  18.798  0.00  0.00    +0.000 A 
ATOM     12  F   UNL     1       2.395  11.831  19.117  0.00  0.00    +0.000 F 
ENDBRANCH   3   6
BRANCH   1  14
ATOM     13  O   UNL     1       4.766   7.228  17.222  0.00  0.00    +0.000 OA
ATOM     14  C   UNL     1       3.730   6.769  17.700  0.00  0.00    +0.000 C 
ATOM     15  N   UNL     1       3.409   5.430  17.608  0.00  0.00    +0.000 N 
ATOM     16  H   UNL     1       2.548   5.139  18.062  0.00  0.00    +0.000 HD
BRANCH  15  17
ATOM     17  C   UNL     1       4.242   4.480  16.891  0.00  0.00    +0.000 C 
BRANCH  17  18
ATOM     18  C   UNL     1       4.128   3.076  17.470  0.00  0.00    +0.000 C 
BRANCH  18  19
ATOM     19  C   UNL     1       4.171   3.088  18.989  0.00  0.00    +0.000 C 
ATOM     20  O   UNL     1       5.209   3.305  19.610  0.00  0.00    +0.000 OA
ATOM     21  N   UNL     1       2.975   2.838  19.631  0.00  0.00    +0.000 N 
ATOM     22  C   UNL     1       1.702   2.485  19.033  0.00  0.00    +0.000 C 
ATOM     23  C   UNL     1       0.690   3.011  20.034  0.00  0.00    +0.000 C 
ATOM     24  C   UNL     1       1.375   2.793  21.379  0.00  0.00    +0.000 C 
ATOM     25  C   UNL     1       2.867   2.907  21.077  0.00  0.00    +0.000 C 
ENDBRANCH  18  19
ENDBRANCH  17  18
ENDBRANCH  15  17
ENDBRANCH   1  14
BRANCH   5  26
ATOM     26  O   UNL     1       2.538   6.406  20.593  0.00  0.00    +0.000 OA
ATOM     27  H   UNL     1       2.621   6.758  21.495  0.00  0.00    +0.000 HD
ENDBRANCH   5  26
TORSDOF 6
ENDMDL
MODEL 3
REMARK VINA RESULT:      -7.5      4.380      6.837
REMARK  Name = 
REMARK  6 active torsions:
REMARK  status: ('A' for Active; 'I' for Inactive)
REMARK    1  A    between atoms: C_2  and  C_13
REMARK    2  A    between atoms: N_3  and  C_4
REMARK    3  A    between atoms: C_4  and  C_5
REMARK    4  A    between atoms: C_5  and  C_6
REMARK    5  A    between atoms: N_15  and  C_16
REMARK    6  A    between atoms: C_24  and  O_25
REMARK                            x       y       z     vdW  Elec       q    Type
REMARK                         _______ _______ _______ _____ _____    ______ ____
ROOT
ATOM      1  C   UNL     1       6.539   6.011  18.190  0.00  0.00    +0.000 A 
ATOM      2  N   UNL     1       5.341   5.553  17.751  0.00  0.00    +0.000 NA
ATOM      3  N   UNL     1       4.890   4.720  18.742  0.00  0.00    +0.000 N 
ATOM      4  C   UNL     1       5.808   4.613  19.763  0.00  0.00    +0.000 A 
ATOM      5  C   UNL     1       6.859   5.419  19.429  0.00  0.00    +0.000 A 
ENDROOT
BRANCH   3   6
ATOM      6  C   UNL     1       3.629   4.067  18.634  0.00  0.00    +0.000 A 
ATOM      7  C   UNL     1       3.503   2.927  17.825  0.00  0.00    +0.000 A 
ATOM      8  C   UNL     1       2.278   2.250  17.740  0.00  0.00    +0.000 A 
ATOM      9  C   UNL     1       1.168   2.711  18.448  0.00  0.00    +0.000 A 
ATOM     10  C   UNL     1       1.278   3.850  19.236  0.00  0.00    +0.000 A 
ATOM     11  C   UNL     1       2.500   4.522  19.327  0.00  0.00    +0.000 A 
ATOM     12  F   UNL     1       2.522   5.625  20.084  0.00  0.00    +0.000 F 
ENDBRANCH   3   6
BRANCH   1  14
ATOM     13  O   UNL     1       7.765   6.791  16.299  0.00  0.00    +0.000 OA
ATOM     14  C   UNL     1       7.346   6.988  17.437  0.00  0.00    +0.000 C 
ATOM     15  N   UNL     1       7.600   8.161  18.121  0.00  0.00    +0.000 N 
ATOM     16  H   UNL     1       7.184   8.245  19.044  0.00  0.00    +0.000 HD
BRANCH  15  17
ATOM     17  C   UNL     1       8.427   9.218  17.566  0.00  0.00    +0.000 C 
BRANCH  17  18
ATOM     18  C   UNL     1       8.963  10.146  18.648  0.00  0.00    +0.000 C 
BRANCH  18  19
ATOM     19  C   UNL     1       9.190  11.553  18.123  0.00  0.00    +0.000 C 
ATOM     20  O   UNL     1       8.320  12.168  17.510  0.00  0.00    +0.000 OA
ATOM     21  N   UNL     1      10.432  12.099  18.371  0.00  0.00    +0.000 N 
ATOM     22  C   UNL     1      11.574  11.464  19.000  0.00  0.00    +0.000 C 
ATOM     23  C   UNL     1      12.323  12.629  19.620  0.00  0.00    +0.000 C 
ATOM     24  C   UNL     1      12.102  13.763  18.624  0.00  0.00    +0.000 C 
ATOM     25  C   UNL     1      10.743  13.467  17.995  0.00  0.00    +0.000 C 
ENDBRANCH  18  19
ENDBRANCH  17  18
ENDBRANCH  15  17
ENDBRANCH   1  14
BRANCH   5  26
ATOM     26  O   UNL     1       7.956   5.571  20.184  0.00  0.00    +0.000 OA
ATOM     27  H   UNL     1       8.317   4.710  20.454  0.00  0.00    +0.000 HD
ENDBRANCH   5  26
TORSDOF 6
ENDMDL
MODEL 4
REMARK VINA RESULT:      -7.5      4.610      6.890
REMARK  Name = 
REMARK  6 active torsions:
REMARK  status: ('A' for Active; 'I' for Inactive)
REMARK    1  A    between atoms: C_2  and  C_13
REMARK    2  A    between atoms: N_3  and  C_4
REMARK    3  A    between atoms: C_4  and  C_5
REMARK    4  A    between atoms: C_5  and  C_6
REMARK    5  A    between atoms: N_15  and  C_16
REMARK    6  A    between atoms: C_24  and  O_25
REMARK                            x       y       z     vdW  Elec       q    Type
REMARK                         _______ _______ _______ _____ _____    ______ ____
ROOT
ATOM      1  C   UNL     1       6.570   5.627  17.842  0.00  0.00    +0.000 A 
ATOM      2  N   UNL     1       5.501   5.094  18.481  0.00  0.00    +0.000 NA
ATOM      3  N   UNL     1       4.769   4.475  17.500  0.00  0.00    +0.000 N 
ATOM      4  C   UNL     1       5.338   4.658  16.260  0.00  0.00    +0.000 A 
ATOM      5  C   UNL     1       6.475   5.388  16.455  0.00  0.00    +0.000 A 
ENDROOT
BRANCH   3   6
ATOM      6  C   UNL     1       3.568   3.776  17.812  0.00  0.00    +0.000 A 
ATOM      7  C   UNL     1       3.597   2.383  17.980  0.00  0.00    +0.000 A 
ATOM      8  C   UNL     1       2.431   1.686  18.326  0.00  0.00    +0.000 A 
ATOM      9  C   UNL     1       1.226   2.368  18.495  0.00  0.00    +0.000 A 
ATOM     10  C   UNL     1       1.183   3.745  18.312  0.00  0.00    +0.000 A 
ATOM     11  C   UNL     1       2.346   4.442  17.973  0.00  0.00    +0.000 A 
ATOM     12  F   UNL     1       2.222   5.762  17.789  0.00  0.00    +0.000 F 
ENDBRANCH   3   6
BRANCH   1  14
ATOM     13  O   UNL     1       8.291   5.858  19.477  0.00  0.00    +0.000 OA
ATOM     14  C   UNL     1       7.648   6.342  18.548  0.00  0.00    +0.000 C 
ATOM     15  N   UNL     1       7.884   7.620  18.079  0.00  0.00    +0.000 N 
ATOM     16  H   UNL     1       7.324   7.921  17.286  0.00  0.00    +0.000 HD
BRANCH  15  17
ATOM     17  C   UNL     1       8.868   8.499  18.687  0.00  0.00    +0.000 C 
BRANCH  17  18
ATOM     18  C   UNL     1       8.644   9.955  18.297  0.00  0.00    +0.000 C 
BRANCH  18  19
ATOM     19  C   UNL     1       9.209  10.909  19.335  0.00  0.00    +0.000 C 
ATOM     20  O   UNL     1       9.351  10.583  20.511  0.00  0.00    +0.000 OA
ATOM     21  N   UNL     1       9.552  12.166  18.880  0.00  0.00    +0.000 N 
ATOM     22  C   UNL     1       9.362  12.713  17.550  0.00  0.00    +0.000 C 
ATOM     23  C   UNL     1      10.477  13.736  17.432  0.00  0.00    +0.000 C 
ATOM     24  C   UNL     1      10.598  14.293  18.846  0.00  0.00    +0.000 C 
ATOM     25  C   UNL     1      10.181  13.139  19.755  0.00  0.00    +0.000 C 
ENDBRANCH  18  19
ENDBRANCH  17  18
ENDBRANCH  15  17
ENDBRANCH   1  14
BRANCH   5  26
ATOM     26  O   UNL     1       7.300   5.770  15.470  0.00  0.00    +0.000 OA
ATOM     27  H   UNL     1       7.764   5.007  15.088  0.00  0.00    +0.000 HD
ENDBRANCH   5  26
TORSDOF 6
ENDMDL
MODEL 5
REMARK VINA RESULT:      -7.5      4.364      6.534
REMARK  Name = 
REMARK  6 active torsions:
REMARK  status: ('A' for Active; 'I' for Inactive)
REMARK    1  A    between atoms: C_2  and  C_13
REMARK    2  A    between atoms: N_3  and  C_4
REMARK    3  A    between atoms: C_4  and  C_5
REMARK    4  A    between atoms: C_5  and  C_6
REMARK    5  A    between atoms: N_15  and  C_16
REMARK    6  A    between atoms: C_24  and  O_25
REMARK                            x       y       z     vdW  Elec       q    Type
REMARK                         _______ _______ _______ _____ _____    ______ ____
ROOT
ATOM      1  C   UNL     1       5.981   5.924  18.135  0.00  0.00    +0.000 A 
ATOM      2  N   UNL     1       5.163   5.295  19.014  0.00  0.00    +0.000 NA
ATOM      3  N   UNL     1       4.080   4.896  18.274  0.00  0.00    +0.000 N 
ATOM      4  C   UNL     1       4.188   5.308  16.965  0.00  0.00    +0.000 A 
ATOM      5  C   UNL     1       5.381   5.964  16.859  0.00  0.00    +0.000 A 
ENDROOT
BRANCH   3   6
ATOM      6  C   UNL     1       3.010   4.171  18.872  0.00  0.00    +0.000 A 
ATOM      7  C   UNL     1       2.167   4.810  19.795  0.00  0.00    +0.000 A 
ATOM      8  C   UNL     1       1.086   4.122  20.362  0.00  0.00    +0.000 A 
ATOM      9  C   UNL     1       0.843   2.790  20.026  0.00  0.00    +0.000 A 
ATOM     10  C   UNL     1       1.683   2.143  19.127  0.00  0.00    +0.000 A 
ATOM     11  C   UNL     1       2.758   2.830  18.556  0.00  0.00    +0.000 A 
ATOM     12  F   UNL     1       3.538   2.134  17.721  0.00  0.00    +0.000 F 
ENDBRANCH   3   6
BRANCH   1  14
ATOM     13  O   UNL     1       8.121   5.845  19.183  0.00  0.00    +0.000 OA
ATOM     14  C   UNL     1       7.297   6.466  18.515  0.00  0.00    +0.000 C 
ATOM     15  N   UNL     1       7.538   7.746  18.057  0.00  0.00    +0.000 N 
ATOM     16  H   UNL     1       6.811   8.166  17.485  0.00  0.00    +0.000 HD
BRANCH  15  17
ATOM     17  C   UNL     1       8.757   8.468  18.380  0.00  0.00    +0.000 C 
BRANCH  17  18
ATOM     18  C   UNL     1       8.552   9.977  18.325  0.00  0.00    +0.000 C 
BRANCH  18  19
ATOM     19  C   UNL     1       9.345  10.692  19.405  0.00  0.00    +0.000 C 
ATOM     20  O   UNL     1       9.204  10.433  20.597  0.00  0.00    +0.000 OA
ATOM     21  N   UNL     1      10.234  11.654  18.968  0.00  0.00    +0.000 N 
ATOM     22  C   UNL     1      10.442  12.121  17.611  0.00  0.00    +0.000 C 
ATOM     23  C   UNL     1      11.889  12.579  17.618  0.00  0.00    +0.000 C 
ATOM     24  C   UNL     1      12.074  13.147  19.021  0.00  0.00    +0.000 C 
ATOM     25  C   UNL     1      11.111  12.346  19.894  0.00  0.00    +0.000 C 
ENDBRANCH  18  19
ENDBRANCH  17  18
ENDBRANCH  15  17
ENDBRANCH   1  14
BRANCH   5  26
ATOM     26  O   UNL     1       5.835   6.517  15.726  0.00  0.00    +0.000 OA
ATOM     27  H   UNL     1       5.107   6.892  15.203  0.00  0.00    +0.000 HD
ENDBRANCH   5  26
TORSDOF 6
ENDMDL
MODEL 6
REMARK VINA RESULT:      -7.4      0.950      1.347
REMARK  Name = 
REMARK  6 active torsions:
REMARK  status: ('A' for Active; 'I' for Inactive)
REMARK    1  A    between atoms: C_2  and  C_13
REMARK    2  A    between atoms: N_3  and  C_4
REMARK    3  A    between atoms: C_4  and  C_5
REMARK    4  A    between atoms: C_5  and  C_6
REMARK    5  A    between atoms: N_15  and  C_16
REMARK    6  A    between atoms: C_24  and  O_25
REMARK                            x       y       z     vdW  Elec       q    Type
REMARK                         _______ _______ _______ _____ _____    ______ ____
ROOT
ATOM      1  C   UNL     1       2.453   7.182  19.044  0.00  0.00    +0.000 A 
ATOM      2  N   UNL     1       1.756   7.612  20.123  0.00  0.00    +0.000 NA
ATOM      3  N   UNL     1       1.343   8.879  19.802  0.00  0.00    +0.000 N 
ATOM      4  C   UNL     1       1.813   9.261  18.565  0.00  0.00    +0.000 A 
ATOM      5  C   UNL     1       2.521   8.203  18.072  0.00  0.00    +0.000 A 
ENDROOT
BRANCH   3   6
ATOM      6  C   UNL     1       0.552   9.644  20.706  0.00  0.00    +0.000 A 
ATOM      7  C   UNL     1      -0.354  10.593  20.207  0.00  0.00    +0.000 A 
ATOM      8  C   UNL     1      -1.168  11.325  21.083  0.00  0.00    +0.000 A 
ATOM      9  C   UNL     1      -1.077  11.128  22.461  0.00  0.00    +0.000 A 
ATOM     10  C   UNL     1      -0.169  10.204  22.966  0.00  0.00    +0.000 A 
ATOM     11  C   UNL     1       0.639   9.469  22.093  0.00  0.00    +0.000 A 
ATOM     12  F   UNL     1       1.506   8.618  22.653  0.00  0.00    +0.000 F 
ENDBRANCH   3   6
BRANCH   1  14
ATOM     13  O   UNL     1       3.295   5.136  19.932  0.00  0.00    +0.000 OA
ATOM     14  C   UNL     1       3.033   5.830  18.953  0.00  0.00    +0.000 C 
ATOM     15  N   UNL     1       3.263   5.396  17.662  0.00  0.00    +0.000 N 
ATOM     16  H   UNL     1       2.983   6.027  16.917  0.00  0.00    +0.000 HD
BRANCH  15  17
ATOM     17  C   UNL     1       3.883   4.115  17.374  0.00  0.00    +0.000 C 
BRANCH  17  18
ATOM     18  C   UNL     1       5.041   4.253  16.393  0.00  0.00    +0.000 C 
BRANCH  18  19
ATOM     19  C   UNL     1       5.579   5.673  16.354  0.00  0.00    +0.000 C 
ATOM     20  O   UNL     1       5.101   6.532  15.617  0.00  0.00    +0.000 OA
ATOM     21  N   UNL     1       6.639   5.942  17.196  0.00  0.00    +0.000 N 
ATOM     22  C   UNL     1       7.354   5.014  18.051  0.00  0.00    +0.000 C 
ATOM     23  C   UNL     1       7.861   5.896  19.177  0.00  0.00    +0.000 C 
ATOM     24  C   UNL     1       8.172   7.217  18.479  0.00  0.00    +0.000 C 
ATOM     25  C   UNL     1       7.187   7.282  17.315  0.00  0.00    +0.000 C 
ENDBRANCH  18  19
ENDBRANCH  17  18
ENDBRANCH  15  17
ENDBRANCH   1  14
BRANCH   5  26
ATOM     26  O   UNL     1       3.137   8.202  16.882  0.00  0.00    +0.000 OA
ATOM     27  H   UNL     1       4.093   8.059  16.984  0.00  0.00    +0.000 HD
ENDBRANCH   5  26
TORSDOF 6
ENDMDL
MODEL 7
REMARK VINA RESULT:      -7.4      4.598      6.791
REMARK  Name = 
REMARK  6 active torsions:
REMARK  status: ('A' for Active; 'I' for Inactive)
REMARK    1  A    between atoms: C_2  and  C_13
REMARK    2  A    between atoms: N_3  and  C_4
REMARK    3  A    between atoms: C_4  and  C_5
REMARK    4  A    between atoms: C_5  and  C_6
REMARK    5  A    between atoms: N_15  and  C_16
REMARK    6  A    between atoms: C_24  and  O_25
REMARK                            x       y       z     vdW  Elec       q    Type
REMARK                         _______ _______ _______ _____ _____    ______ ____
ROOT
ATOM      1  C   UNL     1       6.596   5.746  17.762  0.00  0.00    +0.000 A 
ATOM      2  N   UNL     1       5.523   5.229  18.407  0.00  0.00    +0.000 NA
ATOM      3  N   UNL     1       4.819   4.550  17.446  0.00  0.00    +0.000 N 
ATOM      4  C   UNL     1       5.408   4.679  16.208  0.00  0.00    +0.000 A 
ATOM      5  C   UNL     1       6.531   5.436  16.387  0.00  0.00    +0.000 A 
ENDROOT
BRANCH   3   6
ATOM      6  C   UNL     1       3.623   3.849  17.771  0.00  0.00    +0.000 A 
ATOM      7  C   UNL     1       3.661   2.458  17.961  0.00  0.00    +0.000 A 
ATOM      8  C   UNL     1       2.500   1.760  18.320  0.00  0.00    +0.000 A 
ATOM      9  C   UNL     1       1.290   2.437  18.479  0.00  0.00    +0.000 A 
ATOM     10  C   UNL     1       1.239   3.811  18.274  0.00  0.00    +0.000 A 
ATOM     11  C   UNL     1       2.397   4.509  17.922  0.00  0.00    +0.000 A 
ATOM     12  F   UNL     1       2.264   5.825  17.716  0.00  0.00    +0.000 F 
ENDBRANCH   3   6
BRANCH   1  14
ATOM     13  O   UNL     1       8.295   6.079  19.401  0.00  0.00    +0.000 OA
ATOM     14  C   UNL     1       7.650   6.513  18.450  0.00  0.00    +0.000 C 
ATOM     15  N   UNL     1       7.858   7.778  17.937  0.00  0.00    +0.000 N 
ATOM     16  H   UNL     1       7.299   8.036  17.129  0.00  0.00    +0.000 HD
BRANCH  15  17
ATOM     17  C   UNL     1       8.815   8.703  18.520  0.00  0.00    +0.000 C 
BRANCH  17  18
ATOM     18  C   UNL     1       8.422  10.154  18.274  0.00  0.00    +0.000 C 
BRANCH  18  19
ATOM     19  C   UNL     1       9.612  11.089  18.403  0.00  0.00    +0.000 C 
ATOM     20  O   UNL     1      10.431  11.231  17.498  0.00  0.00    +0.000 OA
ATOM     21  N   UNL     1       9.723  11.767  19.600  0.00  0.00    +0.000 N 
ATOM     22  C   UNL     1       8.887  11.635  20.778  0.00  0.00    +0.000 C 
ATOM     23  C   UNL     1       8.990  13.000  21.433  0.00  0.00    +0.000 C 
ATOM     24  C   UNL     1      10.425  13.426  21.141  0.00  0.00    +0.000 C 
ATOM     25  C   UNL     1      10.767  12.753  19.814  0.00  0.00    +0.000 C 
ENDBRANCH  18  19
ENDBRANCH  17  18
ENDBRANCH  15  17
ENDBRANCH   1  14
BRANCH   5  26
ATOM     26  O   UNL     1       7.368   5.781  15.399  0.00  0.00    +0.000 OA
ATOM     27  H   UNL     1       7.814   6.621  15.597  0.00  0.00    +0.000 HD
ENDBRANCH   5  26
TORSDOF 6
ENDMDL
MODEL 8
REMARK VINA RESULT:      -7.4      4.117      8.162
REMARK  Name = 
REMARK  6 active torsions:
REMARK  status: ('A' for Active; 'I' for Inactive)
REMARK    1  A    between atoms: C_2  and  C_13
REMARK    2  A    between atoms: N_3  and  C_4
REMARK    3  A    between atoms: C_4  and  C_5
REMARK    4  A    between atoms: C_5  and  C_6
REMARK    5  A    between atoms: N_15  and  C_16
REMARK    6  A    between atoms: C_24  and  O_25
REMARK                            x       y       z     vdW  Elec       q    Type
REMARK                         _______ _______ _______ _____ _____    ______ ____
ROOT
ATOM      1  C   UNL     1       5.789   5.245  17.467  0.00  0.00    +0.000 A 
ATOM      2  N   UNL     1       5.440   5.140  16.163  0.00  0.00    +0.000 NA
ATOM      3  N   UNL     1       6.544   4.620  15.537  0.00  0.00    +0.000 N 
ATOM      4  C   UNL     1       7.586   4.449  16.420  0.00  0.00    +0.000 A 
ATOM      5  C   UNL     1       7.130   4.843  17.645  0.00  0.00    +0.000 A 
ENDROOT
BRANCH   3   6
ATOM      6  C   UNL     1       6.534   4.347  14.139  0.00  0.00    +0.000 A 
ATOM      7  C   UNL     1       5.558   3.492  13.604  0.00  0.00    +0.000 A 
ATOM      8  C   UNL     1       5.511   3.245  12.225  0.00  0.00    +0.000 A 
ATOM      9  C   UNL     1       6.443   3.836  11.370  0.00  0.00    +0.000 A 
ATOM     10  C   UNL     1       7.426   4.668  11.894  0.00  0.00    +0.000 A 
ATOM     11  C   UNL     1       7.469   4.920  13.268  0.00  0.00    +0.000 A 
ATOM     12  F   UNL     1       8.459   5.710  13.701  0.00  0.00    +0.000 F 
ENDBRANCH   3   6
BRANCH   1  14
ATOM     13  O   UNL     1       5.131   5.736  19.706  0.00  0.00    +0.000 OA
ATOM     14  C   UNL     1       4.858   5.717  18.508  0.00  0.00    +0.000 C 
ATOM     15  N   UNL     1       3.636   6.143  18.026  0.00  0.00    +0.000 N 
ATOM     16  H   UNL     1       3.515   6.120  17.018  0.00  0.00    +0.000 HD
BRANCH  15  17
ATOM     17  C   UNL     1       2.569   6.588  18.906  0.00  0.00    +0.000 C 
BRANCH  17  18
ATOM     18  C   UNL     1       1.714   5.424  19.393  0.00  0.00    +0.000 C 
BRANCH  18  19
ATOM     19  C   UNL     1       1.750   4.255  18.424  0.00  0.00    +0.000 C 
ATOM     20  O   UNL     1       1.159   4.282  17.347  0.00  0.00    +0.000 OA
ATOM     21  N   UNL     1       2.485   3.158  18.825  0.00  0.00    +0.000 N 
ATOM     22  C   UNL     1       3.158   2.954  20.094  0.00  0.00    +0.000 C 
ATOM     23  C   UNL     1       4.297   2.017  19.737  0.00  0.00    +0.000 C 
ATOM     24  C   UNL     1       3.698   1.129  18.651  0.00  0.00    +0.000 C 
ATOM     25  C   UNL     1       2.667   2.012  17.952  0.00  0.00    +0.000 C 
ENDBRANCH  18  19
ENDBRANCH  17  18
ENDBRANCH  15  17
ENDBRANCH   1  14
BRANCH   5  26
ATOM     26  O   UNL     1       7.869   4.825  18.763  0.00  0.00    +0.000 OA
ATOM     27  H   UNL     1       7.306   4.770  19.553  0.00  0.00    +0.000 HD
ENDBRANCH   5  26
TORSDOF 6
ENDMDL
MODEL 9
REMARK VINA RESULT:      -7.4      4.976      7.046
REMARK  Name = 
REMARK  6 active torsions:
REMARK  status: ('A' for Active; 'I' for Inactive)
REMARK    1  A    between atoms: C_2  and  C_13
REMARK    2  A    between atoms: N_3  and  C_4
REMARK    3  A    between atoms: C_4  and  C_5
REMARK    4  A    between atoms: C_5  and  C_6
REMARK    5  A    between atoms: N_15  and  C_16
REMARK    6  A    between atoms: C_24  and  O_25
REMARK                            x       y       z     vdW  Elec       q    Type
REMARK                         _______ _______ _______ _____ _____    ______ ____
ROOT
ATOM      1  C   UNL     1       6.547   5.595  17.953  0.00  0.00    +0.000 A 
ATOM      2  N   UNL     1       5.471   5.130  18.633  0.00  0.00    +0.000 NA
ATOM      3  N   UNL     1       4.710   4.479  17.697  0.00  0.00    +0.000 N 
ATOM      4  C   UNL     1       5.268   4.575  16.442  0.00  0.00    +0.000 A 
ATOM      5  C   UNL     1       6.428   5.281  16.583  0.00  0.00    +0.000 A 
ENDROOT
BRANCH   3   6
ATOM      6  C   UNL     1       3.493   3.834  18.062  0.00  0.00    +0.000 A 
ATOM      7  C   UNL     1       2.266   4.374  17.645  0.00  0.00    +0.000 A 
ATOM      8  C   UNL     1       1.063   3.729  17.962  0.00  0.00    +0.000 A 
ATOM      9  C   UNL     1       1.071   2.550  18.708  0.00  0.00    +0.000 A 
ATOM     10  C   UNL     1       2.279   2.017  19.142  0.00  0.00    +0.000 A 
ATOM     11  C   UNL     1       3.480   2.656  18.820  0.00  0.00    +0.000 A 
ATOM     12  F   UNL     1       4.600   2.099  19.295  0.00  0.00    +0.000 F 
ENDBRANCH   3   6
BRANCH   1  14
ATOM     13  O   UNL     1       8.347   5.836  19.499  0.00  0.00    +0.000 OA
ATOM     14  C   UNL     1       7.654   6.317  18.605  0.00  0.00    +0.000 C 
ATOM     15  N   UNL     1       7.856   7.598  18.128  0.00  0.00    +0.000 N 
ATOM     16  H   UNL     1       7.254   7.896  17.366  0.00  0.00    +0.000 HD
BRANCH  15  17
ATOM     17  C   UNL     1       8.862   8.483  18.688  0.00  0.00    +0.000 C 
BRANCH  17  18
ATOM     18  C   UNL     1       8.595   9.940  18.332  0.00  0.00    +0.000 C 
BRANCH  18  19
ATOM     19  C   UNL     1       9.230  10.890  19.333  0.00  0.00    +0.000 C 
ATOM     20  O   UNL     1       9.363  10.594  20.518  0.00  0.00    +0.000 OA
ATOM     21  N   UNL     1       9.647  12.107  18.834  0.00  0.00    +0.000 N 
ATOM     22  C   UNL     1       9.479  12.621  17.488  0.00  0.00    +0.000 C 
ATOM     23  C   UNL     1      10.655  13.567  17.327  0.00  0.00    +0.000 C 
ATOM     24  C   UNL     1      10.826  14.161  18.721  0.00  0.00    +0.000 C 
ATOM     25  C   UNL     1      10.346  13.066  19.671  0.00  0.00    +0.000 C 
ENDBRANCH  18  19
ENDBRANCH  17  18
ENDBRANCH  15  17
ENDBRANCH   1  14
BRANCH   5  26
ATOM     26  O   UNL     1       7.250   5.582  15.569  0.00  0.00    +0.000 OA
ATOM     27  H   UNL     1       6.817   6.174  14.932  0.00  0.00    +0.000 HD
ENDBRANCH   5  26
TORSDOF 6
ENDMDL
