MODEL 1
REMARK VINA RESULT:      -8.7      0.000      0.000
REMARK  Name = 
REMARK  16 active torsions:
REMARK  status: ('A' for Active; 'I' for Inactive)
REMARK    1  A    between atoms: C_1  and  O_2
REMARK    2  A    between atoms: O_2  and  C_3
REMARK    3  A    between atoms: C_5  and  C_6
REMARK    4  A    between atoms: C_7  and  O_8
REMARK    5  A    between atoms: C_9  and  C_10
REMARK    6  A    between atoms: C_10  and  C_11
REMARK    7  A    between atoms: C_12  and  C_13
REMARK    8  A    between atoms: C_12  and  C_14
REMARK    9  A    between atoms: C_14  and  C_15
REMARK   10  A    between atoms: C_16  and  C_17
REMARK   11  A    between atoms: C_17  and  C_18
REMARK   12  A    between atoms: C_18  and  C_19
REMARK   13  A    between atoms: C_18  and  C_20
REMARK   14  A    between atoms: C_18  and  O_21
REMARK   15  A    between atoms: C_24  and  C_25
REMARK   16  A    between atoms: C_29  and  C_30
REMARK                            x       y       z     vdW  Elec       q    Type
REMARK                         _______ _______ _______ _____ _____    ______ ____
ROOT
ATOM      1  C   UNL     1       2.760   6.105  18.552  0.00  0.00    +0.000 C 
ATOM      2  C   UNL     1       3.975   5.712  18.107  0.00  0.00    +0.000 C 
ATOM      3  C   UNL     1       3.839   4.286  17.554  0.00  0.00    +0.000 C 
ATOM      4  O   UNL     1       4.099   4.064  16.385  0.00  0.00    +0.000 OA
ATOM      5  C   UNL     1       3.309   3.258  18.631  0.00  0.00    +0.000 C 
ATOM      6  C   UNL     1       4.754   3.049  19.192  0.00  0.00    +0.000 C 
ATOM      7  C   UNL     1       2.996   1.798  18.178  0.00  0.00    +0.000 C 
ATOM      8  C   UNL     1       1.626   1.391  18.640  0.00  0.00    +0.000 C 
ATOM      9  C   UNL     1       0.831   2.636  18.883  0.00  0.00    +0.000 C 
ATOM     10  C   UNL     1       1.783   3.862  19.125  0.00  0.00    +0.000 C 
ATOM     11  C   UNL     1       1.022   4.428  20.386  0.00  0.00    +0.000 C 
ATOM     12  C   UNL     1       1.579   5.145  18.218  0.00  0.00    +0.000 C 
ENDROOT
BRANCH   1  13
ATOM     13  C   UNL     1       2.548   7.299  19.494  0.00  0.00    +0.000 C 
BRANCH  13  15
ATOM     14  C   UNL     1       1.070   9.295  19.613  0.00  0.00    +0.000 C 
ATOM     15  C   UNL     1       1.951   8.549  18.874  0.00  0.00    +0.000 C 
ATOM     16  C   UNL     1       2.346   8.820  17.459  0.00  0.00    +0.000 C 
BRANCH  14  17
ATOM     17  C   UNL     1       0.504  10.664  19.226  0.00  0.00    +0.000 C 
BRANCH  17  23
ATOM     18  C   UNL     1      -2.437  10.185  16.800  0.00  0.00    +0.000 A 
ATOM     19  C   UNL     1      -3.415  10.934  17.454  0.00  0.00    +0.000 A 
ATOM     20  C   UNL     1      -3.169  11.539  18.700  0.00  0.00    +0.000 A 
ATOM     21  C   UNL     1      -4.250  12.338  19.384  0.00  0.00    +0.000 C 
ATOM     22  C   UNL     1      -1.900  11.400  19.264  0.00  0.00    +0.000 A 
ATOM     23  C   UNL     1      -0.880  10.662  18.596  0.00  0.00    +0.000 A 
ATOM     24  C   UNL     1      -1.183  10.031  17.413  0.00  0.00    +0.000 A 
BRANCH  18  26
ATOM     25  C   UNL     1      -3.587  10.129  14.752  0.00  0.00    +0.000 C 
ATOM     26  O   UNL     1      -2.591   9.569  15.592  0.00  0.00    +0.000 OA
ENDBRANCH  18  26
BRANCH  22  27
ATOM     27  O   UNL     1      -1.557  11.995  20.451  0.00  0.00    +0.000 OA
ATOM     28  H   UNL     1      -0.637  12.267  20.415  0.00  0.00    +0.000 HD
ENDBRANCH  22  27
ENDBRANCH  17  23
ENDBRANCH  14  17
ENDBRANCH  13  15
ENDBRANCH   1  13
BRANCH   2  29
ATOM     29  C   UNL     1       5.339   6.307  18.453  0.00  0.00    +0.000 C 
BRANCH  29  30
ATOM     30  C   UNL     1       6.441   6.397  17.358  0.00  0.00    +0.000 C 
ATOM     31  C   UNL     1       7.382   7.575  17.595  0.00  0.00    +0.000 C 
ATOM     32  C   UNL     1       7.265   5.088  17.338  0.00  0.00    +0.000 C 
BRANCH  30  33
ATOM     33  O   UNL     1       5.861   6.509  16.055  0.00  0.00    +0.000 OA
ATOM     34  H   UNL     1       4.899   6.355  16.130  0.00  0.00    +0.000 HD
ENDBRANCH  30  33
ENDBRANCH  29  30
ENDBRANCH   2  29
TORSDOF 9
ENDMDL
MODEL 2
REMARK VINA RESULT:      -8.4      0.965      1.045
REMARK  Name = 
REMARK  16 active torsions:
REMARK  status: ('A' for Active; 'I' for Inactive)
REMARK    1  A    between atoms: C_1  and  O_2
REMARK    2  A    between atoms: O_2  and  C_3
REMARK    3  A    between atoms: C_5  and  C_6
REMARK    4  A    between atoms: C_7  and  O_8
REMARK    5  A    between atoms: C_9  and  C_10
REMARK    6  A    between atoms: C_10  and  C_11
REMARK    7  A    between atoms: C_12  and  C_13
REMARK    8  A    between atoms: C_12  and  C_14
REMARK    9  A    between atoms: C_14  and  C_15
REMARK   10  A    between atoms: C_16  and  C_17
REMARK   11  A    between atoms: C_17  and  C_18
REMARK   12  A    between atoms: C_18  and  C_19
REMARK   13  A    between atoms: C_18  and  C_20
REMARK   14  A    between atoms: C_18  and  O_21
REMARK   15  A    between atoms: C_24  and  C_25
REMARK   16  A    between atoms: C_29  and  C_30
REMARK                            x       y       z     vdW  Elec       q    Type
REMARK                         _______ _______ _______ _____ _____    ______ ____
ROOT
ATOM      1  C   UNL     1       2.932   5.791  18.634  0.00  0.00    +0.000 C 
ATOM      2  C   UNL     1       4.163   5.265  18.441  0.00  0.00    +0.000 C 
ATOM      3  C   UNL     1       3.991   3.820  17.953  0.00  0.00    +0.000 C 
ATOM      4  O   UNL     1       4.431   3.493  16.864  0.00  0.00    +0.000 OA
ATOM      5  C   UNL     1       3.182   2.921  18.969  0.00  0.00    +0.000 C 
ATOM      6  C   UNL     1       4.478   2.631  19.796  0.00  0.00    +0.000 C 
ATOM      7  C   UNL     1       2.815   1.464  18.549  0.00  0.00    +0.000 C 
ATOM      8  C   UNL     1       1.352   1.209  18.774  0.00  0.00    +0.000 C 
ATOM      9  C   UNL     1       0.650   2.530  18.799  0.00  0.00    +0.000 C 
ATOM     10  C   UNL     1       1.658   3.685  19.142  0.00  0.00    +0.000 C 
ATOM     11  C   UNL     1       0.744   4.403  20.209  0.00  0.00    +0.000 C 
ATOM     12  C   UNL     1       1.743   4.913  18.143  0.00  0.00    +0.000 C 
ENDROOT
BRANCH   1  13
ATOM     13  C   UNL     1       2.673   7.063  19.454  0.00  0.00    +0.000 C 
BRANCH  13  15
ATOM     14  C   UNL     1       1.312   9.131  19.229  0.00  0.00    +0.000 C 
ATOM     15  C   UNL     1       2.240   8.291  18.674  0.00  0.00    +0.000 C 
ATOM     16  C   UNL     1       2.841   8.437  17.313  0.00  0.00    +0.000 C 
BRANCH  14  17
ATOM     17  C   UNL     1       0.884  10.493  18.676  0.00  0.00    +0.000 C 
BRANCH  17  23
ATOM     18  C   UNL     1      -2.772  10.555  17.493  0.00  0.00    +0.000 A 
ATOM     19  C   UNL     1      -3.308  11.458  18.410  0.00  0.00    +0.000 A 
ATOM     20  C   UNL     1      -2.531  12.001  19.450  0.00  0.00    +0.000 A 
ATOM     21  C   UNL     1      -3.143  12.971  20.431  0.00  0.00    +0.000 C 
ATOM     22  C   UNL     1      -1.186  11.638  19.531  0.00  0.00    +0.000 A 
ATOM     23  C   UNL     1      -0.614  10.739  18.584  0.00  0.00    +0.000 A 
ATOM     24  C   UNL     1      -1.425  10.180  17.624  0.00  0.00    +0.000 A 
BRANCH  18  26
ATOM     25  C   UNL     1      -2.895  10.214  15.172  0.00  0.00    +0.000 C 
ATOM     26  O   UNL     1      -3.451   9.986  16.456  0.00  0.00    +0.000 OA
ENDBRANCH  18  26
BRANCH  22  27
ATOM     27  O   UNL     1      -0.343  12.154  20.481  0.00  0.00    +0.000 OA
ATOM     28  H   UNL     1      -0.243  11.520  21.195  0.00  0.00    +0.000 HD
ENDBRANCH  22  27
ENDBRANCH  17  23
ENDBRANCH  14  17
ENDBRANCH  13  15
ENDBRANCH   1  13
BRANCH   2  29
ATOM     29  C   UNL     1       5.495   5.766  18.996  0.00  0.00    +0.000 C 
BRANCH  29  30
ATOM     30  C   UNL     1       6.791   5.614  18.148  0.00  0.00    +0.000 C 
ATOM     31  C   UNL     1       6.638   6.238  16.763  0.00  0.00    +0.000 C 
ATOM     32  C   UNL     1       7.976   6.288  18.878  0.00  0.00    +0.000 C 
BRANCH  30  33
ATOM     33  O   UNL     1       7.154   4.238  18.009  0.00  0.00    +0.000 OA
ATOM     34  H   UNL     1       7.856   4.169  17.332  0.00  0.00    +0.000 HD
ENDBRANCH  30  33
ENDBRANCH  29  30
ENDBRANCH   2  29
TORSDOF 9
ENDMDL
MODEL 3
REMARK VINA RESULT:      -8.2      2.338      3.799
REMARK  Name = 
REMARK  16 active torsions:
REMARK  status: ('A' for Active; 'I' for Inactive)
REMARK    1  A    between atoms: C_1  and  O_2
REMARK    2  A    between atoms: O_2  and  C_3
REMARK    3  A    between atoms: C_5  and  C_6
REMARK    4  A    between atoms: C_7  and  O_8
REMARK    5  A    between atoms: C_9  and  C_10
REMARK    6  A    between atoms: C_10  and  C_11
REMARK    7  A    between atoms: C_12  and  C_13
REMARK    8  A    between atoms: C_12  and  C_14
REMARK    9  A    between atoms: C_14  and  C_15
REMARK   10  A    between atoms: C_16  and  C_17
REMARK   11  A    between atoms: C_17  and  C_18
REMARK   12  A    between atoms: C_18  and  C_19
REMARK   13  A    between atoms: C_18  and  C_20
REMARK   14  A    between atoms: C_18  and  O_21
REMARK   15  A    between atoms: C_24  and  C_25
REMARK   16  A    between atoms: C_29  and  C_30
REMARK                            x       y       z     vdW  Elec       q    Type
REMARK                         _______ _______ _______ _____ _____    ______ ____
ROOT
ATOM      1  C   UNL     1       2.950   6.037  18.515  0.00  0.00    +0.000 C 
ATOM      2  C   UNL     1       4.170   5.566  18.168  0.00  0.00    +0.000 C 
ATOM      3  C   UNL     1       4.001   4.113  17.701  0.00  0.00    +0.000 C 
ATOM      4  O   UNL     1       4.315   3.802  16.565  0.00  0.00    +0.000 OA
ATOM      5  C   UNL     1       3.367   3.182  18.809  0.00  0.00    +0.000 C 
ATOM      6  C   UNL     1       4.768   2.952  19.466  0.00  0.00    +0.000 C 
ATOM      7  C   UNL     1       3.015   1.708  18.434  0.00  0.00    +0.000 C 
ATOM      8  C   UNL     1       1.605   1.389  18.841  0.00  0.00    +0.000 C 
ATOM      9  C   UNL     1       0.854   2.679  18.956  0.00  0.00    +0.000 C 
ATOM     10  C   UNL     1       1.845   3.879  19.173  0.00  0.00    +0.000 C 
ATOM     11  C   UNL     1       1.041   4.559  20.348  0.00  0.00    +0.000 C 
ATOM     12  C   UNL     1       1.749   5.106  18.175  0.00  0.00    +0.000 C 
ENDROOT
BRANCH   1  13
ATOM     13  C   UNL     1       2.740   7.299  19.363  0.00  0.00    +0.000 C 
BRANCH  13  15
ATOM     14  C   UNL     1       1.222   9.268  19.382  0.00  0.00    +0.000 C 
ATOM     15  C   UNL     1       2.083   8.478  18.668  0.00  0.00    +0.000 C 
ATOM     16  C   UNL     1       2.403   8.630  17.216  0.00  0.00    +0.000 C 
BRANCH  14  17
ATOM     17  C   UNL     1       0.605  10.586  18.906  0.00  0.00    +0.000 C 
BRANCH  17  23
ATOM     18  C   UNL     1       1.403  13.652  21.081  0.00  0.00    +0.000 A 
ATOM     19  C   UNL     1       2.302  14.314  20.245  0.00  0.00    +0.000 A 
ATOM     20  C   UNL     1       2.712  13.762  19.018  0.00  0.00    +0.000 A 
ATOM     21  C   UNL     1       3.691  14.501  18.140  0.00  0.00    +0.000 C 
ATOM     22  C   UNL     1       2.173  12.534  18.632  0.00  0.00    +0.000 A 
ATOM     23  C   UNL     1       1.231  11.857  19.460  0.00  0.00    +0.000 A 
ATOM     24  C   UNL     1       0.909  12.400  20.682  0.00  0.00    +0.000 A 
BRANCH  18  26
ATOM     25  C   UNL     1       0.742  15.518  22.345  0.00  0.00    +0.000 C 
ATOM     26  O   UNL     1       0.952  14.117  22.281  0.00  0.00    +0.000 OA
ENDBRANCH  18  26
BRANCH  22  27
ATOM     27  O   UNL     1       2.478  11.943  17.433  0.00  0.00    +0.000 OA
ATOM     28  H   UNL     1       3.407  12.085  17.237  0.00  0.00    +0.000 HD
ENDBRANCH  22  27
ENDBRANCH  17  23
ENDBRANCH  14  17
ENDBRANCH  13  15
ENDBRANCH   1  13
BRANCH   2  29
ATOM     29  C   UNL     1       5.537   6.127  18.553  0.00  0.00    +0.000 C 
BRANCH  29  30
ATOM     30  C   UNL     1       6.672   6.190  17.490  0.00  0.00    +0.000 C 
ATOM     31  C   UNL     1       7.590   7.389  17.711  0.00  0.00    +0.000 C 
ATOM     32  C   UNL     1       7.513   4.893  17.546  0.00  0.00    +0.000 C 
BRANCH  30  33
ATOM     33  O   UNL     1       6.133   6.244  16.167  0.00  0.00    +0.000 OA
ATOM     34  H   UNL     1       6.712   5.725  15.574  0.00  0.00    +0.000 HD
ENDBRANCH  30  33
ENDBRANCH  29  30
ENDBRANCH   2  29
TORSDOF 9
ENDMDL
MODEL 4
REMARK VINA RESULT:      -8.0      2.106      3.379
REMARK  Name = 
REMARK  16 active torsions:
REMARK  status: ('A' for Active; 'I' for Inactive)
REMARK    1  A    between atoms: C_1  and  O_2
REMARK    2  A    between atoms: O_2  and  C_3
REMARK    3  A    between atoms: C_5  and  C_6
REMARK    4  A    between atoms: C_7  and  O_8
REMARK    5  A    between atoms: C_9  and  C_10
REMARK    6  A    between atoms: C_10  and  C_11
REMARK    7  A    between atoms: C_12  and  C_13
REMARK    8  A    between atoms: C_12  and  C_14
REMARK    9  A    between atoms: C_14  and  C_15
REMARK   10  A    between atoms: C_16  and  C_17
REMARK   11  A    between atoms: C_17  and  C_18
REMARK   12  A    between atoms: C_18  and  C_19
REMARK   13  A    between atoms: C_18  and  C_20
REMARK   14  A    between atoms: C_18  and  O_21
REMARK   15  A    between atoms: C_24  and  C_25
REMARK   16  A    between atoms: C_29  and  C_30
REMARK                            x       y       z     vdW  Elec       q    Type
REMARK                         _______ _______ _______ _____ _____    ______ ____
ROOT
ATOM      1  C   UNL     1       2.933   6.126  18.514  0.00  0.00    +0.000 C 
ATOM      2  C   UNL     1       4.143   5.659  18.131  0.00  0.00    +0.000 C 
ATOM      3  C   UNL     1       3.962   4.214  17.645  0.00  0.00    +0.000 C 
ATOM      4  O   UNL     1       4.249   3.921  16.498  0.00  0.00    +0.000 OA
ATOM      5  C   UNL     1       3.351   3.266  18.752  0.00  0.00    +0.000 C 
ATOM      6  C   UNL     1       4.767   3.024  19.373  0.00  0.00    +0.000 C 
ATOM      7  C   UNL     1       2.989   1.799  18.362  0.00  0.00    +0.000 C 
ATOM      8  C   UNL     1       1.587   1.476  18.796  0.00  0.00    +0.000 C 
ATOM      9  C   UNL     1       0.841   2.764  18.950  0.00  0.00    +0.000 C 
ATOM     10  C   UNL     1       1.839   3.959  19.163  0.00  0.00    +0.000 C 
ATOM     11  C   UNL     1       1.063   4.621  20.367  0.00  0.00    +0.000 C 
ATOM     12  C   UNL     1       1.722   5.202  18.187  0.00  0.00    +0.000 C 
ENDROOT
BRANCH   1  13
ATOM     13  C   UNL     1       2.744   7.374  19.388  0.00  0.00    +0.000 C 
BRANCH  13  15
ATOM     14  C   UNL     1       0.795   8.902  19.612  0.00  0.00    +0.000 C 
ATOM     15  C   UNL     1       1.830   8.453  18.835  0.00  0.00    +0.000 C 
ATOM     16  C   UNL     1       2.119   8.888  17.435  0.00  0.00    +0.000 C 
BRANCH  14  17
ATOM     17  C   UNL     1      -0.117  10.091  19.297  0.00  0.00    +0.000 C 
BRANCH  17  23
ATOM     18  C   UNL     1      -0.332  12.761  22.053  0.00  0.00    +0.000 A 
ATOM     19  C   UNL     1       0.408  13.782  21.459  0.00  0.00    +0.000 A 
ATOM     20  C   UNL     1       1.037  13.608  20.212  0.00  0.00    +0.000 A 
ATOM     21  C   UNL     1       1.837  14.731  19.600  0.00  0.00    +0.000 C 
ATOM     22  C   UNL     1       0.879  12.387  19.556  0.00  0.00    +0.000 A 
ATOM     23  C   UNL     1       0.101  11.342  20.135  0.00  0.00    +0.000 A 
ATOM     24  C   UNL     1      -0.440  11.530  21.385  0.00  0.00    +0.000 A 
BRANCH  18  26
ATOM     25  C   UNL     1      -1.204  14.166  23.722  0.00  0.00    +0.000 C 
ATOM     26  O   UNL     1      -0.974  12.847  23.254  0.00  0.00    +0.000 OA
ENDBRANCH  18  26
BRANCH  22  27
ATOM     27  O   UNL     1       1.415  12.145  18.318  0.00  0.00    +0.000 OA
ATOM     28  H   UNL     1       2.000  12.867  18.079  0.00  0.00    +0.000 HD
ENDBRANCH  22  27
ENDBRANCH  17  23
ENDBRANCH  14  17
ENDBRANCH  13  15
ENDBRANCH   1  13
BRANCH   2  29
ATOM     29  C   UNL     1       5.520   6.212  18.494  0.00  0.00    +0.000 C 
BRANCH  29  30
ATOM     30  C   UNL     1       6.634   6.276  17.410  0.00  0.00    +0.000 C 
ATOM     31  C   UNL     1       7.568   7.465  17.626  0.00  0.00    +0.000 C 
ATOM     32  C   UNL     1       7.464   4.972  17.435  0.00  0.00    +0.000 C 
BRANCH  30  33
ATOM     33  O   UNL     1       6.071   6.351  16.098  0.00  0.00    +0.000 OA
ATOM     34  H   UNL     1       6.416   7.152  15.657  0.00  0.00    +0.000 HD
ENDBRANCH  30  33
ENDBRANCH  29  30
ENDBRANCH   2  29
TORSDOF 9
ENDMDL
MODEL 5
REMARK VINA RESULT:      -7.9      1.056      2.455
REMARK  Name = 
REMARK  16 active torsions:
REMARK  status: ('A' for Active; 'I' for Inactive)
REMARK    1  A    between atoms: C_1  and  O_2
REMARK    2  A    between atoms: O_2  and  C_3
REMARK    3  A    between atoms: C_5  and  C_6
REMARK    4  A    between atoms: C_7  and  O_8
REMARK    5  A    between atoms: C_9  and  C_10
REMARK    6  A    between atoms: C_10  and  C_11
REMARK    7  A    between atoms: C_12  and  C_13
REMARK    8  A    between atoms: C_12  and  C_14
REMARK    9  A    between atoms: C_14  and  C_15
REMARK   10  A    between atoms: C_16  and  C_17
REMARK   11  A    between atoms: C_17  and  C_18
REMARK   12  A    between atoms: C_18  and  C_19
REMARK   13  A    between atoms: C_18  and  C_20
REMARK   14  A    between atoms: C_18  and  O_21
REMARK   15  A    between atoms: C_24  and  C_25
REMARK   16  A    between atoms: C_29  and  C_30
REMARK                            x       y       z     vdW  Elec       q    Type
REMARK                         _______ _______ _______ _____ _____    ______ ____
ROOT
ATOM      1  C   UNL     1       2.714   6.040  18.469  0.00  0.00    +0.000 C 
ATOM      2  C   UNL     1       3.954   5.667  18.076  0.00  0.00    +0.000 C 
ATOM      3  C   UNL     1       3.878   4.215  17.582  0.00  0.00    +0.000 C 
ATOM      4  O   UNL     1       4.179   3.952  16.431  0.00  0.00    +0.000 OA
ATOM      5  C   UNL     1       3.347   3.218  18.687  0.00  0.00    +0.000 C 
ATOM      6  C   UNL     1       4.781   3.079  19.298  0.00  0.00    +0.000 C 
ATOM      7  C   UNL     1       3.093   1.730  18.290  0.00  0.00    +0.000 C 
ATOM      8  C   UNL     1       1.723   1.300  18.730  0.00  0.00    +0.000 C 
ATOM      9  C   UNL     1       0.884   2.528  18.896  0.00  0.00    +0.000 C 
ATOM     10  C   UNL     1       1.790   3.793  19.111  0.00  0.00    +0.000 C 
ATOM     11  C   UNL     1       0.975   4.388  20.324  0.00  0.00    +0.000 C 
ATOM     12  C   UNL     1       1.574   5.029  18.143  0.00  0.00    +0.000 C 
ENDROOT
BRANCH   1  13
ATOM     13  C   UNL     1       2.438   7.265  19.352  0.00  0.00    +0.000 C 
BRANCH  13  15
ATOM     14  C   UNL     1       1.286   9.466  19.258  0.00  0.00    +0.000 C 
ATOM     15  C   UNL     1       2.088   8.553  18.628  0.00  0.00    +0.000 C 
ATOM     16  C   UNL     1       2.618   8.675  17.236  0.00  0.00    +0.000 C 
BRANCH  14  17
ATOM     17  C   UNL     1       0.969  10.880  18.763  0.00  0.00    +0.000 C 
BRANCH  17  23
ATOM     18  C   UNL     1      -1.945  12.464  20.704  0.00  0.00    +0.000 A 
ATOM     19  C   UNL     1      -2.993  12.204  19.822  0.00  0.00    +0.000 A 
ATOM     20  C   UNL     1      -2.774  11.586  18.577  0.00  0.00    +0.000 A 
ATOM     21  C   UNL     1      -3.928  11.324  17.643  0.00  0.00    +0.000 C 
ATOM     22  C   UNL     1      -1.472  11.204  18.249  0.00  0.00    +0.000 A 
ATOM     23  C   UNL     1      -0.393  11.435  19.151  0.00  0.00    +0.000 A 
ATOM     24  C   UNL     1      -0.641  12.103  20.327  0.00  0.00    +0.000 A 
BRANCH  18  26
ATOM     25  C   UNL     1      -1.426  12.377  22.993  0.00  0.00    +0.000 C 
ATOM     26  O   UNL     1      -2.071  13.054  21.927  0.00  0.00    +0.000 OA
ENDBRANCH  18  26
BRANCH  22  27
ATOM     27  O   UNL     1      -1.172  10.553  17.080  0.00  0.00    +0.000 OA
ATOM     28  H   UNL     1      -0.438  10.997  16.649  0.00  0.00    +0.000 HD
ENDBRANCH  22  27
ENDBRANCH  17  23
ENDBRANCH  14  17
ENDBRANCH  13  15
ENDBRANCH   1  13
BRANCH   2  29
ATOM     29  C   UNL     1       5.288   6.319  18.434  0.00  0.00    +0.000 C 
BRANCH  29  30
ATOM     30  C   UNL     1       6.407   6.425  17.359  0.00  0.00    +0.000 C 
ATOM     31  C   UNL     1       7.290   7.651  17.578  0.00  0.00    +0.000 C 
ATOM     32  C   UNL     1       7.289   5.155  17.395  0.00  0.00    +0.000 C 
BRANCH  30  33
ATOM     33  O   UNL     1       5.851   6.472  16.042  0.00  0.00    +0.000 OA
ATOM     34  H   UNL     1       5.596   5.565  15.780  0.00  0.00    +0.000 HD
ENDBRANCH  30  33
ENDBRANCH  29  30
ENDBRANCH   2  29
TORSDOF 9
ENDMDL
MODEL 6
REMARK VINA RESULT:      -7.9      2.306      3.247
REMARK  Name = 
REMARK  16 active torsions:
REMARK  status: ('A' for Active; 'I' for Inactive)
REMARK    1  A    between atoms: C_1  and  O_2
REMARK    2  A    between atoms: O_2  and  C_3
REMARK    3  A    between atoms: C_5  and  C_6
REMARK    4  A    between atoms: C_7  and  O_8
REMARK    5  A    between atoms: C_9  and  C_10
REMARK    6  A    between atoms: C_10  and  C_11
REMARK    7  A    between atoms: C_12  and  C_13
REMARK    8  A    between atoms: C_12  and  C_14
REMARK    9  A    between atoms: C_14  and  C_15
REMARK   10  A    between atoms: C_16  and  C_17
REMARK   11  A    between atoms: C_17  and  C_18
REMARK   12  A    between atoms: C_18  and  C_19
REMARK   13  A    between atoms: C_18  and  C_20
REMARK   14  A    between atoms: C_18  and  O_21
REMARK   15  A    between atoms: C_24  and  C_25
REMARK   16  A    between atoms: C_29  and  C_30
REMARK                            x       y       z     vdW  Elec       q    Type
REMARK                         _______ _______ _______ _____ _____    ______ ____
ROOT
ATOM      1  C   UNL     1       3.004   6.212  18.523  0.00  0.00    +0.000 C 
ATOM      2  C   UNL     1       4.176   5.682  18.105  0.00  0.00    +0.000 C 
ATOM      3  C   UNL     1       3.904   4.252  17.620  0.00  0.00    +0.000 C 
ATOM      4  O   UNL     1       4.144   3.950  16.463  0.00  0.00    +0.000 OA
ATOM      5  C   UNL     1       3.274   3.332  18.739  0.00  0.00    +0.000 C 
ATOM      6  C   UNL     1       4.692   3.012  19.320  0.00  0.00    +0.000 C 
ATOM      7  C   UNL     1       2.823   1.889  18.354  0.00  0.00    +0.000 C 
ATOM      8  C   UNL     1       1.418   1.639  18.826  0.00  0.00    +0.000 C 
ATOM      9  C   UNL     1       0.747   2.965  19.005  0.00  0.00    +0.000 C 
ATOM     10  C   UNL     1       1.813   4.103  19.194  0.00  0.00    +0.000 C 
ATOM     11  C   UNL     1       1.108   4.800  20.422  0.00  0.00    +0.000 C 
ATOM     12  C   UNL     1       1.737   5.355  18.226  0.00  0.00    +0.000 C 
ENDROOT
BRANCH   1  13
ATOM     13  C   UNL     1       2.907   7.464  19.406  0.00  0.00    +0.000 C 
BRANCH  13  15
ATOM     14  C   UNL     1       0.943   8.835  20.076  0.00  0.00    +0.000 C 
ATOM     15  C   UNL     1       1.790   8.438  19.075  0.00  0.00    +0.000 C 
ATOM     16  C   UNL     1       1.683   8.832  17.638  0.00  0.00    +0.000 C 
BRANCH  14  17
ATOM     17  C   UNL     1      -0.122   9.929  19.972  0.00  0.00    +0.000 C 
BRANCH  17  23
ATOM     18  C   UNL     1       1.882  13.200  20.207  0.00  0.00    +0.000 A 
ATOM     19  C   UNL     1       1.171  13.848  21.217  0.00  0.00    +0.000 A 
ATOM     20  C   UNL     1       0.013  13.283  21.782  0.00  0.00    +0.000 A 
ATOM     21  C   UNL     1      -0.737  14.012  22.869  0.00  0.00    +0.000 C 
ATOM     22  C   UNL     1      -0.400  12.029  21.329  0.00  0.00    +0.000 A 
ATOM     23  C   UNL     1       0.331  11.339  20.319  0.00  0.00    +0.000 A 
ATOM     24  C   UNL     1       1.417  11.958  19.746  0.00  0.00    +0.000 A 
BRANCH  18  26
ATOM     25  C   UNL     1       3.820  14.510  20.421  0.00  0.00    +0.000 C 
ATOM     26  O   UNL     1       3.012  13.675  19.608  0.00  0.00    +0.000 OA
ENDBRANCH  18  26
BRANCH  22  27
ATOM     27  O   UNL     1      -1.488  11.381  21.856  0.00  0.00    +0.000 OA
ATOM     28  H   UNL     1      -2.236  11.484  21.264  0.00  0.00    +0.000 HD
ENDBRANCH  22  27
ENDBRANCH  17  23
ENDBRANCH  14  17
ENDBRANCH  13  15
ENDBRANCH   1  13
BRANCH   2  29
ATOM     29  C   UNL     1       5.590   6.159  18.431  0.00  0.00    +0.000 C 
BRANCH  29  30
ATOM     30  C   UNL     1       6.656   6.243  17.300  0.00  0.00    +0.000 C 
ATOM     31  C   UNL     1       7.620   7.407  17.515  0.00  0.00    +0.000 C 
ATOM     32  C   UNL     1       7.461   4.924  17.242  0.00  0.00    +0.000 C 
BRANCH  30  33
ATOM     33  O   UNL     1       6.034   6.374  16.019  0.00  0.00    +0.000 OA
ATOM     34  H   UNL     1       5.687   5.499  15.752  0.00  0.00    +0.000 HD
ENDBRANCH  30  33
ENDBRANCH  29  30
ENDBRANCH   2  29
TORSDOF 9
ENDMDL
MODEL 7
REMARK VINA RESULT:      -7.8      1.657      2.915
REMARK  Name = 
REMARK  16 active torsions:
REMARK  status: ('A' for Active; 'I' for Inactive)
REMARK    1  A    between atoms: C_1  and  O_2
REMARK    2  A    between atoms: O_2  and  C_3
REMARK    3  A    between atoms: C_5  and  C_6
REMARK    4  A    between atoms: C_7  and  O_8
REMARK    5  A    between atoms: C_9  and  C_10
REMARK    6  A    between atoms: C_10  and  C_11
REMARK    7  A    between atoms: C_12  and  C_13
REMARK    8  A    between atoms: C_12  and  C_14
REMARK    9  A    between atoms: C_14  and  C_15
REMARK   10  A    between atoms: C_16  and  C_17
REMARK   11  A    between atoms: C_17  and  C_18
REMARK   12  A    between atoms: C_18  and  C_19
REMARK   13  A    between atoms: C_18  and  C_20
REMARK   14  A    between atoms: C_18  and  O_21
REMARK   15  A    between atoms: C_24  and  C_25
REMARK   16  A    between atoms: C_29  and  C_30
REMARK                            x       y       z     vdW  Elec       q    Type
REMARK                         _______ _______ _______ _____ _____    ______ ____
ROOT
ATOM      1  C   UNL     1       3.089   6.017  18.686  0.00  0.00    +0.000 C 
ATOM      2  C   UNL     1       4.227   5.470  18.201  0.00  0.00    +0.000 C 
ATOM      3  C   UNL     1       3.883   4.087  17.631  0.00  0.00    +0.000 C 
ATOM      4  O   UNL     1       4.079   3.853  16.452  0.00  0.00    +0.000 OA
ATOM      5  C   UNL     1       3.246   3.121  18.707  0.00  0.00    +0.000 C 
ATOM      6  C   UNL     1       4.664   2.707  19.224  0.00  0.00    +0.000 C 
ATOM      7  C   UNL     1       2.725   1.725  18.243  0.00  0.00    +0.000 C 
ATOM      8  C   UNL     1       1.325   1.500  18.738  0.00  0.00    +0.000 C 
ATOM      9  C   UNL     1       0.714   2.837  19.022  0.00  0.00    +0.000 C 
ATOM     10  C   UNL     1       1.831   3.917  19.254  0.00  0.00    +0.000 C 
ATOM     11  C   UNL     1       1.188   4.558  20.544  0.00  0.00    +0.000 C 
ATOM     12  C   UNL     1       1.780   5.233  18.372  0.00  0.00    +0.000 C 
ENDROOT
BRANCH   1  13
ATOM     13  C   UNL     1       3.067   7.211  19.651  0.00  0.00    +0.000 C 
BRANCH  13  15
ATOM     14  C   UNL     1       1.761   8.853  18.317  0.00  0.00    +0.000 C 
ATOM     15  C   UNL     1       1.907   8.179  19.500  0.00  0.00    +0.000 C 
ATOM     16  C   UNL     1       1.049   8.352  20.711  0.00  0.00    +0.000 C 
BRANCH  14  17
ATOM     17  C   UNL     1       0.569   9.729  17.921  0.00  0.00    +0.000 C 
BRANCH  17  23
ATOM     18  C   UNL     1       1.488  13.115  19.490  0.00  0.00    +0.000 A 
ATOM     19  C   UNL     1       0.248  13.485  20.010  0.00  0.00    +0.000 A 
ATOM     20  C   UNL     1      -0.900  12.698  19.810  0.00  0.00    +0.000 A 
ATOM     21  C   UNL     1      -2.228  13.130  20.380  0.00  0.00    +0.000 C 
ATOM     22  C   UNL     1      -0.769  11.506  19.095  0.00  0.00    +0.000 A 
ATOM     23  C   UNL     1       0.496  11.098  18.582  0.00  0.00    +0.000 A 
ATOM     24  C   UNL     1       1.579  11.930  18.743  0.00  0.00    +0.000 A 
BRANCH  18  26
ATOM     25  C   UNL     1       3.096  13.962  20.978  0.00  0.00    +0.000 C 
ATOM     26  O   UNL     1       2.648  13.816  19.641  0.00  0.00    +0.000 OA
ENDBRANCH  18  26
BRANCH  22  27
ATOM     27  O   UNL     1      -1.823  10.653  18.892  0.00  0.00    +0.000 OA
ATOM     28  H   UNL     1      -1.676   9.843  19.386  0.00  0.00    +0.000 HD
ENDBRANCH  22  27
ENDBRANCH  17  23
ENDBRANCH  14  17
ENDBRANCH  13  15
ENDBRANCH   1  13
BRANCH   2  29
ATOM     29  C   UNL     1       5.668   5.868  18.515  0.00  0.00    +0.000 C 
BRANCH  29  30
ATOM     30  C   UNL     1       6.686   6.058  17.354  0.00  0.00    +0.000 C 
ATOM     31  C   UNL     1       7.653   7.207  17.630  0.00  0.00    +0.000 C 
ATOM     32  C   UNL     1       7.495   4.756  17.150  0.00  0.00    +0.000 C 
BRANCH  30  33
ATOM     33  O   UNL     1       6.013   6.294  16.115  0.00  0.00    +0.000 OA
ATOM     34  H   UNL     1       5.564   7.162  16.166  0.00  0.00    +0.000 HD
ENDBRANCH  30  33
ENDBRANCH  29  30
ENDBRANCH   2  29
TORSDOF 9
ENDMDL
MODEL 8
REMARK VINA RESULT:      -7.8      2.021      3.116
REMARK  Name = 
REMARK  16 active torsions:
REMARK  status: ('A' for Active; 'I' for Inactive)
REMARK    1  A    between atoms: C_1  and  O_2
REMARK    2  A    between atoms: O_2  and  C_3
REMARK    3  A    between atoms: C_5  and  C_6
REMARK    4  A    between atoms: C_7  and  O_8
REMARK    5  A    between atoms: C_9  and  C_10
REMARK    6  A    between atoms: C_10  and  C_11
REMARK    7  A    between atoms: C_12  and  C_13
REMARK    8  A    between atoms: C_12  and  C_14
REMARK    9  A    between atoms: C_14  and  C_15
REMARK   10  A    between atoms: C_16  and  C_17
REMARK   11  A    between atoms: C_17  and  C_18
REMARK   12  A    between atoms: C_18  and  C_19
REMARK   13  A    between atoms: C_18  and  C_20
REMARK   14  A    between atoms: C_18  and  O_21
REMARK   15  A    between atoms: C_24  and  C_25
REMARK   16  A    between atoms: C_29  and  C_30
REMARK                            x       y       z     vdW  Elec       q    Type
REMARK                         _______ _______ _______ _____ _____    ______ ____
ROOT
ATOM      1  C   UNL     1       3.063   5.997  18.763  0.00  0.00    +0.000 C 
ATOM      2  C   UNL     1       4.197   5.473  18.244  0.00  0.00    +0.000 C 
ATOM      3  C   UNL     1       3.849   4.115  17.619  0.00  0.00    +0.000 C 
ATOM      4  O   UNL     1       4.034   3.931  16.429  0.00  0.00    +0.000 OA
ATOM      5  C   UNL     1       3.222   3.103  18.659  0.00  0.00    +0.000 C 
ATOM      6  C   UNL     1       4.645   2.669  19.144  0.00  0.00    +0.000 C 
ATOM      7  C   UNL     1       2.698   1.728  18.140  0.00  0.00    +0.000 C 
ATOM      8  C   UNL     1       1.302   1.480  18.637  0.00  0.00    +0.000 C 
ATOM      9  C   UNL     1       0.693   2.803  18.984  0.00  0.00    +0.000 C 
ATOM     10  C   UNL     1       1.811   3.873  19.252  0.00  0.00    +0.000 C 
ATOM     11  C   UNL     1       1.180   4.458  20.574  0.00  0.00    +0.000 C 
ATOM     12  C   UNL     1       1.752   5.226  18.427  0.00  0.00    +0.000 C 
ENDROOT
BRANCH   1  13
ATOM     13  C   UNL     1       3.049   7.149  19.778  0.00  0.00    +0.000 C 
BRANCH  13  15
ATOM     14  C   UNL     1       1.857   8.927  18.513  0.00  0.00    +0.000 C 
ATOM     15  C   UNL     1       1.919   8.154  19.642  0.00  0.00    +0.000 C 
ATOM     16  C   UNL     1       0.995   8.248  20.812  0.00  0.00    +0.000 C 
BRANCH  14  17
ATOM     17  C   UNL     1       0.710   9.862  18.124  0.00  0.00    +0.000 C 
BRANCH  17  23
ATOM     18  C   UNL     1      -0.162  13.005  20.156  0.00  0.00    +0.000 A 
ATOM     19  C   UNL     1       0.769  13.900  19.630  0.00  0.00    +0.000 A 
ATOM     20  C   UNL     1       1.723  13.496  18.678  0.00  0.00    +0.000 A 
ATOM     21  C   UNL     1       2.722  14.487  18.133  0.00  0.00    +0.000 C 
ATOM     22  C   UNL     1       1.701  12.171  18.240  0.00  0.00    +0.000 A 
ATOM     23  C   UNL     1       0.737  11.251  18.745  0.00  0.00    +0.000 A 
ATOM     24  C   UNL     1      -0.133  11.670  19.724  0.00  0.00    +0.000 A 
BRANCH  18  26
ATOM     25  C   UNL     1      -1.938  12.229  21.483  0.00  0.00    +0.000 C 
ATOM     26  O   UNL     1      -1.120  13.314  21.077  0.00  0.00    +0.000 OA
ENDBRANCH  18  26
BRANCH  22  27
ATOM     27  O   UNL     1       2.560  11.702  17.280  0.00  0.00    +0.000 OA
ATOM     28  H   UNL     1       2.770  12.410  16.667  0.00  0.00    +0.000 HD
ENDBRANCH  22  27
ENDBRANCH  17  23
ENDBRANCH  14  17
ENDBRANCH  13  15
ENDBRANCH   1  13
BRANCH   2  29
ATOM     29  C   UNL     1       5.640   5.859  18.562  0.00  0.00    +0.000 C 
BRANCH  29  30
ATOM     30  C   UNL     1       6.656   6.067  17.402  0.00  0.00    +0.000 C 
ATOM     31  C   UNL     1       7.642   7.193  17.707  0.00  0.00    +0.000 C 
ATOM     32  C   UNL     1       7.443   4.759  17.155  0.00  0.00    +0.000 C 
BRANCH  30  33
ATOM     33  O   UNL     1       5.980   6.351  16.174  0.00  0.00    +0.000 OA
ATOM     34  H   UNL     1       5.397   5.596  15.959  0.00  0.00    +0.000 HD
ENDBRANCH  30  33
ENDBRANCH  29  30
ENDBRANCH   2  29
TORSDOF 9
ENDMDL
MODEL 9
REMARK VINA RESULT:      -7.8      2.045      3.428
REMARK  Name = 
REMARK  16 active torsions:
REMARK  status: ('A' for Active; 'I' for Inactive)
REMARK    1  A    between atoms: C_1  and  O_2
REMARK    2  A    between atoms: O_2  and  C_3
REMARK    3  A    between atoms: C_5  and  C_6
REMARK    4  A    between atoms: C_7  and  O_8
REMARK    5  A    between atoms: C_9  and  C_10
REMARK    6  A    between atoms: C_10  and  C_11
REMARK    7  A    between atoms: C_12  and  C_13
REMARK    8  A    between atoms: C_12  and  C_14
REMARK    9  A    between atoms: C_14  and  C_15
REMARK   10  A    between atoms: C_16  and  C_17
REMARK   11  A    between atoms: C_17  and  C_18
REMARK   12  A    between atoms: C_18  and  C_19
REMARK   13  A    between atoms: C_18  and  C_20
REMARK   14  A    between atoms: C_18  and  O_21
REMARK   15  A    between atoms: C_24  and  C_25
REMARK   16  A    between atoms: C_29  and  C_30
REMARK                            x       y       z     vdW  Elec       q    Type
REMARK                         _______ _______ _______ _____ _____    ______ ____
ROOT
ATOM      1  C   UNL     1       2.977   6.256  18.509  0.00  0.00    +0.000 C 
ATOM      2  C   UNL     1       4.162   5.753  18.094  0.00  0.00    +0.000 C 
ATOM      3  C   UNL     1       3.926   4.313  17.619  0.00  0.00    +0.000 C 
ATOM      4  O   UNL     1       4.172   4.008  16.465  0.00  0.00    +0.000 OA
ATOM      5  C   UNL     1       3.320   3.386  18.746  0.00  0.00    +0.000 C 
ATOM      6  C   UNL     1       4.745   3.105  19.328  0.00  0.00    +0.000 C 
ATOM      7  C   UNL     1       2.904   1.929  18.372  0.00  0.00    +0.000 C 
ATOM      8  C   UNL     1       1.507   1.647  18.847  0.00  0.00    +0.000 C 
ATOM      9  C   UNL     1       0.803   2.957  19.016  0.00  0.00    +0.000 C 
ATOM     10  C   UNL     1       1.840   4.123  19.197  0.00  0.00    +0.000 C 
ATOM     11  C   UNL     1       1.119   4.811  20.420  0.00  0.00    +0.000 C 
ATOM     12  C   UNL     1       1.732   5.366  18.220  0.00  0.00    +0.000 C 
ENDROOT
BRANCH   1  13
ATOM     13  C   UNL     1       2.850   7.512  19.383  0.00  0.00    +0.000 C 
BRANCH  13  15
ATOM     14  C   UNL     1       0.952   9.069  19.779  0.00  0.00    +0.000 C 
ATOM     15  C   UNL     1       1.878   8.574  18.900  0.00  0.00    +0.000 C 
ATOM     16  C   UNL     1       1.991   8.942  17.456  0.00  0.00    +0.000 C 
BRANCH  14  17
ATOM     17  C   UNL     1       0.013  10.252  19.527  0.00  0.00    +0.000 C 
BRANCH  17  23
ATOM     18  C   UNL     1       2.088  13.250  20.740  0.00  0.00    +0.000 A 
ATOM     19  C   UNL     1       1.498  14.270  19.995  0.00  0.00    +0.000 A 
ATOM     20  C   UNL     1       0.486  14.006  19.054  0.00  0.00    +0.000 A 
ATOM     21  C   UNL     1      -0.127  15.131  18.258  0.00  0.00    +0.000 C 
ATOM     22  C   UNL     1       0.055  12.687  18.899  0.00  0.00    +0.000 A 
ATOM     23  C   UNL     1       0.626  11.636  19.674  0.00  0.00    +0.000 A 
ATOM     24  C   UNL     1       1.659  11.929  20.533  0.00  0.00    +0.000 A 
BRANCH  18  26
ATOM     25  C   UNL     1       4.083  14.348  21.320  0.00  0.00    +0.000 C 
ATOM     26  O   UNL     1       3.070  13.420  21.672  0.00  0.00    +0.000 OA
ENDBRANCH  18  26
BRANCH  22  27
ATOM     27  O   UNL     1      -0.958  12.343  18.042  0.00  0.00    +0.000 OA
ATOM     28  H   UNL     1      -1.679  12.968  18.136  0.00  0.00    +0.000 HD
ENDBRANCH  22  27
ENDBRANCH  17  23
ENDBRANCH  14  17
ENDBRANCH  13  15
ENDBRANCH   1  13
BRANCH   2  29
ATOM     29  C   UNL     1       5.564   6.267  18.415  0.00  0.00    +0.000 C 
BRANCH  29  30
ATOM     30  C   UNL     1       6.639   6.329  17.292  0.00  0.00    +0.000 C 
ATOM     31  C   UNL     1       7.605   7.494  17.494  0.00  0.00    +0.000 C 
ATOM     32  C   UNL     1       7.441   5.007  17.263  0.00  0.00    +0.000 C 
BRANCH  30  33
ATOM     33  O   UNL     1       6.029   6.439  16.004  0.00  0.00    +0.000 OA
ATOM     34  H   UNL     1       6.305   7.286  15.601  0.00  0.00    +0.000 HD
ENDBRANCH  30  33
ENDBRANCH  29  30
ENDBRANCH   2  29
TORSDOF 9
ENDMDL
