MODEL 1
REMARK VINA RESULT:      -7.5      0.000      0.000
REMARK  Name = 
REMARK  5 active torsions:
REMARK  status: ('A' for Active; 'I' for Inactive)
REMARK    1  A    between atoms: C_1  and  O_2
REMARK    2  A    between atoms: O_2  and  C_3
REMARK    3  A    between atoms: C_5  and  N_6
REMARK    4  A    between atoms: C_10  and  N_11
REMARK    5  A    between atoms: C_12  and  C_14
REMARK                            x       y       z     vdW  Elec       q    Type
REMARK                         _______ _______ _______ _____ _____    ______ ____
ROOT
ATOM      1  C   UNL     1       6.373   5.135  16.953  0.00  0.00    +0.000 A 
ATOM      2  C   UNL     1       7.250   5.597  15.954  0.00  0.00    +0.000 A 
ATOM      3  C   UNL     1       7.163   5.143  14.634  0.00  0.00    +0.000 A 
ATOM      4  C   UNL     1       6.224   4.148  14.342  0.00  0.00    +0.000 A 
ATOM      5 CL   UNL     1       6.078   3.521  12.736  0.00  0.00    +0.000 Cl
ATOM      6  C   UNL     1       5.363   3.663  15.327  0.00  0.00    +0.000 A 
ATOM      7  C   UNL     1       5.439   4.124  16.647  0.00  0.00    +0.000 A 
ENDROOT
BRANCH   7   8
ATOM      8  N   UNL     1       4.592   3.610  17.674  0.00  0.00    +0.000 N 
ATOM      9  C   UNL     1       3.385   4.183  18.073  0.00  0.00    +0.000 C 
ATOM     10  O   UNL     1       2.848   5.141  17.522  0.00  0.00    +0.000 OA
ATOM     11  H   UNL     1       4.895   2.731  18.076  0.00  0.00    +0.000 HD
BRANCH   9  12
ATOM     12  C   UNL     1       2.675   3.618  19.254  0.00  0.00    +0.000 A 
ATOM     13  C   UNL     1       3.476   3.004  20.238  0.00  0.00    +0.000 A 
ATOM     14  C   UNL     1       2.915   2.485  21.401  0.00  0.00    +0.000 A 
ATOM     15  C   UNL     1       1.542   2.582  21.601  0.00  0.00    +0.000 A 
ATOM     16  C   UNL     1       0.738   3.200  20.638  0.00  0.00    +0.000 A 
ATOM     17  C   UNL     1       1.300   3.721  19.463  0.00  0.00    +0.000 A 
ENDBRANCH   9  12
ENDBRANCH   7   8
BRANCH   3  18
ATOM     18  N   UNL     1       8.148   5.531  13.707  0.00  0.00    +0.000 N 
ATOM     19  H   UNL     1       8.517   6.466  13.842  0.00  0.00    +0.000 HD
ATOM     20  H   UNL     1       7.868   5.350  12.744  0.00  0.00    +0.000 HD
ENDBRANCH   3  18
BRANCH   1  22
ATOM     21  C   UNL     1       7.688   5.694  18.855  0.00  0.00    +0.000 C 
ATOM     22  O   UNL     1       6.394   5.597  18.253  0.00  0.00    +0.000 OA
ENDBRANCH   1  22
TORSDOF 4
ENDMDL
MODEL 2
REMARK VINA RESULT:      -7.5      0.128      1.113
REMARK  Name = 
REMARK  5 active torsions:
REMARK  status: ('A' for Active; 'I' for Inactive)
REMARK    1  A    between atoms: C_1  and  O_2
REMARK    2  A    between atoms: O_2  and  C_3
REMARK    3  A    between atoms: C_5  and  N_6
REMARK    4  A    between atoms: C_10  and  N_11
REMARK    5  A    between atoms: C_12  and  C_14
REMARK                            x       y       z     vdW  Elec       q    Type
REMARK                         _______ _______ _______ _____ _____    ______ ____
ROOT
ATOM      1  C   UNL     1       6.423   5.204  16.917  0.00  0.00    +0.000 A 
ATOM      2  C   UNL     1       7.261   5.652  15.878  0.00  0.00    +0.000 A 
ATOM      3  C   UNL     1       7.148   5.152  14.577  0.00  0.00    +0.000 A 
ATOM      4  C   UNL     1       6.226   4.125  14.346  0.00  0.00    +0.000 A 
ATOM      5 CL   UNL     1       6.050   3.441  12.766  0.00  0.00    +0.000 Cl
ATOM      6  C   UNL     1       5.405   3.654  15.371  0.00  0.00    +0.000 A 
ATOM      7  C   UNL     1       5.505   4.163  16.672  0.00  0.00    +0.000 A 
ENDROOT
BRANCH   7   8
ATOM      8  N   UNL     1       4.700   3.664  17.739  0.00  0.00    +0.000 N 
ATOM      9  C   UNL     1       3.489   4.220  18.150  0.00  0.00    +0.000 C 
ATOM     10  O   UNL     1       2.911   5.142  17.579  0.00  0.00    +0.000 OA
ATOM     11  H   UNL     1       5.037   2.808  18.164  0.00  0.00    +0.000 HD
BRANCH   9  12
ATOM     12  C   UNL     1       2.825   3.680  19.369  0.00  0.00    +0.000 A 
ATOM     13  C   UNL     1       1.427   3.836  19.447  0.00  0.00    +0.000 A 
ATOM     14  C   UNL     1       0.705   3.327  20.523  0.00  0.00    +0.000 A 
ATOM     15  C   UNL     1       1.374   2.646  21.534  0.00  0.00    +0.000 A 
ATOM     16  C   UNL     1       2.761   2.475  21.463  0.00  0.00    +0.000 A 
ATOM     17  C   UNL     1       3.491   2.989  20.382  0.00  0.00    +0.000 A 
ENDBRANCH   9  12
ENDBRANCH   7   8
BRANCH   3  18
ATOM     18  N   UNL     1       8.098   5.530  13.610  0.00  0.00    +0.000 N 
ATOM     19  H   UNL     1       7.819   5.363  12.650  0.00  0.00    +0.000 HD
ATOM     20  H   UNL     1       9.030   5.175  13.821  0.00  0.00    +0.000 HD
ENDBRANCH   3  18
BRANCH   1  22
ATOM     21  C   UNL     1       7.762   5.729  18.812  0.00  0.00    +0.000 C 
ATOM     22  O   UNL     1       6.470   5.711  18.199  0.00  0.00    +0.000 OA
ENDBRANCH   1  22
TORSDOF 4
ENDMDL
MODEL 3
REMARK VINA RESULT:      -7.4      2.591      6.569
REMARK  Name = 
REMARK  5 active torsions:
REMARK  status: ('A' for Active; 'I' for Inactive)
REMARK    1  A    between atoms: C_1  and  O_2
REMARK    2  A    between atoms: O_2  and  C_3
REMARK    3  A    between atoms: C_5  and  N_6
REMARK    4  A    between atoms: C_10  and  N_11
REMARK    5  A    between atoms: C_12  and  C_14
REMARK                            x       y       z     vdW  Elec       q    Type
REMARK                         _______ _______ _______ _____ _____    ______ ____
ROOT
ATOM      1  C   UNL     1       4.841   3.756  18.914  0.00  0.00    +0.000 A 
ATOM      2  C   UNL     1       4.034   3.766  20.068  0.00  0.00    +0.000 A 
ATOM      3  C   UNL     1       2.709   3.319  20.041  0.00  0.00    +0.000 A 
ATOM      4  C   UNL     1       2.171   2.933  18.809  0.00  0.00    +0.000 A 
ATOM      5 CL   UNL     1       0.530   2.394  18.697  0.00  0.00    +0.000 Cl
ATOM      6  C   UNL     1       2.950   2.940  17.652  0.00  0.00    +0.000 A 
ATOM      7  C   UNL     1       4.282   3.373  17.678  0.00  0.00    +0.000 A 
ENDROOT
BRANCH   7   8
ATOM      8  N   UNL     1       5.080   3.424  16.496  0.00  0.00    +0.000 N 
ATOM      9  C   UNL     1       5.293   4.566  15.726  0.00  0.00    +0.000 C 
ATOM     10  O   UNL     1       4.909   5.695  16.025  0.00  0.00    +0.000 OA
ATOM     11  H   UNL     1       5.557   2.560  16.267  0.00  0.00    +0.000 HD
BRANCH   9  12
ATOM     12  C   UNL     1       6.033   4.441  14.440  0.00  0.00    +0.000 A 
ATOM     13  C   UNL     1       5.480   3.576  13.475  0.00  0.00    +0.000 A 
ATOM     14  C   UNL     1       6.069   3.424  12.223  0.00  0.00    +0.000 A 
ATOM     15  C   UNL     1       7.219   4.143  11.916  0.00  0.00    +0.000 A 
ATOM     16  C   UNL     1       7.771   5.014  12.861  0.00  0.00    +0.000 A 
ATOM     17  C   UNL     1       7.182   5.167  14.124  0.00  0.00    +0.000 A 
ENDBRANCH   9  12
ENDBRANCH   7   8
BRANCH   3  18
ATOM     18  N   UNL     1       1.907   3.478  21.186  0.00  0.00    +0.000 N 
ATOM     19  H   UNL     1       2.351   3.969  21.954  0.00  0.00    +0.000 HD
ATOM     20  H   UNL     1       1.465   2.606  21.475  0.00  0.00    +0.000 HD
ENDBRANCH   3  18
BRANCH   1  22
ATOM     21  C   UNL     1       6.418   5.498  19.278  0.00  0.00    +0.000 C 
ATOM     22  O   UNL     1       6.166   4.138  18.913  0.00  0.00    +0.000 OA
ENDBRANCH   1  22
TORSDOF 4
ENDMDL
MODEL 4
REMARK VINA RESULT:      -7.3      2.599      6.525
REMARK  Name = 
REMARK  5 active torsions:
REMARK  status: ('A' for Active; 'I' for Inactive)
REMARK    1  A    between atoms: C_1  and  O_2
REMARK    2  A    between atoms: O_2  and  C_3
REMARK    3  A    between atoms: C_5  and  N_6
REMARK    4  A    between atoms: C_10  and  N_11
REMARK    5  A    between atoms: C_12  and  C_14
REMARK                            x       y       z     vdW  Elec       q    Type
REMARK                         _______ _______ _______ _____ _____    ______ ____
ROOT
ATOM      1  C   UNL     1       4.844   3.753  18.909  0.00  0.00    +0.000 A 
ATOM      2  C   UNL     1       4.077   3.767  20.089  0.00  0.00    +0.000 A 
ATOM      3  C   UNL     1       2.750   3.325  20.109  0.00  0.00    +0.000 A 
ATOM      4  C   UNL     1       2.169   2.939  18.896  0.00  0.00    +0.000 A 
ATOM      5 CL   UNL     1       0.524   2.405  18.841  0.00  0.00    +0.000 Cl
ATOM      6  C   UNL     1       2.909   2.943  17.713  0.00  0.00    +0.000 A 
ATOM      7  C   UNL     1       4.241   3.372  17.692  0.00  0.00    +0.000 A 
ENDROOT
BRANCH   7   8
ATOM      8  N   UNL     1       4.999   3.419  16.483  0.00  0.00    +0.000 N 
ATOM      9  C   UNL     1       5.209   4.565  15.719  0.00  0.00    +0.000 C 
ATOM     10  O   UNL     1       4.860   5.698  16.044  0.00  0.00    +0.000 OA
ATOM     11  H   UNL     1       5.449   2.548  16.229  0.00  0.00    +0.000 HD
BRANCH   9  12
ATOM     12  C   UNL     1       5.901   4.439  14.406  0.00  0.00    +0.000 A 
ATOM     13  C   UNL     1       7.087   5.183  14.244  0.00  0.00    +0.000 A 
ATOM     14  C   UNL     1       7.834   5.101  13.073  0.00  0.00    +0.000 A 
ATOM     15  C   UNL     1       7.407   4.264  12.048  0.00  0.00    +0.000 A 
ATOM     16  C   UNL     1       6.238   3.511  12.201  0.00  0.00    +0.000 A 
ATOM     17  C   UNL     1       5.482   3.595  13.378  0.00  0.00    +0.000 A 
ENDBRANCH   9  12
ENDBRANCH   7   8
BRANCH   3  18
ATOM     18  N   UNL     1       1.989   3.487  21.281  0.00  0.00    +0.000 N 
ATOM     19  H   UNL     1       1.028   3.172  21.212  0.00  0.00    +0.000 HD
ATOM     20  H   UNL     1       2.072   4.425  21.671  0.00  0.00    +0.000 HD
ENDBRANCH   3  18
BRANCH   1  22
ATOM     21  C   UNL     1       6.441   5.486  19.234  0.00  0.00    +0.000 C 
ATOM     22  O   UNL     1       6.169   4.132  18.862  0.00  0.00    +0.000 OA
ENDBRANCH   1  22
TORSDOF 4
ENDMDL
MODEL 5
REMARK VINA RESULT:      -6.9      1.087      1.504
REMARK  Name = 
REMARK  5 active torsions:
REMARK  status: ('A' for Active; 'I' for Inactive)
REMARK    1  A    between atoms: C_1  and  O_2
REMARK    2  A    between atoms: O_2  and  C_3
REMARK    3  A    between atoms: C_5  and  N_6
REMARK    4  A    between atoms: C_10  and  N_11
REMARK    5  A    between atoms: C_12  and  C_14
REMARK                            x       y       z     vdW  Elec       q    Type
REMARK                         _______ _______ _______ _____ _____    ______ ____
ROOT
ATOM      1  C   UNL     1       6.281   5.685  16.772  0.00  0.00    +0.000 A 
ATOM      2  C   UNL     1       7.246   5.848  15.760  0.00  0.00    +0.000 A 
ATOM      3  C   UNL     1       7.118   5.223  14.515  0.00  0.00    +0.000 A 
ATOM      4  C   UNL     1       6.037   4.355  14.325  0.00  0.00    +0.000 A 
ATOM      5 CL   UNL     1       5.830   3.527  12.819  0.00  0.00    +0.000 Cl
ATOM      6  C   UNL     1       5.086   4.164  15.327  0.00  0.00    +0.000 A 
ATOM      7  C   UNL     1       5.203   4.799  16.569  0.00  0.00    +0.000 A 
ENDROOT
BRANCH   7   8
ATOM      8  N   UNL     1       4.260   4.583  17.618  0.00  0.00    +0.000 N 
ATOM      9  C   UNL     1       4.497   3.816  18.758  0.00  0.00    +0.000 C 
ATOM     10  O   UNL     1       5.581   3.319  19.055  0.00  0.00    +0.000 OA
ATOM     11  H   UNL     1       3.388   5.089  17.518  0.00  0.00    +0.000 HD
BRANCH   9  12
ATOM     12  C   UNL     1       3.374   3.561  19.702  0.00  0.00    +0.000 A 
ATOM     13  C   UNL     1       2.143   4.177  19.399  0.00  0.00    +0.000 A 
ATOM     14  C   UNL     1       1.018   3.966  20.192  0.00  0.00    +0.000 A 
ATOM     15  C   UNL     1       1.109   3.127  21.297  0.00  0.00    +0.000 A 
ATOM     16  C   UNL     1       2.321   2.500  21.601  0.00  0.00    +0.000 A 
ATOM     17  C   UNL     1       3.457   2.714  20.807  0.00  0.00    +0.000 A 
ENDBRANCH   9  12
ENDBRANCH   7   8
BRANCH   3  18
ATOM     18  N   UNL     1       8.175   5.309  13.591  0.00  0.00    +0.000 N 
ATOM     19  H   UNL     1       9.051   5.643  13.974  0.00  0.00    +0.000 HD
ATOM     20  H   UNL     1       7.904   5.794  12.736  0.00  0.00    +0.000 HD
ENDBRANCH   3  18
BRANCH   1  22
ATOM     21  C   UNL     1       7.662   6.642  18.456  0.00  0.00    +0.000 C 
ATOM     22  O   UNL     1       6.347   6.326  17.992  0.00  0.00    +0.000 OA
ENDBRANCH   1  22
TORSDOF 4
ENDMDL
MODEL 6
REMARK VINA RESULT:      -6.9      2.903      6.857
REMARK  Name = 
REMARK  5 active torsions:
REMARK  status: ('A' for Active; 'I' for Inactive)
REMARK    1  A    between atoms: C_1  and  O_2
REMARK    2  A    between atoms: O_2  and  C_3
REMARK    3  A    between atoms: C_5  and  N_6
REMARK    4  A    between atoms: C_10  and  N_11
REMARK    5  A    between atoms: C_12  and  C_14
REMARK                            x       y       z     vdW  Elec       q    Type
REMARK                         _______ _______ _______ _____ _____    ______ ____
ROOT
ATOM      1  C   UNL     1       3.698   3.755  18.333  0.00  0.00    +0.000 A 
ATOM      2  C   UNL     1       3.106   4.033  19.579  0.00  0.00    +0.000 A 
ATOM      3  C   UNL     1       2.601   5.302  19.886  0.00  0.00    +0.000 A 
ATOM      4  C   UNL     1       2.774   6.322  18.944  0.00  0.00    +0.000 A 
ATOM      5 CL   UNL     1       2.198   7.922  19.266  0.00  0.00    +0.000 Cl
ATOM      6  C   UNL     1       3.380   6.067  17.713  0.00  0.00    +0.000 A 
ATOM      7  C   UNL     1       3.874   4.796  17.398  0.00  0.00    +0.000 A 
ENDROOT
BRANCH   7   8
ATOM      8  N   UNL     1       4.531   4.529  16.159  0.00  0.00    +0.000 N 
ATOM      9  C   UNL     1       5.875   4.794  15.898  0.00  0.00    +0.000 C 
ATOM     10  O   UNL     1       6.686   5.190  16.731  0.00  0.00    +0.000 OA
ATOM     11  H   UNL     1       3.961   4.059  15.467  0.00  0.00    +0.000 HD
BRANCH   9  12
ATOM     12  C   UNL     1       6.393   4.596  14.515  0.00  0.00    +0.000 A 
ATOM     13  C   UNL     1       5.703   3.666  13.711  0.00  0.00    +0.000 A 
ATOM     14  C   UNL     1       6.079   3.441  12.390  0.00  0.00    +0.000 A 
ATOM     15  C   UNL     1       7.147   4.151  11.852  0.00  0.00    +0.000 A 
ATOM     16  C   UNL     1       7.831   5.084  12.636  0.00  0.00    +0.000 A 
ATOM     17  C   UNL     1       7.458   5.311  13.968  0.00  0.00    +0.000 A 
ENDBRANCH   9  12
ENDBRANCH   7   8
BRANCH   3  18
ATOM     18  N   UNL     1       2.145   5.563  21.191  0.00  0.00    +0.000 N 
ATOM     19  H   UNL     1       1.976   4.739  21.757  0.00  0.00    +0.000 HD
ATOM     20  H   UNL     1       1.368   6.222  21.205  0.00  0.00    +0.000 HD
ENDBRANCH   3  18
BRANCH   1  22
ATOM     21  C   UNL     1       3.479   1.399  18.577  0.00  0.00    +0.000 C 
ATOM     22  O   UNL     1       4.158   2.505  17.975  0.00  0.00    +0.000 OA
ENDBRANCH   1  22
TORSDOF 4
ENDMDL
MODEL 7
REMARK VINA RESULT:      -6.8      2.932      6.837
REMARK  Name = 
REMARK  5 active torsions:
REMARK  status: ('A' for Active; 'I' for Inactive)
REMARK    1  A    between atoms: C_1  and  O_2
REMARK    2  A    between atoms: O_2  and  C_3
REMARK    3  A    between atoms: C_5  and  N_6
REMARK    4  A    between atoms: C_10  and  N_11
REMARK    5  A    between atoms: C_12  and  C_14
REMARK                            x       y       z     vdW  Elec       q    Type
REMARK                         _______ _______ _______ _____ _____    ______ ____
ROOT
ATOM      1  C   UNL     1       3.657   3.730  18.297  0.00  0.00    +0.000 A 
ATOM      2  C   UNL     1       3.122   3.990  19.572  0.00  0.00    +0.000 A 
ATOM      3  C   UNL     1       2.630   5.253  19.919  0.00  0.00    +0.000 A 
ATOM      4  C   UNL     1       2.758   6.286  18.985  0.00  0.00    +0.000 A 
ATOM      5 CL   UNL     1       2.195   7.880  19.355  0.00  0.00    +0.000 Cl
ATOM      6  C   UNL     1       3.309   6.050  17.724  0.00  0.00    +0.000 A 
ATOM      7  C   UNL     1       3.789   4.784  17.369  0.00  0.00    +0.000 A 
ENDROOT
BRANCH   7   8
ATOM      8  N   UNL     1       4.390   4.536  16.099  0.00  0.00    +0.000 N 
ATOM      9  C   UNL     1       5.755   4.628  15.832  0.00  0.00    +0.000 C 
ATOM     10  O   UNL     1       6.623   4.829  16.679  0.00  0.00    +0.000 OA
ATOM     11  H   UNL     1       3.752   4.214  15.381  0.00  0.00    +0.000 HD
BRANCH   9  12
ATOM     12  C   UNL     1       6.227   4.479  14.427  0.00  0.00    +0.000 A 
ATOM     13  C   UNL     1       7.346   5.249  14.053  0.00  0.00    +0.000 A 
ATOM     14  C   UNL     1       7.894   5.150  12.777  0.00  0.00    +0.000 A 
ATOM     15  C   UNL     1       7.332   4.270  11.859  0.00  0.00    +0.000 A 
ATOM     16  C   UNL     1       6.228   3.492  12.222  0.00  0.00    +0.000 A 
ATOM     17  C   UNL     1       5.672   3.592  13.505  0.00  0.00    +0.000 A 
ENDBRANCH   9  12
ENDBRANCH   7   8
BRANCH   3  18
ATOM     18  N   UNL     1       2.233   5.496  21.247  0.00  0.00    +0.000 N 
ATOM     19  H   UNL     1       2.774   6.202  21.732  0.00  0.00    +0.000 HD
ATOM     20  H   UNL     1       2.130   4.635  21.784  0.00  0.00    +0.000 HD
ENDBRANCH   3  18
BRANCH   1  22
ATOM     21  C   UNL     1       3.516   1.373  18.581  0.00  0.00    +0.000 C 
ATOM     22  O   UNL     1       4.103   2.486  17.902  0.00  0.00    +0.000 OA
ENDBRANCH   1  22
TORSDOF 4
ENDMDL
MODEL 8
REMARK VINA RESULT:      -6.7      3.056      6.766
REMARK  Name = 
REMARK  5 active torsions:
REMARK  status: ('A' for Active; 'I' for Inactive)
REMARK    1  A    between atoms: C_1  and  O_2
REMARK    2  A    between atoms: O_2  and  C_3
REMARK    3  A    between atoms: C_5  and  N_6
REMARK    4  A    between atoms: C_10  and  N_11
REMARK    5  A    between atoms: C_12  and  C_14
REMARK                            x       y       z     vdW  Elec       q    Type
REMARK                         _______ _______ _______ _____ _____    ______ ____
ROOT
ATOM      1  C   UNL     1       3.843   4.871  18.690  0.00  0.00    +0.000 A 
ATOM      2  C   UNL     1       3.207   5.421  19.818  0.00  0.00    +0.000 A 
ATOM      3  C   UNL     1       2.501   6.627  19.748  0.00  0.00    +0.000 A 
ATOM      4  C   UNL     1       2.510   7.323  18.535  0.00  0.00    +0.000 A 
ATOM      5 CL   UNL     1       1.680   8.834  18.382  0.00  0.00    +0.000 Cl
ATOM      6  C   UNL     1       3.157   6.802  17.413  0.00  0.00    +0.000 A 
ATOM      7  C   UNL     1       3.852   5.588  17.477  0.00  0.00    +0.000 A 
ENDROOT
BRANCH   7   8
ATOM      8  N   UNL     1       4.551   5.062  16.349  0.00  0.00    +0.000 N 
ATOM      9  C   UNL     1       5.732   5.587  15.827  0.00  0.00    +0.000 C 
ATOM     10  O   UNL     1       6.376   6.503  16.335  0.00  0.00    +0.000 OA
ATOM     11  H   UNL     1       4.160   4.209  15.966  0.00  0.00    +0.000 HD
BRANCH   9  12
ATOM     12  C   UNL     1       6.276   5.021  14.562  0.00  0.00    +0.000 A 
ATOM     13  C   UNL     1       5.486   4.050  13.914  0.00  0.00    +0.000 A 
ATOM     14  C   UNL     1       5.881   3.491  12.703  0.00  0.00    +0.000 A 
ATOM     15  C   UNL     1       7.072   3.905  12.116  0.00  0.00    +0.000 A 
ATOM     16  C   UNL     1       7.859   4.876  12.742  0.00  0.00    +0.000 A 
ATOM     17  C   UNL     1       7.465   5.438  13.964  0.00  0.00    +0.000 A 
ENDBRANCH   9  12
ENDBRANCH   7   8
BRANCH   3  18
ATOM     18  N   UNL     1       2.002   7.201  20.932  0.00  0.00    +0.000 N 
ATOM     19  H   UNL     1       1.156   7.747  20.817  0.00  0.00    +0.000 HD
ATOM     20  H   UNL     1       2.723   7.692  21.459  0.00  0.00    +0.000 HD
ENDBRANCH   3  18
BRANCH   1  22
ATOM     21  C   UNL     1       3.885   2.629  19.486  0.00  0.00    +0.000 C 
ATOM     22  O   UNL     1       4.502   3.659  18.708  0.00  0.00    +0.000 OA
ENDBRANCH   1  22
TORSDOF 4
ENDMDL
MODEL 9
REMARK VINA RESULT:      -6.6      4.022      5.171
REMARK  Name = 
REMARK  5 active torsions:
REMARK  status: ('A' for Active; 'I' for Inactive)
REMARK    1  A    between atoms: C_1  and  O_2
REMARK    2  A    between atoms: O_2  and  C_3
REMARK    3  A    between atoms: C_5  and  N_6
REMARK    4  A    between atoms: C_10  and  N_11
REMARK    5  A    between atoms: C_12  and  C_14
REMARK                            x       y       z     vdW  Elec       q    Type
REMARK                         _______ _______ _______ _____ _____    ______ ____
ROOT
ATOM      1  C   UNL     1       2.992   4.656  17.757  0.00  0.00    +0.000 A 
ATOM      2  C   UNL     1       3.837   3.889  16.933  0.00  0.00    +0.000 A 
ATOM      3  C   UNL     1       5.218   4.107  16.892  0.00  0.00    +0.000 A 
ATOM      4  C   UNL     1       5.737   5.172  17.636  0.00  0.00    +0.000 A 
ATOM      5 CL   UNL     1       7.433   5.517  17.613  0.00  0.00    +0.000 Cl
ATOM      6  C   UNL     1       4.908   5.957  18.440  0.00  0.00    +0.000 A 
ATOM      7  C   UNL     1       3.527   5.732  18.494  0.00  0.00    +0.000 A 
ENDROOT
BRANCH   7   8
ATOM      8  N   UNL     1       2.662   6.550  19.280  0.00  0.00    +0.000 N 
ATOM      9  C   UNL     1       2.199   7.810  18.904  0.00  0.00    +0.000 C 
ATOM     10  O   UNL     1       2.390   8.329  17.806  0.00  0.00    +0.000 OA
ATOM     11  H   UNL     1       2.336   6.123  20.139  0.00  0.00    +0.000 HD
BRANCH   9  12
ATOM     12  C   UNL     1       1.415   8.612  19.885  0.00  0.00    +0.000 A 
ATOM     13  C   UNL     1       0.766   9.760  19.386  0.00  0.00    +0.000 A 
ATOM     14  C   UNL     1      -0.028  10.552  20.209  0.00  0.00    +0.000 A 
ATOM     15  C   UNL     1      -0.192  10.201  21.545  0.00  0.00    +0.000 A 
ATOM     16  C   UNL     1       0.438   9.058  22.049  0.00  0.00    +0.000 A 
ATOM     17  C   UNL     1       1.242   8.260  21.223  0.00  0.00    +0.000 A 
ENDBRANCH   9  12
ENDBRANCH   7   8
BRANCH   3  18
ATOM     18  N   UNL     1       5.997   3.407  15.952  0.00  0.00    +0.000 N 
ATOM     19  H   UNL     1       6.857   3.870  15.681  0.00  0.00    +0.000 HD
ATOM     20  H   UNL     1       5.449   3.088  15.154  0.00  0.00    +0.000 HD
ENDBRANCH   3  18
BRANCH   1  22
ATOM     21  C   UNL     1       1.253   3.198  18.471  0.00  0.00    +0.000 C 
ATOM     22  O   UNL     1       1.634   4.436  17.863  0.00  0.00    +0.000 OA
ENDBRANCH   1  22
TORSDOF 4
ENDMDL
