MODEL 1
REMARK VINA RESULT:      -6.5      0.000      0.000
REMARK  Name = 
REMARK  6 active torsions:
REMARK  status: ('A' for Active; 'I' for Inactive)
REMARK    1  A    between atoms: C_1  and  C_2
REMARK    2  A    between atoms: C_2  and  N_3
REMARK    3  A    between atoms: C_4  and  S_5
REMARK    4  A    between atoms: N_9  and  S_10
REMARK    5  A    between atoms: S_10  and  C_13
REMARK    6  A    between atoms: C_16  and  C_17
REMARK                            x       y       z     vdW  Elec       q    Type
REMARK                         _______ _______ _______ _____ _____    ______ ____
ROOT
ATOM      1  N   UNL     1       1.040   9.219  19.086  0.00  0.00    +0.000 NA
ATOM      2  C   UNL     1       1.454   8.442  20.027  0.00  0.00    +0.000 C 
ATOM      3  N   UNL     1       2.145   7.287  19.716  0.00  0.00    +0.000 N 
ATOM      4  C   UNL     1       2.194   6.097  20.581  0.00  0.00    +0.000 C 
ATOM      5  C   UNL     1       2.055   4.798  19.759  0.00  0.00    +0.000 C 
ATOM      6  N   UNL     1       3.022   4.725  18.619  0.00  0.00    +0.000 NA
ATOM      7  C   UNL     1       2.835   5.942  17.750  0.00  0.00    +0.000 C 
ATOM      8  C   UNL     1       3.034   7.245  18.538  0.00  0.00    +0.000 C 
ENDROOT
BRANCH   6   9
ATOM      9  S   UNL     1       4.651   4.376  19.021  0.00  0.00    +0.000 S 
ATOM     10  O   UNL     1       5.140   5.453  19.857  0.00  0.00    +0.000 OA
ATOM     11  O   UNL     1       4.723   2.997  19.468  0.00  0.00    +0.000 OA
BRANCH   9  12
ATOM     12  C   UNL     1       5.515   4.489  17.467  0.00  0.00    +0.000 A 
ATOM     13  C   UNL     1       5.077   3.726  16.385  0.00  0.00    +0.000 A 
ATOM     14  C   UNL     1       5.704   3.865  15.142  0.00  0.00    +0.000 A 
ATOM     15  C   UNL     1       6.759   4.772  14.973  0.00  0.00    +0.000 A 
ATOM     16  C   UNL     1       7.423   4.945  13.636  0.00  0.00    +0.000 C 
ATOM     17  C   UNL     1       7.178   5.544  16.065  0.00  0.00    +0.000 A 
ATOM     18  C   UNL     1       6.564   5.403  17.313  0.00  0.00    +0.000 A 
ENDBRANCH   9  12
ENDBRANCH   6   9
BRANCH   1  20
ATOM     19  C   UNL     1      -1.036  10.304  18.520  0.00  0.00    +0.000 C 
ATOM     20  C   UNL     1       0.247  10.413  19.327  0.00  0.00    +0.000 C 
ENDBRANCH   1  20
BRANCH   2  21
ATOM     21  S   UNL     1       1.192   8.764  21.746  0.00  0.00    +0.000 S 
ATOM     22  H   UNL     1       0.000   8.180  21.880  0.00  0.00    +0.000 HD
ENDBRANCH   2  21
TORSDOF 4
ENDMDL
MODEL 2
REMARK VINA RESULT:      -6.3      0.413      1.226
REMARK  Name = 
REMARK  6 active torsions:
REMARK  status: ('A' for Active; 'I' for Inactive)
REMARK    1  A    between atoms: C_1  and  C_2
REMARK    2  A    between atoms: C_2  and  N_3
REMARK    3  A    between atoms: C_4  and  S_5
REMARK    4  A    between atoms: N_9  and  S_10
REMARK    5  A    between atoms: S_10  and  C_13
REMARK    6  A    between atoms: C_16  and  C_17
REMARK                            x       y       z     vdW  Elec       q    Type
REMARK                         _______ _______ _______ _____ _____    ______ ____
ROOT
ATOM      1  N   UNL     1       0.959   9.333  19.159  0.00  0.00    +0.000 NA
ATOM      2  C   UNL     1       1.373   8.540  20.086  0.00  0.00    +0.000 C 
ATOM      3  N   UNL     1       2.009   7.359  19.753  0.00  0.00    +0.000 N 
ATOM      4  C   UNL     1       2.040   6.167  20.616  0.00  0.00    +0.000 C 
ATOM      5  C   UNL     1       1.824   4.876  19.799  0.00  0.00    +0.000 C 
ATOM      6  N   UNL     1       2.750   4.767  18.628  0.00  0.00    +0.000 NA
ATOM      7  C   UNL     1       2.581   5.991  17.765  0.00  0.00    +0.000 C 
ATOM      8  C   UNL     1       2.856   7.284  18.546  0.00  0.00    +0.000 C 
ENDROOT
BRANCH   6   9
ATOM      9  S   UNL     1       4.376   4.355  18.976  0.00  0.00    +0.000 S 
ATOM     10  O   UNL     1       4.894   5.343  19.899  0.00  0.00    +0.000 OA
ATOM     11  O   UNL     1       4.427   2.940  19.296  0.00  0.00    +0.000 OA
BRANCH   9  12
ATOM     12  C   UNL     1       5.224   4.593  17.428  0.00  0.00    +0.000 A 
ATOM     13  C   UNL     1       6.259   5.525  17.353  0.00  0.00    +0.000 A 
ATOM     14  C   UNL     1       6.979   5.664  16.161  0.00  0.00    +0.000 A 
ATOM     15  C   UNL     1       6.677   4.868  15.048  0.00  0.00    +0.000 A 
ATOM     16  C   UNL     1       7.460   4.994  13.772  0.00  0.00    +0.000 C 
ATOM     17  C   UNL     1       5.645   3.923  15.143  0.00  0.00    +0.000 A 
ATOM     18  C   UNL     1       4.915   3.787  16.327  0.00  0.00    +0.000 A 
ENDBRANCH   9  12
ENDBRANCH   6   9
BRANCH   1  20
ATOM     19  C   UNL     1       1.137  11.736  19.147  0.00  0.00    +0.000 C 
ATOM     20  C   UNL     1       0.221  10.556  19.426  0.00  0.00    +0.000 C 
ENDBRANCH   1  20
BRANCH   2  21
ATOM     21  S   UNL     1       1.181   8.870  21.812  0.00  0.00    +0.000 S 
ATOM     22  H   UNL     1       0.117   9.673  21.746  0.00  0.00    +0.000 HD
ENDBRANCH   2  21
TORSDOF 4
ENDMDL
MODEL 3
REMARK VINA RESULT:      -5.9      3.280      4.407
REMARK  Name = 
REMARK  6 active torsions:
REMARK  status: ('A' for Active; 'I' for Inactive)
REMARK    1  A    between atoms: C_1  and  C_2
REMARK    2  A    between atoms: C_2  and  N_3
REMARK    3  A    between atoms: C_4  and  S_5
REMARK    4  A    between atoms: N_9  and  S_10
REMARK    5  A    between atoms: S_10  and  C_13
REMARK    6  A    between atoms: C_16  and  C_17
REMARK                            x       y       z     vdW  Elec       q    Type
REMARK                         _______ _______ _______ _____ _____    ______ ____
ROOT
ATOM      1  N   UNL     1       1.967   3.294  19.489  0.00  0.00    +0.000 NA
ATOM      2  C   UNL     1       2.520   4.454  19.587  0.00  0.00    +0.000 C 
ATOM      3  N   UNL     1       3.611   4.770  18.800  0.00  0.00    +0.000 N 
ATOM      4  C   UNL     1       4.627   5.771  19.162  0.00  0.00    +0.000 C 
ATOM      5  C   UNL     1       6.049   5.276  18.827  0.00  0.00    +0.000 C 
ATOM      6  N   UNL     1       6.182   4.801  17.413  0.00  0.00    +0.000 NA
ATOM      7  C   UNL     1       5.158   3.722  17.169  0.00  0.00    +0.000 C 
ATOM      8  C   UNL     1       3.729   4.218  17.436  0.00  0.00    +0.000 C 
ENDROOT
BRANCH   6   9
ATOM      9  S   UNL     1       6.246   6.013  16.204  0.00  0.00    +0.000 S 
ATOM     10  O   UNL     1       4.971   6.702  16.200  0.00  0.00    +0.000 OA
ATOM     11  O   UNL     1       7.487   6.749  16.364  0.00  0.00    +0.000 OA
BRANCH   9  12
ATOM     12  C   UNL     1       6.349   5.099  14.679  0.00  0.00    +0.000 A 
ATOM     13  C   UNL     1       7.528   5.144  13.935  0.00  0.00    +0.000 A 
ATOM     14  C   UNL     1       7.643   4.370  12.775  0.00  0.00    +0.000 A 
ATOM     15  C   UNL     1       6.589   3.543  12.361  0.00  0.00    +0.000 A 
ATOM     16  C   UNL     1       6.713   2.691  11.130  0.00  0.00    +0.000 C 
ATOM     17  C   UNL     1       5.416   3.496  13.127  0.00  0.00    +0.000 A 
ATOM     18  C   UNL     1       5.290   4.275  14.282  0.00  0.00    +0.000 A 
ENDBRANCH   9  12
ENDBRANCH   6   9
BRANCH   1  20
ATOM     19  C   UNL     1       1.424   2.461  21.684  0.00  0.00    +0.000 C 
ATOM     20  C   UNL     1       0.864   2.862  20.330  0.00  0.00    +0.000 C 
ENDBRANCH   1  20
BRANCH   2  21
ATOM     21  S   UNL     1       1.958   5.714  20.694  0.00  0.00    +0.000 S 
ATOM     22  H   UNL     1       1.683   6.662  19.796  0.00  0.00    +0.000 HD
ENDBRANCH   2  21
TORSDOF 4
ENDMDL
MODEL 4
REMARK VINA RESULT:      -5.9      3.244      4.291
REMARK  Name = 
REMARK  6 active torsions:
REMARK  status: ('A' for Active; 'I' for Inactive)
REMARK    1  A    between atoms: C_1  and  C_2
REMARK    2  A    between atoms: C_2  and  N_3
REMARK    3  A    between atoms: C_4  and  S_5
REMARK    4  A    between atoms: N_9  and  S_10
REMARK    5  A    between atoms: S_10  and  C_13
REMARK    6  A    between atoms: C_16  and  C_17
REMARK                            x       y       z     vdW  Elec       q    Type
REMARK                         _______ _______ _______ _____ _____    ______ ____
ROOT
ATOM      1  N   UNL     1       1.949   3.413  19.541  0.00  0.00    +0.000 NA
ATOM      2  C   UNL     1       2.530   4.561  19.610  0.00  0.00    +0.000 C 
ATOM      3  N   UNL     1       3.622   4.832  18.807  0.00  0.00    +0.000 N 
ATOM      4  C   UNL     1       4.666   5.815  19.139  0.00  0.00    +0.000 C 
ATOM      5  C   UNL     1       6.073   5.277  18.802  0.00  0.00    +0.000 C 
ATOM      6  N   UNL     1       6.180   4.771  17.397  0.00  0.00    +0.000 NA
ATOM      7  C   UNL     1       5.127   3.713  17.185  0.00  0.00    +0.000 C 
ATOM      8  C   UNL     1       3.714   4.250  17.454  0.00  0.00    +0.000 C 
ENDROOT
BRANCH   6   9
ATOM      9  S   UNL     1       6.264   5.956  16.163  0.00  0.00    +0.000 S 
ATOM     10  O   UNL     1       4.962   6.585  16.066  0.00  0.00    +0.000 OA
ATOM     11  O   UNL     1       7.459   6.752  16.377  0.00  0.00    +0.000 OA
BRANCH   9  12
ATOM     12  C   UNL     1       6.499   5.013  14.671  0.00  0.00    +0.000 A 
ATOM     13  C   UNL     1       5.522   4.097  14.281  0.00  0.00    +0.000 A 
ATOM     14  C   UNL     1       5.665   3.407  13.072  0.00  0.00    +0.000 A 
ATOM     15  C   UNL     1       6.774   3.636  12.246  0.00  0.00    +0.000 A 
ATOM     16  C   UNL     1       6.924   2.917  10.935  0.00  0.00    +0.000 C 
ATOM     17  C   UNL     1       7.741   4.571  12.644  0.00  0.00    +0.000 A 
ATOM     18  C   UNL     1       7.610   5.256  13.855  0.00  0.00    +0.000 A 
ENDBRANCH   9  12
ENDBRANCH   6   9
BRANCH   1  20
ATOM     19  C   UNL     1       1.413   2.490  21.701  0.00  0.00    +0.000 C 
ATOM     20  C   UNL     1       0.842   3.027  20.399  0.00  0.00    +0.000 C 
ENDBRANCH   1  20
BRANCH   2  21
ATOM     21  S   UNL     1       2.011   5.856  20.695  0.00  0.00    +0.000 S 
ATOM     22  H   UNL     1       2.145   5.212  21.856  0.00  0.00    +0.000 HD
ENDBRANCH   2  21
TORSDOF 4
ENDMDL
MODEL 5
REMARK VINA RESULT:      -5.8      1.755      2.277
REMARK  Name = 
REMARK  6 active torsions:
REMARK  status: ('A' for Active; 'I' for Inactive)
REMARK    1  A    between atoms: C_1  and  C_2
REMARK    2  A    between atoms: C_2  and  N_3
REMARK    3  A    between atoms: C_4  and  S_5
REMARK    4  A    between atoms: N_9  and  S_10
REMARK    5  A    between atoms: S_10  and  C_13
REMARK    6  A    between atoms: C_16  and  C_17
REMARK                            x       y       z     vdW  Elec       q    Type
REMARK                         _______ _______ _______ _____ _____    ______ ____
ROOT
ATOM      1  N   UNL     1       1.424   8.286  20.656  0.00  0.00    +0.000 NA
ATOM      2  C   UNL     1       1.819   8.207  19.432  0.00  0.00    +0.000 C 
ATOM      3  N   UNL     1       2.563   7.119  19.015  0.00  0.00    +0.000 N 
ATOM      4  C   UNL     1       3.498   7.146  17.878  0.00  0.00    +0.000 C 
ATOM      5  C   UNL     1       4.801   6.387  18.204  0.00  0.00    +0.000 C 
ATOM      6  N   UNL     1       4.554   5.002  18.717  0.00  0.00    +0.000 NA
ATOM      7  C   UNL     1       3.658   5.090  19.926  0.00  0.00    +0.000 C 
ATOM      8  C   UNL     1       2.328   5.787  19.605  0.00  0.00    +0.000 C 
ENDROOT
BRANCH   6   9
ATOM      9  S   UNL     1       4.081   3.832  17.559  0.00  0.00    +0.000 S 
ATOM     10  O   UNL     1       4.386   2.524  18.102  0.00  0.00    +0.000 OA
ATOM     11  O   UNL     1       2.738   4.154  17.110  0.00  0.00    +0.000 OA
BRANCH   9  12
ATOM     12  C   UNL     1       5.190   4.100  16.192  0.00  0.00    +0.000 A 
ATOM     13  C   UNL     1       4.694   4.046  14.890  0.00  0.00    +0.000 A 
ATOM     14  C   UNL     1       5.544   4.329  13.814  0.00  0.00    +0.000 A 
ATOM     15  C   UNL     1       6.884   4.678  14.036  0.00  0.00    +0.000 A 
ATOM     16  C   UNL     1       7.797   5.006  12.889  0.00  0.00    +0.000 C 
ATOM     17  C   UNL     1       7.364   4.743  15.351  0.00  0.00    +0.000 A 
ATOM     18  C   UNL     1       6.524   4.451  16.430  0.00  0.00    +0.000 A 
ENDBRANCH   9  12
ENDBRANCH   6   9
BRANCH   1  20
ATOM     19  C   UNL     1      -0.426   8.911  22.067  0.00  0.00    +0.000 C 
ATOM     20  C   UNL     1       0.700   9.428  21.188  0.00  0.00    +0.000 C 
ENDBRANCH   1  20
BRANCH   2  21
ATOM     21  S   UNL     1       1.462   9.432  18.208  0.00  0.00    +0.000 S 
ATOM     22  H   UNL     1       2.035   8.839  17.158  0.00  0.00    +0.000 HD
ENDBRANCH   2  21
TORSDOF 4
ENDMDL
MODEL 6
REMARK VINA RESULT:      -5.8      3.785      5.339
REMARK  Name = 
REMARK  6 active torsions:
REMARK  status: ('A' for Active; 'I' for Inactive)
REMARK    1  A    between atoms: C_1  and  C_2
REMARK    2  A    between atoms: C_2  and  N_3
REMARK    3  A    between atoms: C_4  and  S_5
REMARK    4  A    between atoms: N_9  and  S_10
REMARK    5  A    between atoms: S_10  and  C_13
REMARK    6  A    between atoms: C_16  and  C_17
REMARK                            x       y       z     vdW  Elec       q    Type
REMARK                         _______ _______ _______ _____ _____    ______ ____
ROOT
ATOM      1  N   UNL     1       2.119   3.988  19.839  0.00  0.00    +0.000 NA
ATOM      2  C   UNL     1       2.858   3.331  19.013  0.00  0.00    +0.000 C 
ATOM      3  N   UNL     1       3.830   3.987  18.282  0.00  0.00    +0.000 N 
ATOM      4  C   UNL     1       4.342   3.519  16.983  0.00  0.00    +0.000 C 
ATOM      5  C   UNL     1       4.514   4.689  15.992  0.00  0.00    +0.000 C 
ATOM      6  N   UNL     1       5.319   5.817  16.559  0.00  0.00    +0.000 NA
ATOM      7  C   UNL     1       4.667   6.279  17.837  0.00  0.00    +0.000 C 
ATOM      8  C   UNL     1       4.546   5.141  18.861  0.00  0.00    +0.000 C 
ENDROOT
BRANCH   6   9
ATOM      9  S   UNL     1       7.010   5.570  16.666  0.00  0.00    +0.000 S 
ATOM     10  O   UNL     1       7.236   4.431  17.532  0.00  0.00    +0.000 OA
ATOM     11  O   UNL     1       7.561   5.604  15.323  0.00  0.00    +0.000 OA
BRANCH   9  12
ATOM     12  C   UNL     1       7.605   7.008  17.533  0.00  0.00    +0.000 A 
ATOM     13  C   UNL     1       8.260   6.847  18.754  0.00  0.00    +0.000 A 
ATOM     14  C   UNL     1       8.795   7.965  19.403  0.00  0.00    +0.000 A 
ATOM     15  C   UNL     1       8.689   9.241  18.833  0.00  0.00    +0.000 A 
ATOM     16  C   UNL     1       9.281  10.444  19.512  0.00  0.00    +0.000 C 
ATOM     17  C   UNL     1       8.042   9.386  17.597  0.00  0.00    +0.000 A 
ATOM     18  C   UNL     1       7.496   8.275  16.948  0.00  0.00    +0.000 A 
ENDBRANCH   9  12
ENDBRANCH   6   9
BRANCH   1  20
ATOM     19  C   UNL     1       1.608   2.777  21.858  0.00  0.00    +0.000 C 
ATOM     20  C   UNL     1       1.032   3.385  20.591  0.00  0.00    +0.000 C 
ENDBRANCH   1  20
BRANCH   2  21
ATOM     21  S   UNL     1       2.711   1.590  18.742  0.00  0.00    +0.000 S 
ATOM     22  H   UNL     1       2.604   1.602  17.412  0.00  0.00    +0.000 HD
ENDBRANCH   2  21
TORSDOF 4
ENDMDL
MODEL 7
REMARK VINA RESULT:      -5.6      3.585      7.762
REMARK  Name = 
REMARK  6 active torsions:
REMARK  status: ('A' for Active; 'I' for Inactive)
REMARK    1  A    between atoms: C_1  and  C_2
REMARK    2  A    between atoms: C_2  and  N_3
REMARK    3  A    between atoms: C_4  and  S_5
REMARK    4  A    between atoms: N_9  and  S_10
REMARK    5  A    between atoms: S_10  and  C_13
REMARK    6  A    between atoms: C_16  and  C_17
REMARK                            x       y       z     vdW  Elec       q    Type
REMARK                         _______ _______ _______ _____ _____    ______ ____
ROOT
ATOM      1  N   UNL     1       7.098   2.899  12.081  0.00  0.00    +0.000 NA
ATOM      2  C   UNL     1       5.981   3.376  12.510  0.00  0.00    +0.000 C 
ATOM      3  N   UNL     1       5.930   4.032  13.725  0.00  0.00    +0.000 N 
ATOM      4  C   UNL     1       4.720   4.136  14.557  0.00  0.00    +0.000 C 
ATOM      5  C   UNL     1       5.043   3.922  16.050  0.00  0.00    +0.000 C 
ATOM      6  N   UNL     1       6.155   4.799  16.535  0.00  0.00    +0.000 NA
ATOM      7  C   UNL     1       7.369   4.557  15.676  0.00  0.00    +0.000 C 
ATOM      8  C   UNL     1       7.083   4.827  14.191  0.00  0.00    +0.000 C 
ENDROOT
BRANCH   6   9
ATOM      9  S   UNL     1       5.773   6.450  16.784  0.00  0.00    +0.000 S 
ATOM     10  O   UNL     1       6.884   7.060  17.485  0.00  0.00    +0.000 OA
ATOM     11  O   UNL     1       5.295   7.000  15.528  0.00  0.00    +0.000 OA
BRANCH   9  12
ATOM     12  C   UNL     1       4.400   6.411  17.918  0.00  0.00    +0.000 A 
ATOM     13  C   UNL     1       4.405   5.490  18.965  0.00  0.00    +0.000 A 
ATOM     14  C   UNL     1       3.366   5.503  19.902  0.00  0.00    +0.000 A 
ATOM     15  C   UNL     1       2.329   6.441  19.805  0.00  0.00    +0.000 A 
ATOM     16  C   UNL     1       1.222   6.478  20.821  0.00  0.00    +0.000 C 
ATOM     17  C   UNL     1       2.346   7.372  18.757  0.00  0.00    +0.000 A 
ATOM     18  C   UNL     1       3.374   7.358  17.811  0.00  0.00    +0.000 A 
ENDBRANCH   9  12
ENDBRANCH   6   9
BRANCH   1  20
ATOM     19  C   UNL     1       6.626   0.758  11.081  0.00  0.00    +0.000 C 
ATOM     20  C   UNL     1       7.220   2.138  10.849  0.00  0.00    +0.000 C 
ENDBRANCH   1  20
BRANCH   2  21
ATOM     21  S   UNL     1       4.458   3.250  11.620  0.00  0.00    +0.000 S 
ATOM     22  H   UNL     1       3.794   4.242  12.217  0.00  0.00    +0.000 HD
ENDBRANCH   2  21
TORSDOF 4
ENDMDL
MODEL 8
REMARK VINA RESULT:      -5.6      3.398      7.134
REMARK  Name = 
REMARK  6 active torsions:
REMARK  status: ('A' for Active; 'I' for Inactive)
REMARK    1  A    between atoms: C_1  and  C_2
REMARK    2  A    between atoms: C_2  and  N_3
REMARK    3  A    between atoms: C_4  and  S_5
REMARK    4  A    between atoms: N_9  and  S_10
REMARK    5  A    between atoms: S_10  and  C_13
REMARK    6  A    between atoms: C_16  and  C_17
REMARK                            x       y       z     vdW  Elec       q    Type
REMARK                         _______ _______ _______ _____ _____    ______ ____
ROOT
ATOM      1  N   UNL     1       4.900   3.339  12.779  0.00  0.00    +0.000 NA
ATOM      2  C   UNL     1       5.887   3.917  13.371  0.00  0.00    +0.000 C 
ATOM      3  N   UNL     1       5.754   4.350  14.676  0.00  0.00    +0.000 N 
ATOM      4  C   UNL     1       6.539   5.447  15.266  0.00  0.00    +0.000 C 
ATOM      5  C   UNL     1       5.658   6.360  16.143  0.00  0.00    +0.000 C 
ATOM      6  N   UNL     1       4.868   5.601  17.163  0.00  0.00    +0.000 NA
ATOM      7  C   UNL     1       4.037   4.563  16.453  0.00  0.00    +0.000 C 
ATOM      8  C   UNL     1       4.905   3.604  15.625  0.00  0.00    +0.000 C 
ENDROOT
BRANCH   6   9
ATOM      9  S   UNL     1       5.734   5.018  18.521  0.00  0.00    +0.000 S 
ATOM     10  O   UNL     1       6.582   3.932  18.072  0.00  0.00    +0.000 OA
ATOM     11  O   UNL     1       6.297   6.157  19.225  0.00  0.00    +0.000 OA
BRANCH   9  12
ATOM     12  C   UNL     1       4.479   4.302  19.562  0.00  0.00    +0.000 A 
ATOM     13  C   UNL     1       3.463   5.115  20.064  0.00  0.00    +0.000 A 
ATOM     14  C   UNL     1       2.433   4.546  20.821  0.00  0.00    +0.000 A 
ATOM     15  C   UNL     1       2.407   3.167  21.069  0.00  0.00    +0.000 A 
ATOM     16  C   UNL     1       1.292   2.544  21.861  0.00  0.00    +0.000 C 
ATOM     17  C   UNL     1       3.427   2.360  20.545  0.00  0.00    +0.000 A 
ATOM     18  C   UNL     1       4.465   2.922  19.797  0.00  0.00    +0.000 A 
ENDBRANCH   9  12
ENDBRANCH   6   9
BRANCH   1  20
ATOM     19  C   UNL     1       3.637   3.342  10.727  0.00  0.00    +0.000 C 
ATOM     20  C   UNL     1       4.938   2.919  11.388  0.00  0.00    +0.000 C 
ENDBRANCH   1  20
BRANCH   2  21
ATOM     21  S   UNL     1       7.455   4.201  12.604  0.00  0.00    +0.000 S 
ATOM     22  H   UNL     1       7.697   5.421  13.088  0.00  0.00    +0.000 HD
ENDBRANCH   2  21
TORSDOF 4
ENDMDL
MODEL 9
REMARK VINA RESULT:      -5.6      3.346      7.485
REMARK  Name = 
REMARK  6 active torsions:
REMARK  status: ('A' for Active; 'I' for Inactive)
REMARK    1  A    between atoms: C_1  and  C_2
REMARK    2  A    between atoms: C_2  and  N_3
REMARK    3  A    between atoms: C_4  and  S_5
REMARK    4  A    between atoms: N_9  and  S_10
REMARK    5  A    between atoms: S_10  and  C_13
REMARK    6  A    between atoms: C_16  and  C_17
REMARK                            x       y       z     vdW  Elec       q    Type
REMARK                         _______ _______ _______ _____ _____    ______ ____
ROOT
ATOM      1  N   UNL     1       6.359   3.423  12.727  0.00  0.00    +0.000 NA
ATOM      2  C   UNL     1       6.862   4.375  13.435  0.00  0.00    +0.000 C 
ATOM      3  N   UNL     1       6.354   4.644  14.692  0.00  0.00    +0.000 N 
ATOM      4  C   UNL     1       6.436   5.957  15.351  0.00  0.00    +0.000 C 
ATOM      5  C   UNL     1       5.113   6.314  16.061  0.00  0.00    +0.000 C 
ATOM      6  N   UNL     1       4.638   5.233  16.982  0.00  0.00    +0.000 NA
ATOM      7  C   UNL     1       4.506   3.954  16.196  0.00  0.00    +0.000 C 
ATOM      8  C   UNL     1       5.832   3.549  15.534  0.00  0.00    +0.000 C 
ENDROOT
BRANCH   6   9
ATOM      9  S   UNL     1       5.473   5.075  18.469  0.00  0.00    +0.000 S 
ATOM     10  O   UNL     1       6.529   4.102  18.283  0.00  0.00    +0.000 OA
ATOM     11  O   UNL     1       5.770   6.407  18.967  0.00  0.00    +0.000 OA
BRANCH   9  12
ATOM     12  C   UNL     1       4.275   4.342  19.564  0.00  0.00    +0.000 A 
ATOM     13  C   UNL     1       3.204   5.111  20.019  0.00  0.00    +0.000 A 
ATOM     14  C   UNL     1       2.219   4.521  20.819  0.00  0.00    +0.000 A 
ATOM     15  C   UNL     1       2.293   3.162  21.155  0.00  0.00    +0.000 A 
ATOM     16  C   UNL     1       1.228   2.514  21.994  0.00  0.00    +0.000 C 
ATOM     17  C   UNL     1       3.367   2.397  20.678  0.00  0.00    +0.000 A 
ATOM     18  C   UNL     1       4.360   2.983  19.888  0.00  0.00    +0.000 A 
ENDBRANCH   9  12
ENDBRANCH   6   9
BRANCH   1  20
ATOM     19  C   UNL     1       7.048   1.630  11.272  0.00  0.00    +0.000 C 
ATOM     20  C   UNL     1       6.789   3.124  11.372  0.00  0.00    +0.000 C 
ENDBRANCH   1  20
BRANCH   2  21
ATOM     21  S   UNL     1       8.202   5.393  12.894  0.00  0.00    +0.000 S 
ATOM     22  H   UNL     1       8.456   6.019  14.044  0.00  0.00    +0.000 HD
ENDBRANCH   2  21
TORSDOF 4
ENDMDL
