MODEL 1
REMARK VINA RESULT:      -7.6      0.000      0.000
REMARK  Name = 
REMARK  13 active torsions:
REMARK  status: ('A' for Active; 'I' for Inactive)
REMARK    1  A    between atoms: C_1  and  C_2
REMARK    2  A    between atoms: C_2  and  C_3
REMARK    3  A    between atoms: C_3  and  C_4
REMARK    4  A    between atoms: C_4  and  C_5
REMARK    5  A    between atoms: C_5  and  C_6
REMARK    6  A    between atoms: C_6  and  C_7
REMARK    7  A    between atoms: C_7  and  C_8
REMARK    8  A    between atoms: C_8  and  C_9
REMARK    9  A    between atoms: C_9  and  C_10
REMARK   10  A    between atoms: C_10  and  C_11
REMARK   11  A    between atoms: C_11  and  C_12
REMARK   12  A    between atoms: C_12  and  N_13
REMARK   13  A    between atoms: N_18  and  C_19
REMARK                            x       y       z     vdW  Elec       q    Type
REMARK                         _______ _______ _______ _____ _____    ______ ____
ROOT
ATOM      1  N   UNL     1       3.270   5.806  18.342  0.00  0.00    +0.000 N 
ATOM      2  C   UNL     1       2.613   7.001  18.674  0.00  0.00    +0.000 A 
ATOM      3  N   UNL     1       2.634   8.010  17.852  0.00  0.00    +0.000 NA
ATOM      4  C   UNL     1       2.071   9.219  18.150  0.00  0.00    +0.000 A 
ATOM      5  O   UNL     1       2.192  10.148  17.359  0.00  0.00    +0.000 OA
ATOM      6  N   UNL     1       1.392   9.385  19.351  0.00  0.00    +0.000 N 
ATOM      7  C   UNL     1       0.813  10.679  19.656  0.00  0.00    +0.000 C 
ATOM      8  C   UNL     1       1.269   8.406  20.312  0.00  0.00    +0.000 A 
ATOM      9  O   UNL     1       0.680   8.560  21.383  0.00  0.00    +0.000 OA
ATOM     10  C   UNL     1       1.916   7.135  19.967  0.00  0.00    +0.000 A 
ATOM     11  C   UNL     1       1.892   6.089  20.805  0.00  0.00    +0.000 A 
ATOM     12  C   UNL     1       2.540   4.823  20.449  0.00  0.00    +0.000 A 
ATOM     13  C   UNL     1       2.456   3.748  21.344  0.00  0.00    +0.000 A 
ATOM     14  C   UNL     1       3.058   2.534  21.043  0.00  0.00    +0.000 A 
ATOM     15  C   UNL     1       3.748   2.387  19.845  0.00  0.00    +0.000 A 
ATOM     16  C   UNL     1       3.837   3.458  18.946  0.00  0.00    +0.000 A 
ATOM     17  C   UNL     1       3.234   4.698  19.225  0.00  0.00    +0.000 A 
ENDROOT
BRANCH   1  18
ATOM     18  C   UNL     1       4.116   5.769  17.156  0.00  0.00    +0.000 C 
BRANCH  18  19
ATOM     19  C   UNL     1       5.487   6.411  17.423  0.00  0.00    +0.000 C 
BRANCH  19  20
ATOM     20  C   UNL     1       6.541   5.849  16.479  0.00  0.00    +0.000 C 
BRANCH  20  21
ATOM     21  C   UNL     1       6.730   4.358  16.726  0.00  0.00    +0.000 C 
BRANCH  21  22
ATOM     22  C   UNL     1       6.118   3.546  15.611  0.00  0.00    +0.000 C 
BRANCH  22  23
ATOM     23  C   UNL     1       6.308   4.271  14.291  0.00  0.00    +0.000 C 
BRANCH  23  24
ATOM     24  C   UNL     1       5.039   4.157  13.466  0.00  0.00    +0.000 C 
BRANCH  24  25
ATOM     25  C   UNL     1       5.384   3.924  12.007  0.00  0.00    +0.000 C 
BRANCH  25  26
ATOM     26  C   UNL     1       4.673   2.679  11.498  0.00  0.00    +0.000 C 
BRANCH  26  27
ATOM     27  C   UNL     1       3.339   3.054  10.869  0.00  0.00    +0.000 C 
BRANCH  27  29
ATOM     28  C   UNL     1       2.442   4.824   9.346  0.00  0.00    +0.000 C 
ATOM     29  C   UNL     1       3.551   3.812   9.566  0.00  0.00    +0.000 C 
ENDBRANCH  27  29
ENDBRANCH  26  27
ENDBRANCH  25  26
ENDBRANCH  24  25
ENDBRANCH  23  24
ENDBRANCH  22  23
ENDBRANCH  21  22
ENDBRANCH  20  21
ENDBRANCH  19  20
ENDBRANCH  18  19
ENDBRANCH   1  18
TORSDOF 11
ENDMDL
MODEL 2
REMARK VINA RESULT:      -7.3      1.214      1.666
REMARK  Name = 
REMARK  13 active torsions:
REMARK  status: ('A' for Active; 'I' for Inactive)
REMARK    1  A    between atoms: C_1  and  C_2
REMARK    2  A    between atoms: C_2  and  C_3
REMARK    3  A    between atoms: C_3  and  C_4
REMARK    4  A    between atoms: C_4  and  C_5
REMARK    5  A    between atoms: C_5  and  C_6
REMARK    6  A    between atoms: C_6  and  C_7
REMARK    7  A    between atoms: C_7  and  C_8
REMARK    8  A    between atoms: C_8  and  C_9
REMARK    9  A    between atoms: C_9  and  C_10
REMARK   10  A    between atoms: C_10  and  C_11
REMARK   11  A    between atoms: C_11  and  C_12
REMARK   12  A    between atoms: C_12  and  N_13
REMARK   13  A    between atoms: N_18  and  C_19
REMARK                            x       y       z     vdW  Elec       q    Type
REMARK                         _______ _______ _______ _____ _____    ______ ____
ROOT
ATOM      1  N   UNL     1       3.152   5.986  18.537  0.00  0.00    +0.000 N 
ATOM      2  C   UNL     1       2.470   7.172  18.847  0.00  0.00    +0.000 A 
ATOM      3  N   UNL     1       2.530   8.193  18.042  0.00  0.00    +0.000 NA
ATOM      4  C   UNL     1       1.943   9.394  18.325  0.00  0.00    +0.000 A 
ATOM      5  O   UNL     1       2.102  10.335  17.555  0.00  0.00    +0.000 OA
ATOM      6  N   UNL     1       1.196   9.538  19.487  0.00  0.00    +0.000 N 
ATOM      7  C   UNL     1       0.592  10.825  19.777  0.00  0.00    +0.000 C 
ATOM      8  C   UNL     1       1.025   8.545  20.425  0.00  0.00    +0.000 A 
ATOM      9  O   UNL     1       0.376   8.681  21.464  0.00  0.00    +0.000 OA
ATOM     10  C   UNL     1       1.700   7.283  20.101  0.00  0.00    +0.000 A 
ATOM     11  C   UNL     1       1.635   6.225  20.921  0.00  0.00    +0.000 A 
ATOM     12  C   UNL     1       2.311   4.968  20.585  0.00  0.00    +0.000 A 
ATOM     13  C   UNL     1       2.183   3.880  21.459  0.00  0.00    +0.000 A 
ATOM     14  C   UNL     1       2.810   2.675  21.176  0.00  0.00    +0.000 A 
ATOM     15  C   UNL     1       3.567   2.549  20.017  0.00  0.00    +0.000 A 
ATOM     16  C   UNL     1       3.700   3.633  19.140  0.00  0.00    +0.000 A 
ATOM     17  C   UNL     1       3.074   4.865  19.401  0.00  0.00    +0.000 A 
ENDROOT
BRANCH   1  18
ATOM     18  C   UNL     1       4.065   5.971  17.401  0.00  0.00    +0.000 C 
BRANCH  18  19
ATOM     19  C   UNL     1       5.073   7.129  17.473  0.00  0.00    +0.000 C 
BRANCH  19  20
ATOM     20  C   UNL     1       6.488   6.633  17.207  0.00  0.00    +0.000 C 
BRANCH  20  21
ATOM     21  C   UNL     1       6.605   5.156  17.563  0.00  0.00    +0.000 C 
BRANCH  21  22
ATOM     22  C   UNL     1       7.115   4.359  16.388  0.00  0.00    +0.000 C 
BRANCH  22  23
ATOM     23  C   UNL     1       6.716   5.046  15.096  0.00  0.00    +0.000 C 
BRANCH  23  24
ATOM     24  C   UNL     1       6.770   4.047  13.955  0.00  0.00    +0.000 C 
BRANCH  24  25
ATOM     25  C   UNL     1       5.375   3.787  13.420  0.00  0.00    +0.000 C 
BRANCH  25  26
ATOM     26  C   UNL     1       5.455   3.227  12.008  0.00  0.00    +0.000 C 
BRANCH  26  27
ATOM     27  C   UNL     1       6.901   3.205  11.532  0.00  0.00    +0.000 C 
BRANCH  27  29
ATOM     28  C   UNL     1       6.100   0.877  11.094  0.00  0.00    +0.000 C 
ATOM     29  C   UNL     1       7.301   1.805  11.088  0.00  0.00    +0.000 C 
ENDBRANCH  27  29
ENDBRANCH  26  27
ENDBRANCH  25  26
ENDBRANCH  24  25
ENDBRANCH  23  24
ENDBRANCH  22  23
ENDBRANCH  21  22
ENDBRANCH  20  21
ENDBRANCH  19  20
ENDBRANCH  18  19
ENDBRANCH   1  18
TORSDOF 11
ENDMDL
MODEL 3
REMARK VINA RESULT:      -7.2      3.450      7.307
REMARK  Name = 
REMARK  13 active torsions:
REMARK  status: ('A' for Active; 'I' for Inactive)
REMARK    1  A    between atoms: C_1  and  C_2
REMARK    2  A    between atoms: C_2  and  C_3
REMARK    3  A    between atoms: C_3  and  C_4
REMARK    4  A    between atoms: C_4  and  C_5
REMARK    5  A    between atoms: C_5  and  C_6
REMARK    6  A    between atoms: C_6  and  C_7
REMARK    7  A    between atoms: C_7  and  C_8
REMARK    8  A    between atoms: C_8  and  C_9
REMARK    9  A    between atoms: C_9  and  C_10
REMARK   10  A    between atoms: C_10  and  C_11
REMARK   11  A    between atoms: C_11  and  C_12
REMARK   12  A    between atoms: C_12  and  N_13
REMARK   13  A    between atoms: N_18  and  C_19
REMARK                            x       y       z     vdW  Elec       q    Type
REMARK                         _______ _______ _______ _____ _____    ______ ____
ROOT
ATOM      1  N   UNL     1       3.413   5.547  18.882  0.00  0.00    +0.000 N 
ATOM      2  C   UNL     1       4.456   5.428  17.951  0.00  0.00    +0.000 A 
ATOM      3  N   UNL     1       5.309   6.399  17.798  0.00  0.00    +0.000 NA
ATOM      4  C   UNL     1       6.303   6.369  16.860  0.00  0.00    +0.000 A 
ATOM      5  O   UNL     1       7.027   7.349  16.721  0.00  0.00    +0.000 OA
ATOM      6  N   UNL     1       6.465   5.241  16.065  0.00  0.00    +0.000 N 
ATOM      7  C   UNL     1       7.517   5.232  15.065  0.00  0.00    +0.000 C 
ATOM      8  C   UNL     1       5.654   4.130  16.123  0.00  0.00    +0.000 A 
ATOM      9  O   UNL     1       5.789   3.137  15.405  0.00  0.00    +0.000 OA
ATOM     10  C   UNL     1       4.579   4.217  17.118  0.00  0.00    +0.000 A 
ATOM     11  C   UNL     1       3.701   3.218  17.288  0.00  0.00    +0.000 A 
ATOM     12  C   UNL     1       2.633   3.316  18.287  0.00  0.00    +0.000 A 
ATOM     13  C   UNL     1       1.762   2.230  18.451  0.00  0.00    +0.000 A 
ATOM     14  C   UNL     1       0.737   2.285  19.385  0.00  0.00    +0.000 A 
ATOM     15  C   UNL     1       0.577   3.426  20.163  0.00  0.00    +0.000 A 
ATOM     16  C   UNL     1       1.443   4.515  20.005  0.00  0.00    +0.000 A 
ATOM     17  C   UNL     1       2.491   4.485  19.067  0.00  0.00    +0.000 A 
ENDROOT
BRANCH   1  18
ATOM     18  C   UNL     1       3.194   6.827  19.542  0.00  0.00    +0.000 C 
BRANCH  18  19
ATOM     19  C   UNL     1       1.962   7.550  18.976  0.00  0.00    +0.000 C 
BRANCH  19  20
ATOM     20  C   UNL     1       2.335   8.381  17.756  0.00  0.00    +0.000 C 
BRANCH  20  21
ATOM     21  C   UNL     1       1.922   9.833  17.960  0.00  0.00    +0.000 C 
BRANCH  21  22
ATOM     22  C   UNL     1       0.457   9.932  18.307  0.00  0.00    +0.000 C 
BRANCH  22  23
ATOM     23  C   UNL     1       0.198  11.223  19.060  0.00  0.00    +0.000 C 
BRANCH  23  24
ATOM     24  C   UNL     1      -0.946  11.971  18.402  0.00  0.00    +0.000 C 
BRANCH  24  25
ATOM     25  C   UNL     1      -2.275  11.456  18.920  0.00  0.00    +0.000 C 
BRANCH  25  26
ATOM     26  C   UNL     1      -3.206  11.153  17.756  0.00  0.00    +0.000 C 
BRANCH  26  27
ATOM     27  C   UNL     1      -2.417  11.092  16.455  0.00  0.00    +0.000 C 
BRANCH  27  29
ATOM     28  C   UNL     1      -3.601  10.135  14.471  0.00  0.00    +0.000 C 
ATOM     29  C   UNL     1      -2.747   9.821  15.685  0.00  0.00    +0.000 C 
ENDBRANCH  27  29
ENDBRANCH  26  27
ENDBRANCH  25  26
ENDBRANCH  24  25
ENDBRANCH  23  24
ENDBRANCH  22  23
ENDBRANCH  21  22
ENDBRANCH  20  21
ENDBRANCH  19  20
ENDBRANCH  18  19
ENDBRANCH   1  18
TORSDOF 11
ENDMDL
MODEL 4
REMARK VINA RESULT:      -7.2      3.938      6.269
REMARK  Name = 
REMARK  13 active torsions:
REMARK  status: ('A' for Active; 'I' for Inactive)
REMARK    1  A    between atoms: C_1  and  C_2
REMARK    2  A    between atoms: C_2  and  C_3
REMARK    3  A    between atoms: C_3  and  C_4
REMARK    4  A    between atoms: C_4  and  C_5
REMARK    5  A    between atoms: C_5  and  C_6
REMARK    6  A    between atoms: C_6  and  C_7
REMARK    7  A    between atoms: C_7  and  C_8
REMARK    8  A    between atoms: C_8  and  C_9
REMARK    9  A    between atoms: C_9  and  C_10
REMARK   10  A    between atoms: C_10  and  C_11
REMARK   11  A    between atoms: C_11  and  C_12
REMARK   12  A    between atoms: C_12  and  N_13
REMARK   13  A    between atoms: N_18  and  C_19
REMARK                            x       y       z     vdW  Elec       q    Type
REMARK                         _______ _______ _______ _____ _____    ______ ____
ROOT
ATOM      1  N   UNL     1       3.285   6.024  18.534  0.00  0.00    +0.000 N 
ATOM      2  C   UNL     1       2.588   7.214  18.792  0.00  0.00    +0.000 A 
ATOM      3  N   UNL     1       2.696   8.225  17.980  0.00  0.00    +0.000 NA
ATOM      4  C   UNL     1       2.096   9.431  18.215  0.00  0.00    +0.000 A 
ATOM      5  O   UNL     1       2.300  10.363  17.445  0.00  0.00    +0.000 OA
ATOM      6  N   UNL     1       1.284   9.589  19.332  0.00  0.00    +0.000 N 
ATOM      7  C   UNL     1       0.667  10.880  19.572  0.00  0.00    +0.000 C 
ATOM      8  C   UNL     1       1.059   8.607  20.270  0.00  0.00    +0.000 A 
ATOM      9  O   UNL     1       0.352   8.755  21.268  0.00  0.00    +0.000 OA
ATOM     10  C   UNL     1       1.748   7.341  19.998  0.00  0.00    +0.000 A 
ATOM     11  C   UNL     1       1.635   6.292  20.826  0.00  0.00    +0.000 A 
ATOM     12  C   UNL     1       2.327   5.031  20.542  0.00  0.00    +0.000 A 
ATOM     13  C   UNL     1       2.148   3.953  21.420  0.00  0.00    +0.000 A 
ATOM     14  C   UNL     1       2.787   2.743  21.187  0.00  0.00    +0.000 A 
ATOM     15  C   UNL     1       3.609   2.603  20.074  0.00  0.00    +0.000 A 
ATOM     16  C   UNL     1       3.793   3.677  19.193  0.00  0.00    +0.000 A 
ATOM     17  C   UNL     1       3.155   4.913  19.405  0.00  0.00    +0.000 A 
ENDROOT
BRANCH   1  18
ATOM     18  C   UNL     1       4.260   5.995  17.452  0.00  0.00    +0.000 C 
BRANCH  18  19
ATOM     19  C   UNL     1       5.699   6.066  17.988  0.00  0.00    +0.000 C 
BRANCH  19  20
ATOM     20  C   UNL     1       6.543   7.016  17.150  0.00  0.00    +0.000 C 
BRANCH  20  21
ATOM     21  C   UNL     1       7.729   7.523  17.960  0.00  0.00    +0.000 C 
BRANCH  21  22
ATOM     22  C   UNL     1       7.797   9.030  17.928  0.00  0.00    +0.000 C 
BRANCH  22  23
ATOM     23  C   UNL     1       9.201   9.484  18.281  0.00  0.00    +0.000 C 
BRANCH  23  24
ATOM     24  C   UNL     1       9.126  10.616  19.289  0.00  0.00    +0.000 C 
BRANCH  24  25
ATOM     25  C   UNL     1      10.448  11.359  19.339  0.00  0.00    +0.000 C 
BRANCH  25  26
ATOM     26  C   UNL     1      10.953  11.618  17.927  0.00  0.00    +0.000 C 
BRANCH  26  27
ATOM     27  C   UNL     1      10.356  12.908  17.383  0.00  0.00    +0.000 C 
BRANCH  27  29
ATOM     28  C   UNL     1      11.376  15.172  17.086  0.00  0.00    +0.000 C 
ATOM     29  C   UNL     1      11.411  13.720  16.645  0.00  0.00    +0.000 C 
ENDBRANCH  27  29
ENDBRANCH  26  27
ENDBRANCH  25  26
ENDBRANCH  24  25
ENDBRANCH  23  24
ENDBRANCH  22  23
ENDBRANCH  21  22
ENDBRANCH  20  21
ENDBRANCH  19  20
ENDBRANCH  18  19
ENDBRANCH   1  18
TORSDOF 11
ENDMDL
MODEL 5
REMARK VINA RESULT:      -7.2      3.232      5.700
REMARK  Name = 
REMARK  13 active torsions:
REMARK  status: ('A' for Active; 'I' for Inactive)
REMARK    1  A    between atoms: C_1  and  C_2
REMARK    2  A    between atoms: C_2  and  C_3
REMARK    3  A    between atoms: C_3  and  C_4
REMARK    4  A    between atoms: C_4  and  C_5
REMARK    5  A    between atoms: C_5  and  C_6
REMARK    6  A    between atoms: C_6  and  C_7
REMARK    7  A    between atoms: C_7  and  C_8
REMARK    8  A    between atoms: C_8  and  C_9
REMARK    9  A    between atoms: C_9  and  C_10
REMARK   10  A    between atoms: C_10  and  C_11
REMARK   11  A    between atoms: C_11  and  C_12
REMARK   12  A    between atoms: C_12  and  N_13
REMARK   13  A    between atoms: N_18  and  C_19
REMARK                            x       y       z     vdW  Elec       q    Type
REMARK                         _______ _______ _______ _____ _____    ______ ____
ROOT
ATOM      1  N   UNL     1       2.952   5.499  18.473  0.00  0.00    +0.000 N 
ATOM      2  C   UNL     1       2.408   6.755  18.782  0.00  0.00    +0.000 A 
ATOM      3  N   UNL     1       2.444   7.718  17.907  0.00  0.00    +0.000 NA
ATOM      4  C   UNL     1       1.993   8.979  18.176  0.00  0.00    +0.000 A 
ATOM      5  O   UNL     1       2.124   9.856  17.330  0.00  0.00    +0.000 OA
ATOM      6  N   UNL     1       1.415   9.255  19.409  0.00  0.00    +0.000 N 
ATOM      7  C   UNL     1       0.954  10.603  19.681  0.00  0.00    +0.000 C 
ATOM      8  C   UNL     1       1.289   8.337  20.427  0.00  0.00    +0.000 A 
ATOM      9  O   UNL     1       0.791   8.588  21.526  0.00  0.00    +0.000 OA
ATOM     10  C   UNL     1       1.817   7.005  20.110  0.00  0.00    +0.000 A 
ATOM     11  C   UNL     1       1.776   6.006  21.003  0.00  0.00    +0.000 A 
ATOM     12  C   UNL     1       2.304   4.679  20.674  0.00  0.00    +0.000 A 
ATOM     13  C   UNL     1       2.206   3.659  21.629  0.00  0.00    +0.000 A 
ATOM     14  C   UNL     1       2.695   2.390  21.356  0.00  0.00    +0.000 A 
ATOM     15  C   UNL     1       3.286   2.131  20.124  0.00  0.00    +0.000 A 
ATOM     16  C   UNL     1       3.389   3.147  19.164  0.00  0.00    +0.000 A 
ATOM     17  C   UNL     1       2.899   4.442  19.415  0.00  0.00    +0.000 A 
ENDROOT
BRANCH   1  18
ATOM     18  C   UNL     1       3.707   5.339  17.237  0.00  0.00    +0.000 C 
BRANCH  18  19
ATOM     19  C   UNL     1       5.220   5.459  17.482  0.00  0.00    +0.000 C 
BRANCH  19  20
ATOM     20  C   UNL     1       5.846   6.461  16.522  0.00  0.00    +0.000 C 
BRANCH  20  21
ATOM     21  C   UNL     1       7.312   6.682  16.872  0.00  0.00    +0.000 C 
BRANCH  21  22
ATOM     22  C   UNL     1       7.513   6.688  18.367  0.00  0.00    +0.000 C 
BRANCH  22  23
ATOM     23  C   UNL     1       8.581   7.702  18.733  0.00  0.00    +0.000 C 
BRANCH  23  24
ATOM     24  C   UNL     1       8.286   9.019  18.041  0.00  0.00    +0.000 C 
BRANCH  24  25
ATOM     25  C   UNL     1       8.895  10.168  18.821  0.00  0.00    +0.000 C 
BRANCH  25  26
ATOM     26  C   UNL     1       9.608  11.121  17.873  0.00  0.00    +0.000 C 
BRANCH  26  27
ATOM     27  C   UNL     1       9.094  12.540  18.069  0.00  0.00    +0.000 C 
BRANCH  27  29
ATOM     28  C   UNL     1      11.417  12.859  17.200  0.00  0.00    +0.000 C 
ATOM     29  C   UNL     1      10.167  13.556  17.704  0.00  0.00    +0.000 C 
ENDBRANCH  27  29
ENDBRANCH  26  27
ENDBRANCH  25  26
ENDBRANCH  24  25
ENDBRANCH  23  24
ENDBRANCH  22  23
ENDBRANCH  21  22
ENDBRANCH  20  21
ENDBRANCH  19  20
ENDBRANCH  18  19
ENDBRANCH   1  18
TORSDOF 11
ENDMDL
MODEL 6
REMARK VINA RESULT:      -7.1      3.758      6.589
REMARK  Name = 
REMARK  13 active torsions:
REMARK  status: ('A' for Active; 'I' for Inactive)
REMARK    1  A    between atoms: C_1  and  C_2
REMARK    2  A    between atoms: C_2  and  C_3
REMARK    3  A    between atoms: C_3  and  C_4
REMARK    4  A    between atoms: C_4  and  C_5
REMARK    5  A    between atoms: C_5  and  C_6
REMARK    6  A    between atoms: C_6  and  C_7
REMARK    7  A    between atoms: C_7  and  C_8
REMARK    8  A    between atoms: C_8  and  C_9
REMARK    9  A    between atoms: C_9  and  C_10
REMARK   10  A    between atoms: C_10  and  C_11
REMARK   11  A    between atoms: C_11  and  C_12
REMARK   12  A    between atoms: C_12  and  N_13
REMARK   13  A    between atoms: N_18  and  C_19
REMARK                            x       y       z     vdW  Elec       q    Type
REMARK                         _______ _______ _______ _____ _____    ______ ____
ROOT
ATOM      1  N   UNL     1       3.184   6.005  18.587  0.00  0.00    +0.000 N 
ATOM      2  C   UNL     1       2.502   7.193  18.890  0.00  0.00    +0.000 A 
ATOM      3  N   UNL     1       2.595   8.222  18.099  0.00  0.00    +0.000 NA
ATOM      4  C   UNL     1       2.009   9.425  18.377  0.00  0.00    +0.000 A 
ATOM      5  O   UNL     1       2.199  10.373  17.623  0.00  0.00    +0.000 OA
ATOM      6  N   UNL     1       1.228   9.563  19.518  0.00  0.00    +0.000 N 
ATOM      7  C   UNL     1       0.626  10.851  19.805  0.00  0.00    +0.000 C 
ATOM      8  C   UNL     1       1.021   8.560  20.440  0.00  0.00    +0.000 A 
ATOM      9  O   UNL     1       0.342   8.690  21.460  0.00  0.00    +0.000 OA
ATOM     10  C   UNL     1       1.696   7.297  20.121  0.00  0.00    +0.000 A 
ATOM     11  C   UNL     1       1.597   6.230  20.927  0.00  0.00    +0.000 A 
ATOM     12  C   UNL     1       2.274   4.972  20.596  0.00  0.00    +0.000 A 
ATOM     13  C   UNL     1       2.111   3.875  21.454  0.00  0.00    +0.000 A 
ATOM     14  C   UNL     1       2.736   2.667  21.176  0.00  0.00    +0.000 A 
ATOM     15  C   UNL     1       3.527   2.548  20.039  0.00  0.00    +0.000 A 
ATOM     16  C   UNL     1       3.695   3.640  19.179  0.00  0.00    +0.000 A 
ATOM     17  C   UNL     1       3.071   4.875  19.435  0.00  0.00    +0.000 A 
ENDROOT
BRANCH   1  18
ATOM     18  C   UNL     1       4.130   5.995  17.478  0.00  0.00    +0.000 C 
BRANCH  18  19
ATOM     19  C   UNL     1       5.582   6.054  17.977  0.00  0.00    +0.000 C 
BRANCH  19  20
ATOM     20  C   UNL     1       6.338   7.195  17.311  0.00  0.00    +0.000 C 
BRANCH  20  21
ATOM     21  C   UNL     1       7.830   7.078  17.596  0.00  0.00    +0.000 C 
BRANCH  21  22
ATOM     22  C   UNL     1       8.308   8.234  18.441  0.00  0.00    +0.000 C 
BRANCH  22  23
ATOM     23  C   UNL     1       8.025   9.540  17.722  0.00  0.00    +0.000 C 
BRANCH  23  24
ATOM     24  C   UNL     1       8.985  10.606  18.217  0.00  0.00    +0.000 C 
BRANCH  24  25
ATOM     25  C   UNL     1       9.472  10.264  19.613  0.00  0.00    +0.000 C 
BRANCH  25  26
ATOM     26  C   UNL     1      10.314  11.405  20.164  0.00  0.00    +0.000 C 
BRANCH  26  27
ATOM     27  C   UNL     1       9.455  12.327  21.017  0.00  0.00    +0.000 C 
BRANCH  27  29
ATOM     28  C   UNL     1      10.132  14.649  21.655  0.00  0.00    +0.000 C 
ATOM     29  C   UNL     1       9.583  13.770  20.547  0.00  0.00    +0.000 C 
ENDBRANCH  27  29
ENDBRANCH  26  27
ENDBRANCH  25  26
ENDBRANCH  24  25
ENDBRANCH  23  24
ENDBRANCH  22  23
ENDBRANCH  21  22
ENDBRANCH  20  21
ENDBRANCH  19  20
ENDBRANCH  18  19
ENDBRANCH   1  18
TORSDOF 11
ENDMDL
MODEL 7
REMARK VINA RESULT:      -7.1      0.648      1.136
REMARK  Name = 
REMARK  13 active torsions:
REMARK  status: ('A' for Active; 'I' for Inactive)
REMARK    1  A    between atoms: C_1  and  C_2
REMARK    2  A    between atoms: C_2  and  C_3
REMARK    3  A    between atoms: C_3  and  C_4
REMARK    4  A    between atoms: C_4  and  C_5
REMARK    5  A    between atoms: C_5  and  C_6
REMARK    6  A    between atoms: C_6  and  C_7
REMARK    7  A    between atoms: C_7  and  C_8
REMARK    8  A    between atoms: C_8  and  C_9
REMARK    9  A    between atoms: C_9  and  C_10
REMARK   10  A    between atoms: C_10  and  C_11
REMARK   11  A    between atoms: C_11  and  C_12
REMARK   12  A    between atoms: C_12  and  N_13
REMARK   13  A    between atoms: N_18  and  C_19
REMARK                            x       y       z     vdW  Elec       q    Type
REMARK                         _______ _______ _______ _____ _____    ______ ____
ROOT
ATOM      1  N   UNL     1       3.106   5.865  18.534  0.00  0.00    +0.000 N 
ATOM      2  C   UNL     1       2.455   7.064  18.861  0.00  0.00    +0.000 A 
ATOM      3  N   UNL     1       2.513   8.083  18.052  0.00  0.00    +0.000 NA
ATOM      4  C   UNL     1       1.957   9.295  18.349  0.00  0.00    +0.000 A 
ATOM      5  O   UNL     1       2.113  10.232  17.573  0.00  0.00    +0.000 OA
ATOM      6  N   UNL     1       1.246   9.456  19.531  0.00  0.00    +0.000 N 
ATOM      7  C   UNL     1       0.675  10.754  19.836  0.00  0.00    +0.000 C 
ATOM      8  C   UNL     1       1.082   8.468  20.476  0.00  0.00    +0.000 A 
ATOM      9  O   UNL     1       0.465   8.617  21.532  0.00  0.00    +0.000 OA
ATOM     10  C   UNL     1       1.723   7.192  20.135  0.00  0.00    +0.000 A 
ATOM     11  C   UNL     1       1.661   6.137  20.959  0.00  0.00    +0.000 A 
ATOM     12  C   UNL     1       2.303   4.867  20.606  0.00  0.00    +0.000 A 
ATOM     13  C   UNL     1       2.179   3.782  21.485  0.00  0.00    +0.000 A 
ATOM     14  C   UNL     1       2.774   2.565  21.187  0.00  0.00    +0.000 A 
ATOM     15  C   UNL     1       3.496   2.422  20.008  0.00  0.00    +0.000 A 
ATOM     16  C   UNL     1       3.625   3.502  19.125  0.00  0.00    +0.000 A 
ATOM     17  C   UNL     1       3.030   4.747  19.401  0.00  0.00    +0.000 A 
ENDROOT
BRANCH   1  18
ATOM     18  C   UNL     1       3.986   5.831  17.372  0.00  0.00    +0.000 C 
BRANCH  18  19
ATOM     19  C   UNL     1       4.836   7.107  17.272  0.00  0.00    +0.000 C 
BRANCH  19  20
ATOM     20  C   UNL     1       6.318   6.767  17.201  0.00  0.00    +0.000 C 
BRANCH  20  21
ATOM     21  C   UNL     1       6.626   5.564  18.083  0.00  0.00    +0.000 C 
BRANCH  21  22
ATOM     22  C   UNL     1       7.390   4.515  17.313  0.00  0.00    +0.000 C 
BRANCH  22  23
ATOM     23  C   UNL     1       7.266   4.784  15.825  0.00  0.00    +0.000 C 
BRANCH  23  24
ATOM     24  C   UNL     1       6.385   3.725  15.191  0.00  0.00    +0.000 C 
BRANCH  24  25
ATOM     25  C   UNL     1       6.234   3.990  13.705  0.00  0.00    +0.000 C 
BRANCH  25  26
ATOM     26  C   UNL     1       4.898   3.453  13.214  0.00  0.00    +0.000 C 
BRANCH  26  27
ATOM     27  C   UNL     1       4.989   3.084  11.740  0.00  0.00    +0.000 C 
BRANCH  27  29
ATOM     28  C   UNL     1       3.082   3.188  10.126  0.00  0.00    +0.000 C 
ATOM     29  C   UNL     1       4.106   3.997  10.901  0.00  0.00    +0.000 C 
ENDBRANCH  27  29
ENDBRANCH  26  27
ENDBRANCH  25  26
ENDBRANCH  24  25
ENDBRANCH  23  24
ENDBRANCH  22  23
ENDBRANCH  21  22
ENDBRANCH  20  21
ENDBRANCH  19  20
ENDBRANCH  18  19
ENDBRANCH   1  18
TORSDOF 11
ENDMDL
MODEL 8
REMARK VINA RESULT:      -7.1      3.636      6.276
REMARK  Name = 
REMARK  13 active torsions:
REMARK  status: ('A' for Active; 'I' for Inactive)
REMARK    1  A    between atoms: C_1  and  C_2
REMARK    2  A    between atoms: C_2  and  C_3
REMARK    3  A    between atoms: C_3  and  C_4
REMARK    4  A    between atoms: C_4  and  C_5
REMARK    5  A    between atoms: C_5  and  C_6
REMARK    6  A    between atoms: C_6  and  C_7
REMARK    7  A    between atoms: C_7  and  C_8
REMARK    8  A    between atoms: C_8  and  C_9
REMARK    9  A    between atoms: C_9  and  C_10
REMARK   10  A    between atoms: C_10  and  C_11
REMARK   11  A    between atoms: C_11  and  C_12
REMARK   12  A    between atoms: C_12  and  N_13
REMARK   13  A    between atoms: N_18  and  C_19
REMARK                            x       y       z     vdW  Elec       q    Type
REMARK                         _______ _______ _______ _____ _____    ______ ____
ROOT
ATOM      1  N   UNL     1       3.263   5.812  18.370  0.00  0.00    +0.000 N 
ATOM      2  C   UNL     1       2.593   7.004  18.684  0.00  0.00    +0.000 A 
ATOM      3  N   UNL     1       2.617   8.007  17.855  0.00  0.00    +0.000 NA
ATOM      4  C   UNL     1       2.042   9.214  18.137  0.00  0.00    +0.000 A 
ATOM      5  O   UNL     1       2.165  10.137  17.340  0.00  0.00    +0.000 OA
ATOM      6  N   UNL     1       1.347   9.384  19.328  0.00  0.00    +0.000 N 
ATOM      7  C   UNL     1       0.755  10.677  19.616  0.00  0.00    +0.000 C 
ATOM      8  C   UNL     1       1.219   8.412  20.294  0.00  0.00    +0.000 A 
ATOM      9  O   UNL     1       0.616   8.570  21.358  0.00  0.00    +0.000 OA
ATOM     10  C   UNL     1       1.880   7.143  19.968  0.00  0.00    +0.000 A 
ATOM     11  C   UNL     1       1.853   6.104  20.814  0.00  0.00    +0.000 A 
ATOM     12  C   UNL     1       2.515   4.840  20.475  0.00  0.00    +0.000 A 
ATOM     13  C   UNL     1       2.428   3.771  21.378  0.00  0.00    +0.000 A 
ATOM     14  C   UNL     1       3.042   2.560  21.095  0.00  0.00    +0.000 A 
ATOM     15  C   UNL     1       3.748   2.408  19.906  0.00  0.00    +0.000 A 
ATOM     16  C   UNL     1       3.840   3.473  19.000  0.00  0.00    +0.000 A 
ATOM     17  C   UNL     1       3.225   4.710  19.262  0.00  0.00    +0.000 A 
ENDROOT
BRANCH   1  18
ATOM     18  C   UNL     1       4.125   5.772  17.195  0.00  0.00    +0.000 C 
BRANCH  18  19
ATOM     19  C   UNL     1       5.334   6.707  17.352  0.00  0.00    +0.000 C 
BRANCH  19  20
ATOM     20  C   UNL     1       6.505   5.974  17.992  0.00  0.00    +0.000 C 
BRANCH  20  21
ATOM     21  C   UNL     1       7.685   6.921  18.173  0.00  0.00    +0.000 C 
BRANCH  21  22
ATOM     22  C   UNL     1       7.392   8.268  17.560  0.00  0.00    +0.000 C 
BRANCH  22  23
ATOM     23  C   UNL     1       8.627   9.145  17.645  0.00  0.00    +0.000 C 
BRANCH  23  24
ATOM     24  C   UNL     1       8.919   9.466  19.099  0.00  0.00    +0.000 C 
BRANCH  24  25
ATOM     25  C   UNL     1       9.351  10.914  19.239  0.00  0.00    +0.000 C 
BRANCH  25  26
ATOM     26  C   UNL     1      10.079  11.363  17.982  0.00  0.00    +0.000 C 
BRANCH  26  27
ATOM     27  C   UNL     1      10.754  12.707  18.216  0.00  0.00    +0.000 C 
BRANCH  27  29
ATOM     28  C   UNL     1      11.072  13.988  20.340  0.00  0.00    +0.000 C 
ATOM     29  C   UNL     1      11.444  12.733  19.573  0.00  0.00    +0.000 C 
ENDBRANCH  27  29
ENDBRANCH  26  27
ENDBRANCH  25  26
ENDBRANCH  24  25
ENDBRANCH  23  24
ENDBRANCH  22  23
ENDBRANCH  21  22
ENDBRANCH  20  21
ENDBRANCH  19  20
ENDBRANCH  18  19
ENDBRANCH   1  18
TORSDOF 11
ENDMDL
MODEL 9
REMARK VINA RESULT:      -7.0      3.443      8.289
REMARK  Name = 
REMARK  13 active torsions:
REMARK  status: ('A' for Active; 'I' for Inactive)
REMARK    1  A    between atoms: C_1  and  C_2
REMARK    2  A    between atoms: C_2  and  C_3
REMARK    3  A    between atoms: C_3  and  C_4
REMARK    4  A    between atoms: C_4  and  C_5
REMARK    5  A    between atoms: C_5  and  C_6
REMARK    6  A    between atoms: C_6  and  C_7
REMARK    7  A    between atoms: C_7  and  C_8
REMARK    8  A    between atoms: C_8  and  C_9
REMARK    9  A    between atoms: C_9  and  C_10
REMARK   10  A    between atoms: C_10  and  C_11
REMARK   11  A    between atoms: C_11  and  C_12
REMARK   12  A    between atoms: C_12  and  N_13
REMARK   13  A    between atoms: N_18  and  C_19
REMARK                            x       y       z     vdW  Elec       q    Type
REMARK                         _______ _______ _______ _____ _____    ______ ____
ROOT
ATOM      1  N   UNL     1       3.239   5.533  18.807  0.00  0.00    +0.000 N 
ATOM      2  C   UNL     1       4.307   5.427  17.904  0.00  0.00    +0.000 A 
ATOM      3  N   UNL     1       5.102   6.439  17.709  0.00  0.00    +0.000 NA
ATOM      4  C   UNL     1       6.116   6.417  16.793  0.00  0.00    +0.000 A 
ATOM      5  O   UNL     1       6.781   7.431  16.609  0.00  0.00    +0.000 OA
ATOM      6  N   UNL     1       6.364   5.257  16.068  0.00  0.00    +0.000 N 
ATOM      7  C   UNL     1       7.436   5.257  15.091  0.00  0.00    +0.000 C 
ATOM      8  C   UNL     1       5.622   4.103  16.178  0.00  0.00    +0.000 A 
ATOM      9  O   UNL     1       5.834   3.081  15.523  0.00  0.00    +0.000 OA
ATOM     10  C   UNL     1       4.523   4.180  17.147  0.00  0.00    +0.000 A 
ATOM     11  C   UNL     1       3.705   3.139  17.360  0.00  0.00    +0.000 A 
ATOM     12  C   UNL     1       2.611   3.228  18.332  0.00  0.00    +0.000 A 
ATOM     13  C   UNL     1       1.806   2.100  18.544  0.00  0.00    +0.000 A 
ATOM     14  C   UNL     1       0.760   2.145  19.454  0.00  0.00    +0.000 A 
ATOM     15  C   UNL     1       0.512   3.317  20.161  0.00  0.00    +0.000 A 
ATOM     16  C   UNL     1       1.313   4.447  19.954  0.00  0.00    +0.000 A 
ATOM     17  C   UNL     1       2.381   4.429  19.038  0.00  0.00    +0.000 A 
ENDROOT
BRANCH   1  18
ATOM     18  C   UNL     1       2.927   6.834  19.387  0.00  0.00    +0.000 C 
BRANCH  18  19
ATOM     19  C   UNL     1       2.078   7.687  18.432  0.00  0.00    +0.000 C 
BRANCH  19  20
ATOM     20  C   UNL     1       1.833   9.072  19.015  0.00  0.00    +0.000 C 
BRANCH  20  21
ATOM     21  C   UNL     1       0.970   9.898  18.070  0.00  0.00    +0.000 C 
BRANCH  21  22
ATOM     22  C   UNL     1      -0.398  10.134  18.660  0.00  0.00    +0.000 C 
BRANCH  22  23
ATOM     23  C   UNL     1      -0.581  11.613  18.945  0.00  0.00    +0.000 C 
BRANCH  23  24
ATOM     24  C   UNL     1      -1.761  11.806  19.880  0.00  0.00    +0.000 C 
BRANCH  24  25
ATOM     25  C   UNL     1      -1.420  12.826  20.949  0.00  0.00    +0.000 C 
BRANCH  25  26
ATOM     26  C   UNL     1      -0.386  12.252  21.905  0.00  0.00    +0.000 C 
BRANCH  26  27
ATOM     27  C   UNL     1      -0.911  10.972  22.541  0.00  0.00    +0.000 C 
BRANCH  27  29
ATOM     28  C   UNL     1      -0.450   8.578  21.987  0.00  0.00    +0.000 C 
ATOM     29  C   UNL     1       0.146   9.877  22.498  0.00  0.00    +0.000 C 
ENDBRANCH  27  29
ENDBRANCH  26  27
ENDBRANCH  25  26
ENDBRANCH  24  25
ENDBRANCH  23  24
ENDBRANCH  22  23
ENDBRANCH  21  22
ENDBRANCH  20  21
ENDBRANCH  19  20
ENDBRANCH  18  19
ENDBRANCH   1  18
TORSDOF 11
ENDMDL
