MODEL 1
REMARK VINA RESULT:      -8.5      0.000      0.000
REMARK  Name = 
REMARK  9 active torsions:
REMARK  status: ('A' for Active; 'I' for Inactive)
REMARK    1  A    between atoms: C_1  and  C_2
REMARK    2  A    between atoms: C_5  and  C_6
REMARK    3  A    between atoms: C_6  and  N_7
REMARK    4  A    between atoms: C_8  and  C_10
REMARK    5  A    between atoms: N_13  and  C_14
REMARK    6  A    between atoms: C_14  and  C_15
REMARK    7  A    between atoms: C_17  and  C_18
REMARK    8  A    between atoms: C_23  and  C_24
REMARK    9  A    between atoms: C_26  and  C_27
REMARK                            x       y       z     vdW  Elec       q    Type
REMARK                         _______ _______ _______ _____ _____    ______ ____
ROOT
ATOM      1  C   UNL     1      -2.989  11.387  17.748  0.00  0.00    +0.000 C 
ATOM      2  C   UNL     1      -2.420  11.936  19.052  0.00  0.00    +0.000 C 
ATOM      3  C   UNL     1      -0.893  11.820  19.015  0.00  0.00    +0.000 C 
ATOM      4  N   UNL     1      -0.422  10.434  18.805  0.00  0.00    +0.000 NA
ATOM      5  C   UNL     1      -1.106   9.760  17.678  0.00  0.00    +0.000 C 
ATOM      6  C   UNL     1      -2.632   9.907  17.675  0.00  0.00    +0.000 C 
ENDROOT
BRANCH   1   8
ATOM      7  N   UNL     1      -5.094  12.263  18.651  0.00  0.00    +0.000 N 
ATOM      8  C   UNL     1      -4.472  11.673  17.579  0.00  0.00    +0.000 C 
ATOM      9  O   UNL     1      -5.051  11.396  16.536  0.00  0.00    +0.000 OA
ATOM     10  H   UNL     1      -4.556  12.521  19.467  0.00  0.00    +0.000 HD
BRANCH   7  11
ATOM     11  C   UNL     1      -6.481  12.668  18.601  0.00  0.00    +0.000 C 
BRANCH  11  16
ATOM     12  C   UNL     1      -7.150  18.105  16.611  0.00  0.00    +0.000 C 
ATOM     13  C   UNL     1      -6.955  16.702  17.106  0.00  0.00    +0.000 A 
ATOM     14  C   UNL     1      -7.164  15.606  16.265  0.00  0.00    +0.000 A 
ATOM     15  C   UNL     1      -7.002  14.303  16.746  0.00  0.00    +0.000 A 
ATOM     16  C   UNL     1      -6.623  14.075  18.076  0.00  0.00    +0.000 A 
ATOM     17  C   UNL     1      -6.408  15.175  18.913  0.00  0.00    +0.000 A 
ATOM     18  C   UNL     1      -6.573  16.477  18.434  0.00  0.00    +0.000 A 
ENDBRANCH  11  16
ENDBRANCH   7  11
ENDBRANCH   1   8
BRANCH   4  19
ATOM     19  C   UNL     1       1.035  10.428  18.498  0.00  0.00    +0.000 C 
BRANCH  19  20
ATOM     20  C   UNL     1       1.711   9.120  18.751  0.00  0.00    +0.000 A 
ATOM     21  N   UNL     1       2.386   8.490  17.723  0.00  0.00    +0.000 NA
ATOM     22  C   UNL     1       2.784   7.340  18.232  0.00  0.00    +0.000 A 
ATOM     23  O   UNL     1       2.429   7.178  19.546  0.00  0.00    +0.000 OA
ATOM     24  C   UNL     1       1.742   8.314  19.869  0.00  0.00    +0.000 A 
ATOM     25  C   UNL     1       1.217   8.394  21.240  0.00  0.00    +0.000 C 
BRANCH  22  26
ATOM     26  C   UNL     1       3.504   6.223  17.606  0.00  0.00    +0.000 A 
ATOM     27  C   UNL     1       4.728   6.459  16.951  0.00  0.00    +0.000 A 
ATOM     28  C   UNL     1       5.451   5.426  16.356  0.00  0.00    +0.000 A 
ATOM     29  C   UNL     1       4.967   4.124  16.410  0.00  0.00    +0.000 A 
ATOM     30  C   UNL     1       3.760   3.859  17.054  0.00  0.00    +0.000 A 
ATOM     31  C   UNL     1       3.014   4.893  17.649  0.00  0.00    +0.000 A 
ATOM     32  C   UNL     1       1.712   4.535  18.320  0.00  0.00    +0.000 C 
ENDBRANCH  22  26
ENDBRANCH  19  20
ENDBRANCH   4  19
TORSDOF 6
ENDMDL
MODEL 2
REMARK VINA RESULT:      -8.2      2.566     11.426
REMARK  Name = 
REMARK  9 active torsions:
REMARK  status: ('A' for Active; 'I' for Inactive)
REMARK    1  A    between atoms: C_1  and  C_2
REMARK    2  A    between atoms: C_5  and  C_6
REMARK    3  A    between atoms: C_6  and  N_7
REMARK    4  A    between atoms: C_8  and  C_10
REMARK    5  A    between atoms: N_13  and  C_14
REMARK    6  A    between atoms: C_14  and  C_15
REMARK    7  A    between atoms: C_17  and  C_18
REMARK    8  A    between atoms: C_23  and  C_24
REMARK    9  A    between atoms: C_26  and  C_27
REMARK                            x       y       z     vdW  Elec       q    Type
REMARK                         _______ _______ _______ _____ _____    ______ ____
ROOT
ATOM      1  C   UNL     1       3.064   6.940  19.019  0.00  0.00    +0.000 C 
ATOM      2  C   UNL     1       2.403   7.705  17.877  0.00  0.00    +0.000 C 
ATOM      3  C   UNL     1       1.996   9.094  18.380  0.00  0.00    +0.000 C 
ATOM      4  N   UNL     1       1.087   9.045  19.546  0.00  0.00    +0.000 NA
ATOM      5  C   UNL     1       1.566   8.134  20.610  0.00  0.00    +0.000 C 
ATOM      6  C   UNL     1       2.022   6.756  20.116  0.00  0.00    +0.000 C 
ENDROOT
BRANCH   1   8
ATOM      7  N   UNL     1       5.072   5.704  18.349  0.00  0.00    +0.000 N 
ATOM      8  C   UNL     1       3.719   5.645  18.567  0.00  0.00    +0.000 C 
ATOM      9  O   UNL     1       3.059   4.623  18.426  0.00  0.00    +0.000 OA
ATOM     10  H   UNL     1       5.577   6.561  18.534  0.00  0.00    +0.000 HD
BRANCH   7  11
ATOM     11  C   UNL     1       5.840   4.531  17.997  0.00  0.00    +0.000 C 
BRANCH  11  16
ATOM     12  C   UNL     1       6.737   4.084  12.255  0.00  0.00    +0.000 C 
ATOM     13  C   UNL     1       6.500   4.227  13.731  0.00  0.00    +0.000 A 
ATOM     14  C   UNL     1       7.380   4.959  14.533  0.00  0.00    +0.000 A 
ATOM     15  C   UNL     1       7.161   5.065  15.910  0.00  0.00    +0.000 A 
ATOM     16  C   UNL     1       6.056   4.443  16.507  0.00  0.00    +0.000 A 
ATOM     17  C   UNL     1       5.174   3.716  15.699  0.00  0.00    +0.000 A 
ATOM     18  C   UNL     1       5.395   3.608  14.324  0.00  0.00    +0.000 A 
ENDBRANCH  11  16
ENDBRANCH   7  11
ENDBRANCH   1   8
BRANCH   4  19
ATOM     19  C   UNL     1       0.959  10.398  20.153  0.00  0.00    +0.000 C 
BRANCH  19  20
ATOM     20  C   UNL     1      -0.095  11.254  19.530  0.00  0.00    +0.000 A 
ATOM     21  N   UNL     1      -1.413  10.837  19.548  0.00  0.00    +0.000 NA
ATOM     22  C   UNL     1      -2.068  11.748  18.852  0.00  0.00    +0.000 A 
ATOM     23  O   UNL     1      -1.263  12.757  18.390  0.00  0.00    +0.000 OA
ATOM     24  C   UNL     1      -0.008  12.433  18.821  0.00  0.00    +0.000 A 
ATOM     25  C   UNL     1       1.074  13.352  18.437  0.00  0.00    +0.000 C 
BRANCH  22  26
ATOM     26  C   UNL     1      -3.487  11.821  18.483  0.00  0.00    +0.000 A 
ATOM     27  C   UNL     1      -4.432  12.271  19.425  0.00  0.00    +0.000 A 
ATOM     28  C   UNL     1      -5.787  12.370  19.113  0.00  0.00    +0.000 A 
ATOM     29  C   UNL     1      -6.230  12.026  17.840  0.00  0.00    +0.000 A 
ATOM     30  C   UNL     1      -5.317  11.579  16.886  0.00  0.00    +0.000 A 
ATOM     31  C   UNL     1      -3.948  11.465  17.191  0.00  0.00    +0.000 A 
ATOM     32  C   UNL     1      -3.019  10.965  16.113  0.00  0.00    +0.000 C 
ENDBRANCH  22  26
ENDBRANCH  19  20
ENDBRANCH   4  19
TORSDOF 6
ENDMDL
MODEL 3
REMARK VINA RESULT:      -8.1      2.616     11.346
REMARK  Name = 
REMARK  9 active torsions:
REMARK  status: ('A' for Active; 'I' for Inactive)
REMARK    1  A    between atoms: C_1  and  C_2
REMARK    2  A    between atoms: C_5  and  C_6
REMARK    3  A    between atoms: C_6  and  N_7
REMARK    4  A    between atoms: C_8  and  C_10
REMARK    5  A    between atoms: N_13  and  C_14
REMARK    6  A    between atoms: C_14  and  C_15
REMARK    7  A    between atoms: C_17  and  C_18
REMARK    8  A    between atoms: C_23  and  C_24
REMARK    9  A    between atoms: C_26  and  C_27
REMARK                            x       y       z     vdW  Elec       q    Type
REMARK                         _______ _______ _______ _____ _____    ______ ____
ROOT
ATOM      1  C   UNL     1       2.665   7.028  19.454  0.00  0.00    +0.000 C 
ATOM      2  C   UNL     1       2.016   7.845  18.342  0.00  0.00    +0.000 C 
ATOM      3  C   UNL     1       1.708   9.248  18.873  0.00  0.00    +0.000 C 
ATOM      4  N   UNL     1       0.834   9.239  20.066  0.00  0.00    +0.000 NA
ATOM      5  C   UNL     1       1.292   8.288  21.104  0.00  0.00    +0.000 C 
ATOM      6  C   UNL     1       1.649   6.892  20.582  0.00  0.00    +0.000 C 
ENDROOT
BRANCH   1   8
ATOM      7  N   UNL     1       4.597   5.610  18.932  0.00  0.00    +0.000 N 
ATOM      8  C   UNL     1       3.228   5.702  18.967  0.00  0.00    +0.000 C 
ATOM      9  O   UNL     1       2.485   4.784  18.646  0.00  0.00    +0.000 OA
ATOM     10  H   UNL     1       5.164   6.380  19.262  0.00  0.00    +0.000 HD
BRANCH   7  11
ATOM     11  C   UNL     1       5.270   4.383  18.571  0.00  0.00    +0.000 C 
BRANCH  11  16
ATOM     12  C   UNL     1       7.167   4.685  13.068  0.00  0.00    +0.000 C 
ATOM     13  C   UNL     1       6.677   4.579  14.482  0.00  0.00    +0.000 A 
ATOM     14  C   UNL     1       5.370   4.171  14.763  0.00  0.00    +0.000 A 
ATOM     15  C   UNL     1       4.919   4.099  16.084  0.00  0.00    +0.000 A 
ATOM     16  C   UNL     1       5.770   4.430  17.148  0.00  0.00    +0.000 A 
ATOM     17  C   UNL     1       7.080   4.831  16.863  0.00  0.00    +0.000 A 
ATOM     18  C   UNL     1       7.530   4.906  15.543  0.00  0.00    +0.000 A 
ENDBRANCH  11  16
ENDBRANCH   7  11
ENDBRANCH   1   8
BRANCH   4  19
ATOM     19  C   UNL     1       0.806  10.589  20.691  0.00  0.00    +0.000 C 
BRANCH  19  20
ATOM     20  C   UNL     1      -0.281  11.479  20.182  0.00  0.00    +0.000 A 
ATOM     21  N   UNL     1      -1.515  10.941  19.869  0.00  0.00    +0.000 NA
ATOM     22  C   UNL     1      -2.209  11.946  19.371  0.00  0.00    +0.000 A 
ATOM     23  O   UNL     1      -1.513  13.128  19.353  0.00  0.00    +0.000 OA
ATOM     24  C   UNL     1      -0.284  12.821  19.867  0.00  0.00    +0.000 A 
ATOM     25  C   UNL     1       0.688  13.922  19.941  0.00  0.00    +0.000 C 
BRANCH  22  26
ATOM     26  C   UNL     1      -3.568  11.980  18.818  0.00  0.00    +0.000 A 
ATOM     27  C   UNL     1      -3.793  11.574  17.488  0.00  0.00    +0.000 A 
ATOM     28  C   UNL     1      -5.069  11.576  16.927  0.00  0.00    +0.000 A 
ATOM     29  C   UNL     1      -6.159  11.982  17.690  0.00  0.00    +0.000 A 
ATOM     30  C   UNL     1      -5.967  12.388  19.010  0.00  0.00    +0.000 A 
ATOM     31  C   UNL     1      -4.683  12.400  19.586  0.00  0.00    +0.000 A 
ATOM     32  C   UNL     1      -4.550  12.861  21.015  0.00  0.00    +0.000 C 
ENDBRANCH  22  26
ENDBRANCH  19  20
ENDBRANCH   4  19
TORSDOF 6
ENDMDL
MODEL 4
REMARK VINA RESULT:      -8.1      2.728     10.377
REMARK  Name = 
REMARK  9 active torsions:
REMARK  status: ('A' for Active; 'I' for Inactive)
REMARK    1  A    between atoms: C_1  and  C_2
REMARK    2  A    between atoms: C_5  and  C_6
REMARK    3  A    between atoms: C_6  and  N_7
REMARK    4  A    between atoms: C_8  and  C_10
REMARK    5  A    between atoms: N_13  and  C_14
REMARK    6  A    between atoms: C_14  and  C_15
REMARK    7  A    between atoms: C_17  and  C_18
REMARK    8  A    between atoms: C_23  and  C_24
REMARK    9  A    between atoms: C_26  and  C_27
REMARK                            x       y       z     vdW  Elec       q    Type
REMARK                         _______ _______ _______ _____ _____    ______ ____
ROOT
ATOM      1  C   UNL     1       0.160  10.544  19.865  0.00  0.00    +0.000 C 
ATOM      2  C   UNL     1       0.138   9.943  21.266  0.00  0.00    +0.000 C 
ATOM      3  C   UNL     1      -0.735  10.820  22.169  0.00  0.00    +0.000 C 
ATOM      4  N   UNL     1      -0.277  12.225  22.232  0.00  0.00    +0.000 NA
ATOM      5  C   UNL     1      -0.020  12.804  20.893  0.00  0.00    +0.000 C 
ATOM      6  C   UNL     1       0.813  11.917  19.961  0.00  0.00    +0.000 C 
ENDROOT
BRANCH   1   8
ATOM      7  N   UNL     1       1.840   8.857  19.283  0.00  0.00    +0.000 N 
ATOM      8  C   UNL     1       0.798   9.628  18.834  0.00  0.00    +0.000 C 
ATOM      9  O   UNL     1       0.380   9.589  17.683  0.00  0.00    +0.000 OA
ATOM     10  H   UNL     1       2.109   8.888  20.257  0.00  0.00    +0.000 HD
BRANCH   7  11
ATOM     11  C   UNL     1       2.487   7.880  18.436  0.00  0.00    +0.000 C 
BRANCH  11  16
ATOM     12  C   UNL     1       1.404   2.470  20.318  0.00  0.00    +0.000 C 
ATOM     13  C   UNL     1       1.708   3.863  19.847  0.00  0.00    +0.000 A 
ATOM     14  C   UNL     1       1.732   4.936  20.742  0.00  0.00    +0.000 A 
ATOM     15  C   UNL     1       1.993   6.232  20.288  0.00  0.00    +0.000 A 
ATOM     16  C   UNL     1       2.238   6.475  18.929  0.00  0.00    +0.000 A 
ATOM     17  C   UNL     1       2.220   5.398  18.037  0.00  0.00    +0.000 A 
ATOM     18  C   UNL     1       1.956   4.103  18.491  0.00  0.00    +0.000 A 
ENDBRANCH  11  16
ENDBRANCH   7  11
ENDBRANCH   1   8
BRANCH   4  19
ATOM     19  C   UNL     1      -1.312  13.073  22.884  0.00  0.00    +0.000 C 
BRANCH  19  20
ATOM     20  C   UNL     1      -2.711  12.773  22.455  0.00  0.00    +0.000 A 
ATOM     21  N   UNL     1      -3.029  12.775  21.109  0.00  0.00    +0.000 NA
ATOM     22  C   UNL     1      -4.332  12.570  21.067  0.00  0.00    +0.000 A 
ATOM     23  O   UNL     1      -4.895  12.412  22.307  0.00  0.00    +0.000 OA
ATOM     24  C   UNL     1      -3.858  12.547  23.186  0.00  0.00    +0.000 A 
ATOM     25  C   UNL     1      -4.192  12.443  24.614  0.00  0.00    +0.000 C 
BRANCH  22  26
ATOM     26  C   UNL     1      -5.248  12.519  19.921  0.00  0.00    +0.000 A 
ATOM     27  C   UNL     1      -6.569  12.987  20.060  0.00  0.00    +0.000 A 
ATOM     28  C   UNL     1      -7.468  12.970  18.995  0.00  0.00    +0.000 A 
ATOM     29  C   UNL     1      -7.061  12.490  17.755  0.00  0.00    +0.000 A 
ATOM     30  C   UNL     1      -5.759  12.022  17.586  0.00  0.00    +0.000 A 
ATOM     31  C   UNL     1      -4.844  12.024  18.656  0.00  0.00    +0.000 A 
ATOM     32  C   UNL     1      -3.455  11.494  18.403  0.00  0.00    +0.000 C 
ENDBRANCH  22  26
ENDBRANCH  19  20
ENDBRANCH   4  19
TORSDOF 6
ENDMDL
MODEL 5
REMARK VINA RESULT:      -7.9      4.045     11.429
REMARK  Name = 
REMARK  9 active torsions:
REMARK  status: ('A' for Active; 'I' for Inactive)
REMARK    1  A    between atoms: C_1  and  C_2
REMARK    2  A    between atoms: C_5  and  C_6
REMARK    3  A    between atoms: C_6  and  N_7
REMARK    4  A    between atoms: C_8  and  C_10
REMARK    5  A    between atoms: N_13  and  C_14
REMARK    6  A    between atoms: C_14  and  C_15
REMARK    7  A    between atoms: C_17  and  C_18
REMARK    8  A    between atoms: C_23  and  C_24
REMARK    9  A    between atoms: C_26  and  C_27
REMARK                            x       y       z     vdW  Elec       q    Type
REMARK                         _______ _______ _______ _____ _____    ______ ____
ROOT
ATOM      1  C   UNL     1       2.209   7.178  18.948  0.00  0.00    +0.000 C 
ATOM      2  C   UNL     1       1.966   7.721  20.351  0.00  0.00    +0.000 C 
ATOM      3  C   UNL     1       0.783   8.694  20.309  0.00  0.00    +0.000 C 
ATOM      4  N   UNL     1       0.985   9.813  19.365  0.00  0.00    +0.000 NA
ATOM      5  C   UNL     1       1.444   9.362  18.031  0.00  0.00    +0.000 C 
ATOM      6  C   UNL     1       2.596   8.352  18.058  0.00  0.00    +0.000 C 
ENDROOT
BRANCH   1   8
ATOM      7  N   UNL     1       4.260   6.172  18.058  0.00  0.00    +0.000 N 
ATOM      8  C   UNL     1       3.202   6.027  18.919  0.00  0.00    +0.000 C 
ATOM      9  O   UNL     1       3.051   5.049  19.639  0.00  0.00    +0.000 OA
ATOM     10  H   UNL     1       4.366   7.026  17.526  0.00  0.00    +0.000 HD
BRANCH   7  11
ATOM     11  C   UNL     1       5.325   5.197  17.986  0.00  0.00    +0.000 C 
BRANCH  11  16
ATOM     12  C   UNL     1       6.798   3.919  12.493  0.00  0.00    +0.000 C 
ATOM     13  C   UNL     1       6.420   4.276  13.901  0.00  0.00    +0.000 A 
ATOM     14  C   UNL     1       7.347   4.861  14.768  0.00  0.00    +0.000 A 
ATOM     15  C   UNL     1       6.990   5.167  16.085  0.00  0.00    +0.000 A 
ATOM     16  C   UNL     1       5.698   4.896  16.555  0.00  0.00    +0.000 A 
ATOM     17  C   UNL     1       4.771   4.315  15.682  0.00  0.00    +0.000 A 
ATOM     18  C   UNL     1       5.129   4.007  14.367  0.00  0.00    +0.000 A 
ENDBRANCH  11  16
ENDBRANCH   7  11
ENDBRANCH   1   8
BRANCH   4  19
ATOM     19  C   UNL     1      -0.292  10.550  19.162  0.00  0.00    +0.000 C 
BRANCH  19  20
ATOM     20  C   UNL     1      -0.229  11.999  19.520  0.00  0.00    +0.000 A 
ATOM     21  N   UNL     1       0.098  12.929  18.549  0.00  0.00    +0.000 NA
ATOM     22  C   UNL     1       0.158  14.081  19.189  0.00  0.00    +0.000 A 
ATOM     23  O   UNL     1      -0.129  13.974  20.526  0.00  0.00    +0.000 OA
ATOM     24  C   UNL     1      -0.369  12.644  20.729  0.00  0.00    +0.000 A 
ATOM     25  C   UNL     1      -0.685  12.240  22.107  0.00  0.00    +0.000 C 
BRANCH  22  26
ATOM     26  C   UNL     1       0.510  15.421  18.702  0.00  0.00    +0.000 A 
ATOM     27  C   UNL     1      -0.507  16.360  18.442  0.00  0.00    +0.000 A 
ATOM     28  C   UNL     1      -0.218  17.647  17.992  0.00  0.00    +0.000 A 
ATOM     29  C   UNL     1       1.105  18.029  17.796  0.00  0.00    +0.000 A 
ATOM     30  C   UNL     1       2.133  17.122  18.046  0.00  0.00    +0.000 A 
ATOM     31  C   UNL     1       1.855  15.816  18.491  0.00  0.00    +0.000 A 
ATOM     32  C   UNL     1       3.016  14.885  18.732  0.00  0.00    +0.000 C 
ENDBRANCH  22  26
ENDBRANCH  19  20
ENDBRANCH   4  19
TORSDOF 6
ENDMDL
MODEL 6
REMARK VINA RESULT:      -7.8      3.907     11.359
REMARK  Name = 
REMARK  9 active torsions:
REMARK  status: ('A' for Active; 'I' for Inactive)
REMARK    1  A    between atoms: C_1  and  C_2
REMARK    2  A    between atoms: C_5  and  C_6
REMARK    3  A    between atoms: C_6  and  N_7
REMARK    4  A    between atoms: C_8  and  C_10
REMARK    5  A    between atoms: N_13  and  C_14
REMARK    6  A    between atoms: C_14  and  C_15
REMARK    7  A    between atoms: C_17  and  C_18
REMARK    8  A    between atoms: C_23  and  C_24
REMARK    9  A    between atoms: C_26  and  C_27
REMARK                            x       y       z     vdW  Elec       q    Type
REMARK                         _______ _______ _______ _____ _____    ______ ____
ROOT
ATOM      1  C   UNL     1       2.536   6.935  19.791  0.00  0.00    +0.000 C 
ATOM      2  C   UNL     1       2.115   7.775  18.590  0.00  0.00    +0.000 C 
ATOM      3  C   UNL     1       1.750   9.182  19.072  0.00  0.00    +0.000 C 
ATOM      4  N   UNL     1       0.676   9.186  20.089  0.00  0.00    +0.000 NA
ATOM      5  C   UNL     1       0.919   8.217  21.183  0.00  0.00    +0.000 C 
ATOM      6  C   UNL     1       1.332   6.816  20.717  0.00  0.00    +0.000 C 
ENDROOT
BRANCH   1   8
ATOM      7  N   UNL     1       4.469   5.629  19.035  0.00  0.00    +0.000 N 
ATOM      8  C   UNL     1       3.146   5.599  19.398  0.00  0.00    +0.000 C 
ATOM      9  O   UNL     1       2.481   4.572  19.426  0.00  0.00    +0.000 OA
ATOM     10  H   UNL     1       4.987   6.497  19.083  0.00  0.00    +0.000 HD
BRANCH   7  11
ATOM     11  C   UNL     1       5.202   4.424  18.718  0.00  0.00    +0.000 C 
BRANCH  11  16
ATOM     12  C   UNL     1       7.071   4.600  13.200  0.00  0.00    +0.000 C 
ATOM     13  C   UNL     1       6.584   4.527  14.618  0.00  0.00    +0.000 A 
ATOM     14  C   UNL     1       5.235   4.301  14.905  0.00  0.00    +0.000 A 
ATOM     15  C   UNL     1       4.790   4.259  16.230  0.00  0.00    +0.000 A 
ATOM     16  C   UNL     1       5.690   4.437  17.291  0.00  0.00    +0.000 A 
ATOM     17  C   UNL     1       7.040   4.657  16.999  0.00  0.00    +0.000 A 
ATOM     18  C   UNL     1       7.484   4.702  15.675  0.00  0.00    +0.000 A 
ENDBRANCH  11  16
ENDBRANCH   7  11
ENDBRANCH   1   8
BRANCH   4  19
ATOM     19  C   UNL     1       0.568  10.533  20.714  0.00  0.00    +0.000 C 
BRANCH  19  20
ATOM     20  C   UNL     1       0.325  11.642  19.744  0.00  0.00    +0.000 A 
ATOM     21  N   UNL     1       0.996  12.842  19.897  0.00  0.00    +0.000 NA
ATOM     22  C   UNL     1       0.505  13.628  18.957  0.00  0.00    +0.000 A 
ATOM     23  O   UNL     1      -0.440  13.013  18.177  0.00  0.00    +0.000 OA
ATOM     24  C   UNL     1      -0.552  11.750  18.687  0.00  0.00    +0.000 A 
ATOM     25  C   UNL     1      -1.533  10.867  18.038  0.00  0.00    +0.000 C 
BRANCH  22  26
ATOM     26  C   UNL     1       0.789  15.036  18.653  0.00  0.00    +0.000 A 
ATOM     27  C   UNL     1      -0.250  15.985  18.700  0.00  0.00    +0.000 A 
ATOM     28  C   UNL     1      -0.022  17.334  18.432  0.00  0.00    +0.000 A 
ATOM     29  C   UNL     1       1.261  17.769  18.116  0.00  0.00    +0.000 A 
ATOM     30  C   UNL     1       2.309  16.852  18.064  0.00  0.00    +0.000 A 
ATOM     31  C   UNL     1       2.092  15.486  18.322  0.00  0.00    +0.000 A 
ATOM     32  C   UNL     1       3.271  14.550  18.238  0.00  0.00    +0.000 C 
ENDBRANCH  22  26
ENDBRANCH  19  20
ENDBRANCH   4  19
TORSDOF 6
ENDMDL
MODEL 7
REMARK VINA RESULT:      -7.8      2.942      4.570
REMARK  Name = 
REMARK  9 active torsions:
REMARK  status: ('A' for Active; 'I' for Inactive)
REMARK    1  A    between atoms: C_1  and  C_2
REMARK    2  A    between atoms: C_5  and  C_6
REMARK    3  A    between atoms: C_6  and  N_7
REMARK    4  A    between atoms: C_8  and  C_10
REMARK    5  A    between atoms: N_13  and  C_14
REMARK    6  A    between atoms: C_14  and  C_15
REMARK    7  A    between atoms: C_17  and  C_18
REMARK    8  A    between atoms: C_23  and  C_24
REMARK    9  A    between atoms: C_26  and  C_27
REMARK                            x       y       z     vdW  Elec       q    Type
REMARK                         _______ _______ _______ _____ _____    ______ ____
ROOT
ATOM      1  C   UNL     1       0.422   9.387  19.133  0.00  0.00    +0.000 C 
ATOM      2  C   UNL     1       1.542   9.005  18.172  0.00  0.00    +0.000 C 
ATOM      3  C   UNL     1       1.957   7.555  18.445  0.00  0.00    +0.000 C 
ATOM      4  N   UNL     1       2.392   7.330  19.841  0.00  0.00    +0.000 NA
ATOM      5  C   UNL     1       1.443   7.884  20.834  0.00  0.00    +0.000 C 
ATOM      6  C   UNL     1       0.982   9.317  20.548  0.00  0.00    +0.000 C 
ENDROOT
BRANCH   1   8
ATOM      7  N   UNL     1      -1.234  10.673  17.860  0.00  0.00    +0.000 N 
ATOM      8  C   UNL     1      -0.227  10.719  18.791  0.00  0.00    +0.000 C 
ATOM      9  O   UNL     1       0.137  11.753  19.337  0.00  0.00    +0.000 OA
ATOM     10  H   UNL     1      -1.532   9.783  17.482  0.00  0.00    +0.000 HD
BRANCH   7  11
ATOM     11  C   UNL     1      -1.995  11.848  17.500  0.00  0.00    +0.000 C 
BRANCH  11  16
ATOM     12  C   UNL     1      -7.338  11.558  19.812  0.00  0.00    +0.000 C 
ATOM     13  C   UNL     1      -5.972  11.651  19.197  0.00  0.00    +0.000 A 
ATOM     14  C   UNL     1      -5.718  11.131  17.925  0.00  0.00    +0.000 A 
ATOM     15  C   UNL     1      -4.435  11.203  17.373  0.00  0.00    +0.000 A 
ATOM     16  C   UNL     1      -3.386  11.801  18.084  0.00  0.00    +0.000 A 
ATOM     17  C   UNL     1      -3.645  12.326  19.354  0.00  0.00    +0.000 A 
ATOM     18  C   UNL     1      -4.926  12.252  19.907  0.00  0.00    +0.000 A 
ENDBRANCH  11  16
ENDBRANCH   7  11
ENDBRANCH   1   8
BRANCH   4  19
ATOM     19  C   UNL     1       2.507   5.871  20.112  0.00  0.00    +0.000 C 
BRANCH  19  20
ATOM     20  C   UNL     1       3.047   5.074  18.970  0.00  0.00    +0.000 A 
ATOM     21  N   UNL     1       4.168   5.521  18.294  0.00  0.00    +0.000 NA
ATOM     22  C   UNL     1       4.332   4.664  17.305  0.00  0.00    +0.000 A 
ATOM     23  O   UNL     1       3.397   3.661  17.296  0.00  0.00    +0.000 OA
ATOM     24  C   UNL     1       2.579   3.932  18.356  0.00  0.00    +0.000 A 
ATOM     25  C   UNL     1       1.455   3.009  18.568  0.00  0.00    +0.000 C 
BRANCH  22  26
ATOM     26  C   UNL     1       5.324   4.643  16.222  0.00  0.00    +0.000 A 
ATOM     27  C   UNL     1       4.917   4.343  14.907  0.00  0.00    +0.000 A 
ATOM     28  C   UNL     1       5.822   4.326  13.847  0.00  0.00    +0.000 A 
ATOM     29  C   UNL     1       7.162   4.618  14.077  0.00  0.00    +0.000 A 
ATOM     30  C   UNL     1       7.593   4.922  15.367  0.00  0.00    +0.000 A 
ATOM     31  C   UNL     1       6.693   4.932  16.449  0.00  0.00    +0.000 A 
ATOM     32  C   UNL     1       7.231   5.259  17.819  0.00  0.00    +0.000 C 
ENDBRANCH  22  26
ENDBRANCH  19  20
ENDBRANCH   4  19
TORSDOF 6
ENDMDL
MODEL 8
REMARK VINA RESULT:      -7.8      3.025     11.386
REMARK  Name = 
REMARK  9 active torsions:
REMARK  status: ('A' for Active; 'I' for Inactive)
REMARK    1  A    between atoms: C_1  and  C_2
REMARK    2  A    between atoms: C_5  and  C_6
REMARK    3  A    between atoms: C_6  and  N_7
REMARK    4  A    between atoms: C_8  and  C_10
REMARK    5  A    between atoms: N_13  and  C_14
REMARK    6  A    between atoms: C_14  and  C_15
REMARK    7  A    between atoms: C_17  and  C_18
REMARK    8  A    between atoms: C_23  and  C_24
REMARK    9  A    between atoms: C_26  and  C_27
REMARK                            x       y       z     vdW  Elec       q    Type
REMARK                         _______ _______ _______ _____ _____    ______ ____
ROOT
ATOM      1  C   UNL     1       1.855   7.973  20.152  0.00  0.00    +0.000 C 
ATOM      2  C   UNL     1       1.383   8.661  18.876  0.00  0.00    +0.000 C 
ATOM      3  C   UNL     1       1.288  10.169  19.132  0.00  0.00    +0.000 C 
ATOM      4  N   UNL     1       0.385  10.511  20.252  0.00  0.00    +0.000 NA
ATOM      5  C   UNL     1       0.649   9.708  21.468  0.00  0.00    +0.000 C 
ATOM      6  C   UNL     1       0.794   8.202  21.221  0.00  0.00    +0.000 C 
ENDROOT
BRANCH   1   8
ATOM      7  N   UNL     1       2.866   6.217  18.771  0.00  0.00    +0.000 N 
ATOM      8  C   UNL     1       2.213   6.510  19.942  0.00  0.00    +0.000 C 
ATOM      9  O   UNL     1       1.937   5.668  20.786  0.00  0.00    +0.000 OA
ATOM     10  H   UNL     1       3.119   6.960  18.133  0.00  0.00    +0.000 HD
BRANCH   7  11
ATOM     11  C   UNL     1       3.341   4.884  18.475  0.00  0.00    +0.000 C 
BRANCH  11  16
ATOM     12  C   UNL     1       6.963   4.902  13.909  0.00  0.00    +0.000 C 
ATOM     13  C   UNL     1       6.052   4.889  15.102  0.00  0.00    +0.000 A 
ATOM     14  C   UNL     1       5.687   3.687  15.715  0.00  0.00    +0.000 A 
ATOM     15  C   UNL     1       4.818   3.687  16.811  0.00  0.00    +0.000 A 
ATOM     16  C   UNL     1       4.304   4.890  17.314  0.00  0.00    +0.000 A 
ATOM     17  C   UNL     1       4.676   6.091  16.701  0.00  0.00    +0.000 A 
ATOM     18  C   UNL     1       5.542   6.091  15.604  0.00  0.00    +0.000 A 
ENDBRANCH  11  16
ENDBRANCH   7  11
ENDBRANCH   1   8
BRANCH   4  19
ATOM     19  C   UNL     1       0.553  11.941  20.628  0.00  0.00    +0.000 C 
BRANCH  19  20
ATOM     20  C   UNL     1      -0.729  12.692  20.780  0.00  0.00    +0.000 A 
ATOM     21  N   UNL     1      -1.785  12.110  21.458  0.00  0.00    +0.000 NA
ATOM     22  C   UNL     1      -2.779  12.970  21.341  0.00  0.00    +0.000 A 
ATOM     23  O   UNL     1      -2.439  14.099  20.641  0.00  0.00    +0.000 OA
ATOM     24  C   UNL     1      -1.134  13.912  20.283  0.00  0.00    +0.000 A 
ATOM     25  C   UNL     1      -0.513  14.982  19.489  0.00  0.00    +0.000 C 
BRANCH  22  26
ATOM     26  C   UNL     1      -4.169  12.884  21.809  0.00  0.00    +0.000 A 
ATOM     27  C   UNL     1      -4.470  13.153  23.158  0.00  0.00    +0.000 A 
ATOM     28  C   UNL     1      -5.776  13.097  23.642  0.00  0.00    +0.000 A 
ATOM     29  C   UNL     1      -6.819  12.776  22.780  0.00  0.00    +0.000 A 
ATOM     30  C   UNL     1      -6.551  12.507  21.439  0.00  0.00    +0.000 A 
ATOM     31  C   UNL     1      -5.237  12.549  20.939  0.00  0.00    +0.000 A 
ATOM     32  C   UNL     1      -5.020  12.237  19.480  0.00  0.00    +0.000 C 
ENDBRANCH  22  26
ENDBRANCH  19  20
ENDBRANCH   4  19
TORSDOF 6
ENDMDL
MODEL 9
REMARK VINA RESULT:      -7.8      2.584     11.531
REMARK  Name = 
REMARK  9 active torsions:
REMARK  status: ('A' for Active; 'I' for Inactive)
REMARK    1  A    between atoms: C_1  and  C_2
REMARK    2  A    between atoms: C_5  and  C_6
REMARK    3  A    between atoms: C_6  and  N_7
REMARK    4  A    between atoms: C_8  and  C_10
REMARK    5  A    between atoms: N_13  and  C_14
REMARK    6  A    between atoms: C_14  and  C_15
REMARK    7  A    between atoms: C_17  and  C_18
REMARK    8  A    between atoms: C_23  and  C_24
REMARK    9  A    between atoms: C_26  and  C_27
REMARK                            x       y       z     vdW  Elec       q    Type
REMARK                         _______ _______ _______ _____ _____    ______ ____
ROOT
ATOM      1  C   UNL     1       3.201   6.793  19.035  0.00  0.00    +0.000 C 
ATOM      2  C   UNL     1       2.545   7.592  17.913  0.00  0.00    +0.000 C 
ATOM      3  C   UNL     1       2.110   8.954  18.463  0.00  0.00    +0.000 C 
ATOM      4  N   UNL     1       1.185   8.847  19.612  0.00  0.00    +0.000 NA
ATOM      5  C   UNL     1       1.663   7.902  20.647  0.00  0.00    +0.000 C 
ATOM      6  C   UNL     1       2.147   6.551  20.108  0.00  0.00    +0.000 C 
ENDROOT
BRANCH   1   8
ATOM      7  N   UNL     1       5.223   5.635  18.272  0.00  0.00    +0.000 N 
ATOM      8  C   UNL     1       3.882   5.526  18.543  0.00  0.00    +0.000 C 
ATOM      9  O   UNL     1       3.254   4.482  18.418  0.00  0.00    +0.000 OA
ATOM     10  H   UNL     1       5.705   6.507  18.445  0.00  0.00    +0.000 HD
BRANCH   7  11
ATOM     11  C   UNL     1       6.017   4.493  17.877  0.00  0.00    +0.000 C 
BRANCH  11  16
ATOM     12  C   UNL     1       6.990   4.326  12.132  0.00  0.00    +0.000 C 
ATOM     13  C   UNL     1       6.730   4.396  13.609  0.00  0.00    +0.000 A 
ATOM     14  C   UNL     1       7.482   5.236  14.434  0.00  0.00    +0.000 A 
ATOM     15  C   UNL     1       7.246   5.274  15.811  0.00  0.00    +0.000 A 
ATOM     16  C   UNL     1       6.248   4.474  16.386  0.00  0.00    +0.000 A 
ATOM     17  C   UNL     1       5.493   3.639  15.556  0.00  0.00    +0.000 A 
ATOM     18  C   UNL     1       5.731   3.599  14.180  0.00  0.00    +0.000 A 
ENDBRANCH  11  16
ENDBRANCH   7  11
ENDBRANCH   1   8
BRANCH   4  19
ATOM     19  C   UNL     1       1.027  10.173  20.269  0.00  0.00    +0.000 C 
BRANCH  19  20
ATOM     20  C   UNL     1       0.021  11.065  19.619  0.00  0.00    +0.000 A 
ATOM     21  N   UNL     1      -1.325  10.769  19.726  0.00  0.00    +0.000 NA
ATOM     22  C   UNL     1      -1.933  11.674  18.983  0.00  0.00    +0.000 A 
ATOM     23  O   UNL     1      -1.069  12.567  18.403  0.00  0.00    +0.000 OA
ATOM     24  C   UNL     1       0.174  12.170  18.809  0.00  0.00    +0.000 A 
ATOM     25  C   UNL     1       1.309  12.956  18.305  0.00  0.00    +0.000 C 
BRANCH  22  26
ATOM     26  C   UNL     1      -3.357  11.842  18.667  0.00  0.00    +0.000 A 
ATOM     27  C   UNL     1      -3.875  11.315  17.468  0.00  0.00    +0.000 A 
ATOM     28  C   UNL     1      -5.223  11.439  17.135  0.00  0.00    +0.000 A 
ATOM     29  C   UNL     1      -6.091  12.093  18.002  0.00  0.00    +0.000 A 
ATOM     30  C   UNL     1      -5.608  12.624  19.197  0.00  0.00    +0.000 A 
ATOM     31  C   UNL     1      -4.248  12.514  19.541  0.00  0.00    +0.000 A 
ATOM     32  C   UNL     1      -3.793  13.121  20.845  0.00  0.00    +0.000 C 
ENDBRANCH  22  26
ENDBRANCH  19  20
ENDBRANCH   4  19
TORSDOF 6
ENDMDL
