MODEL 1
REMARK VINA RESULT:      -7.3      0.000      0.000
REMARK  Name = 
REMARK  10 active torsions:
REMARK  status: ('A' for Active; 'I' for Inactive)
REMARK    1  A    between atoms: C_1  and  C_2
REMARK    2  A    between atoms: C_2  and  N_3
REMARK    3  A    between atoms: N_3  and  C_4
REMARK    4  A    between atoms: N_3  and  C_20
REMARK    5  A    between atoms: C_4  and  C_5
REMARK    6  A    between atoms: C_10  and  C_11
REMARK    7  A    between atoms: C_11  and  C_12
REMARK    8  A    between atoms: C_12  and  C_13
REMARK    9  A    between atoms: C_13  and  O_14
REMARK   10  A    between atoms: C_15  and  C_16
REMARK                            x       y       z     vdW  Elec       q    Type
REMARK                         _______ _______ _______ _____ _____    ______ ____
ROOT
ATOM      1  C   UNL     1       2.352   7.099  19.386  0.00  0.00    +0.000 A 
ATOM      2  C   UNL     1       2.267   7.886  18.301  0.00  0.00    +0.000 A 
ATOM      3  C   UNL     1       1.591   9.203  18.387  0.00  0.00    +0.000 A 
ATOM      4  O   UNL     1       1.668   9.952  17.413  0.00  0.00    +0.000 OA
ATOM      5  N   UNL     1       1.035   9.508  19.608  0.00  0.00    +0.000 N 
ATOM      6  C   UNL     1       0.405  10.709  19.988  0.00  0.00    +0.000 A 
ATOM      7  C   UNL     1       0.091  10.742  21.301  0.00  0.00    +0.000 A 
ATOM      8  C   UNL     1      -0.513  11.844  22.110  0.00  0.00    +0.000 C 
ATOM      9  S   UNL     1       0.500   9.244  22.106  0.00  0.00    +0.000 S 
ATOM     10  C   UNL     1       1.191   8.601  20.636  0.00  0.00    +0.000 A 
ATOM     11  N   UNL     1       1.786   7.458  20.592  0.00  0.00    +0.000 NA
ENDROOT
BRANCH   1  12
ATOM     12  C   UNL     1       3.280   5.885  19.403  0.00  0.00    +0.000 C 
BRANCH  12  13
ATOM     13  N   UNL     1       3.239   5.077  18.175  0.00  0.00    +0.000 N 
BRANCH  13  14
ATOM     14  C   UNL     1       4.373   5.000  17.358  0.00  0.00    +0.000 A 
ATOM     15  C   UNL     1       5.312   6.046  17.288  0.00  0.00    +0.000 A 
ATOM     16  C   UNL     1       6.414   5.992  16.426  0.00  0.00    +0.000 A 
ATOM     17  C   UNL     1       6.603   4.881  15.621  0.00  0.00    +0.000 A 
ATOM     18  F   UNL     1       7.652   4.830  14.790  0.00  0.00    +0.000 F 
ATOM     19  C   UNL     1       5.711   3.825  15.663  0.00  0.00    +0.000 A 
ATOM     20  C   UNL     1       4.610   3.889  16.522  0.00  0.00    +0.000 A 
ENDBRANCH  13  14
BRANCH  13  22
ATOM     21  C   UNL     1       1.847   3.152  19.061  0.00  0.00    +0.000 C 
ATOM     22  C   UNL     1       2.160   4.109  17.922  0.00  0.00    +0.000 C 
ENDBRANCH  13  22
ENDBRANCH  12  13
ENDBRANCH   1  12
BRANCH   6  23
ATOM     23  C   UNL     1       0.090  11.821  19.009  0.00  0.00    +0.000 C 
BRANCH  23  24
ATOM     24  C   UNL     1       0.939  13.098  19.113  0.00  0.00    +0.000 C 
BRANCH  24  25
ATOM     25  C   UNL     1       2.411  12.934  18.766  0.00  0.00    +0.000 C 
BRANCH  25  26
ATOM     26  O   UNL     1       2.592  12.578  17.404  0.00  0.00    +0.000 OA
ATOM     27  H   UNL     1       1.957  13.077  16.855  0.00  0.00    +0.000 HD
ENDBRANCH  25  26
ENDBRANCH  24  25
ENDBRANCH  23  24
ENDBRANCH   6  23
TORSDOF 8
ENDMDL
MODEL 2
REMARK VINA RESULT:      -7.3      1.344      1.650
REMARK  Name = 
REMARK  10 active torsions:
REMARK  status: ('A' for Active; 'I' for Inactive)
REMARK    1  A    between atoms: C_1  and  C_2
REMARK    2  A    between atoms: C_2  and  N_3
REMARK    3  A    between atoms: N_3  and  C_4
REMARK    4  A    between atoms: N_3  and  C_20
REMARK    5  A    between atoms: C_4  and  C_5
REMARK    6  A    between atoms: C_10  and  C_11
REMARK    7  A    between atoms: C_11  and  C_12
REMARK    8  A    between atoms: C_12  and  C_13
REMARK    9  A    between atoms: C_13  and  O_14
REMARK   10  A    between atoms: C_15  and  C_16
REMARK                            x       y       z     vdW  Elec       q    Type
REMARK                         _______ _______ _______ _____ _____    ______ ____
ROOT
ATOM      1  C   UNL     1       1.991   7.582  19.752  0.00  0.00    +0.000 A 
ATOM      2  C   UNL     1       1.777   8.460  18.758  0.00  0.00    +0.000 A 
ATOM      3  C   UNL     1       0.961   9.675  18.999  0.00  0.00    +0.000 A 
ATOM      4  O   UNL     1       0.918  10.522  18.108  0.00  0.00    +0.000 OA
ATOM      5  N   UNL     1       0.421   9.788  20.259  0.00  0.00    +0.000 N 
ATOM      6  C   UNL     1      -0.325  10.863  20.779  0.00  0.00    +0.000 A 
ATOM      7  C   UNL     1      -0.591  10.726  22.096  0.00  0.00    +0.000 A 
ATOM      8  C   UNL     1      -1.284  11.664  23.032  0.00  0.00    +0.000 C 
ATOM      9  S   UNL     1       0.013   9.212  22.729  0.00  0.00    +0.000 S 
ATOM     10  C   UNL     1       0.716   8.805  21.182  0.00  0.00    +0.000 A 
ATOM     11  N   UNL     1       1.434   7.750  21.003  0.00  0.00    +0.000 NA
ENDROOT
BRANCH   1  12
ATOM     12  C   UNL     1       3.048   6.488  19.618  0.00  0.00    +0.000 C 
BRANCH  12  13
ATOM     13  N   UNL     1       2.830   5.572  18.487  0.00  0.00    +0.000 N 
BRANCH  13  14
ATOM     14  C   UNL     1       3.816   5.438  17.503  0.00  0.00    +0.000 A 
ATOM     15  C   UNL     1       4.419   6.556  16.898  0.00  0.00    +0.000 A 
ATOM     16  C   UNL     1       5.363   6.420  15.871  0.00  0.00    +0.000 A 
ATOM     17  C   UNL     1       5.728   5.156  15.437  0.00  0.00    +0.000 A 
ATOM     18  F   UNL     1       6.625   5.024  14.451  0.00  0.00    +0.000 F 
ATOM     19  C   UNL     1       5.169   4.029  16.009  0.00  0.00    +0.000 A 
ATOM     20  C   UNL     1       4.223   4.174  17.029  0.00  0.00    +0.000 A 
ENDBRANCH  13  14
BRANCH  13  22
ATOM     21  C   UNL     1       1.485   3.902  19.840  0.00  0.00    +0.000 C 
ATOM     22  C   UNL     1       1.752   4.571  18.501  0.00  0.00    +0.000 C 
ENDBRANCH  13  22
ENDBRANCH  12  13
ENDBRANCH   1  12
BRANCH   6  23
ATOM     23  C   UNL     1      -0.800  12.025  19.931  0.00  0.00    +0.000 C 
BRANCH  23  24
ATOM     24  C   UNL     1      -2.209  11.914  19.329  0.00  0.00    +0.000 C 
BRANCH  24  25
ATOM     25  C   UNL     1      -2.265  11.809  17.812  0.00  0.00    +0.000 C 
BRANCH  25  26
ATOM     26  O   UNL     1      -1.211  12.535  17.197  0.00  0.00    +0.000 OA
ATOM     27  H   UNL     1      -0.691  12.991  17.886  0.00  0.00    +0.000 HD
ENDBRANCH  25  26
ENDBRANCH  24  25
ENDBRANCH  23  24
ENDBRANCH   6  23
TORSDOF 8
ENDMDL
MODEL 3
REMARK VINA RESULT:      -7.2      1.016      1.741
REMARK  Name = 
REMARK  10 active torsions:
REMARK  status: ('A' for Active; 'I' for Inactive)
REMARK    1  A    between atoms: C_1  and  C_2
REMARK    2  A    between atoms: C_2  and  N_3
REMARK    3  A    between atoms: N_3  and  C_4
REMARK    4  A    between atoms: N_3  and  C_20
REMARK    5  A    between atoms: C_4  and  C_5
REMARK    6  A    between atoms: C_10  and  C_11
REMARK    7  A    between atoms: C_11  and  C_12
REMARK    8  A    between atoms: C_12  and  C_13
REMARK    9  A    between atoms: C_13  and  O_14
REMARK   10  A    between atoms: C_15  and  C_16
REMARK                            x       y       z     vdW  Elec       q    Type
REMARK                         _______ _______ _______ _____ _____    ______ ____
ROOT
ATOM      1  C   UNL     1       2.181   7.254  19.603  0.00  0.00    +0.000 A 
ATOM      2  C   UNL     1       2.054   8.103  18.569  0.00  0.00    +0.000 A 
ATOM      3  C   UNL     1       1.328   9.384  18.743  0.00  0.00    +0.000 A 
ATOM      4  O   UNL     1       1.365  10.194  17.817  0.00  0.00    +0.000 OA
ATOM      5  N   UNL     1       0.774   9.590  19.985  0.00  0.00    +0.000 N 
ATOM      6  C   UNL     1       0.102  10.739  20.444  0.00  0.00    +0.000 A 
ATOM      7  C   UNL     1      -0.199  10.678  21.760  0.00  0.00    +0.000 A 
ATOM      8  C   UNL     1      -0.837  11.704  22.641  0.00  0.00    +0.000 C 
ATOM      9  S   UNL     1       0.277   9.151  22.466  0.00  0.00    +0.000 S 
ATOM     10  C   UNL     1       0.976   8.628  20.953  0.00  0.00    +0.000 A 
ATOM     11  N   UNL     1       1.615   7.515  20.833  0.00  0.00    +0.000 NA
ENDROOT
BRANCH   1  12
ATOM     12  C   UNL     1       3.156   6.079  19.536  0.00  0.00    +0.000 C 
BRANCH  12  13
ATOM     13  N   UNL     1       2.972   5.208  18.365  0.00  0.00    +0.000 N 
BRANCH  13  14
ATOM     14  C   UNL     1       3.973   5.139  17.388  0.00  0.00    +0.000 A 
ATOM     15  C   UNL     1       4.455   3.909  16.903  0.00  0.00    +0.000 A 
ATOM     16  C   UNL     1       5.498   3.842  15.970  0.00  0.00    +0.000 A 
ATOM     17  C   UNL     1       6.073   5.010  15.496  0.00  0.00    +0.000 A 
ATOM     18  F   UNL     1       7.074   4.947  14.609  0.00  0.00    +0.000 F 
ATOM     19  C   UNL     1       5.625   6.241  15.938  0.00  0.00    +0.000 A 
ATOM     20  C   UNL     1       4.588   6.299  16.874  0.00  0.00    +0.000 A 
ENDBRANCH  13  14
BRANCH  13  22
ATOM     21  C   UNL     1       1.250   3.862  19.649  0.00  0.00    +0.000 C 
ATOM     22  C   UNL     1       1.919   4.182  18.322  0.00  0.00    +0.000 C 
ENDBRANCH  13  22
ENDBRANCH  12  13
ENDBRANCH   1  12
BRANCH   6  23
ATOM     23  C   UNL     1      -0.267  11.896  19.540  0.00  0.00    +0.000 C 
BRANCH  23  24
ATOM     24  C   UNL     1      -1.733  11.980  19.082  0.00  0.00    +0.000 C 
BRANCH  24  25
ATOM     25  C   UNL     1      -1.966  11.770  17.593  0.00  0.00    +0.000 C 
BRANCH  25  26
ATOM     26  O   UNL     1      -1.406  10.545  17.143  0.00  0.00    +0.000 OA
ATOM     27  H   UNL     1      -2.016   9.814  17.361  0.00  0.00    +0.000 HD
ENDBRANCH  25  26
ENDBRANCH  24  25
ENDBRANCH  23  24
ENDBRANCH   6  23
TORSDOF 8
ENDMDL
MODEL 4
REMARK VINA RESULT:      -7.1      1.265      1.790
REMARK  Name = 
REMARK  10 active torsions:
REMARK  status: ('A' for Active; 'I' for Inactive)
REMARK    1  A    between atoms: C_1  and  C_2
REMARK    2  A    between atoms: C_2  and  N_3
REMARK    3  A    between atoms: N_3  and  C_4
REMARK    4  A    between atoms: N_3  and  C_20
REMARK    5  A    between atoms: C_4  and  C_5
REMARK    6  A    between atoms: C_10  and  C_11
REMARK    7  A    between atoms: C_11  and  C_12
REMARK    8  A    between atoms: C_12  and  C_13
REMARK    9  A    between atoms: C_13  and  O_14
REMARK   10  A    between atoms: C_15  and  C_16
REMARK                            x       y       z     vdW  Elec       q    Type
REMARK                         _______ _______ _______ _____ _____    ______ ____
ROOT
ATOM      1  C   UNL     1       2.674   6.621  19.489  0.00  0.00    +0.000 A 
ATOM      2  C   UNL     1       2.618   7.334  18.352  0.00  0.00    +0.000 A 
ATOM      3  C   UNL     1       1.916   8.639  18.325  0.00  0.00    +0.000 A 
ATOM      4  O   UNL     1       2.018   9.324  17.308  0.00  0.00    +0.000 OA
ATOM      5  N   UNL     1       1.306   9.011  19.501  0.00  0.00    +0.000 N 
ATOM      6  C   UNL     1       0.641  10.221  19.777  0.00  0.00    +0.000 A 
ATOM      7  C   UNL     1       0.276  10.333  21.073  0.00  0.00    +0.000 A 
ATOM      8  C   UNL     1      -0.380  11.474  21.784  0.00  0.00    +0.000 C 
ATOM      9  S   UNL     1       0.679   8.900  21.989  0.00  0.00    +0.000 S 
ATOM     10  C   UNL     1       1.438   8.177  20.592  0.00  0.00    +0.000 A 
ATOM     11  N   UNL     1       2.055   7.046  20.646  0.00  0.00    +0.000 NA
ENDROOT
BRANCH   1  12
ATOM     12  C   UNL     1       3.622   5.429  19.621  0.00  0.00    +0.000 C 
BRANCH  12  13
ATOM     13  N   UNL     1       3.647   4.544  18.447  0.00  0.00    +0.000 N 
BRANCH  13  14
ATOM     14  C   UNL     1       4.689   4.653  17.519  0.00  0.00    +0.000 A 
ATOM     15  C   UNL     1       4.463   4.566  16.133  0.00  0.00    +0.000 A 
ATOM     16  C   UNL     1       5.514   4.615  15.209  0.00  0.00    +0.000 A 
ATOM     17  C   UNL     1       6.817   4.762  15.657  0.00  0.00    +0.000 A 
ATOM     18  F   UNL     1       7.825   4.802  14.776  0.00  0.00    +0.000 F 
ATOM     19  C   UNL     1       7.086   4.860  17.010  0.00  0.00    +0.000 A 
ATOM     20  C   UNL     1       6.031   4.804  17.926  0.00  0.00    +0.000 A 
ENDBRANCH  13  14
BRANCH  13  22
ATOM     21  C   UNL     1       1.292   3.614  18.321  0.00  0.00    +0.000 C 
ATOM     22  C   UNL     1       2.789   3.353  18.359  0.00  0.00    +0.000 C 
ENDBRANCH  13  22
ENDBRANCH  12  13
ENDBRANCH   1  12
BRANCH   6  23
ATOM     23  C   UNL     1       0.345  11.261  18.716  0.00  0.00    +0.000 C 
BRANCH  23  24
ATOM     24  C   UNL     1      -1.136  11.519  18.392  0.00  0.00    +0.000 C 
BRANCH  24  25
ATOM     25  C   UNL     1      -1.734  10.627  17.314  0.00  0.00    +0.000 C 
BRANCH  25  26
ATOM     26  O   UNL     1      -2.204  11.383  16.209  0.00  0.00    +0.000 OA
ATOM     27  H   UNL     1      -3.178  11.438  16.250  0.00  0.00    +0.000 HD
ENDBRANCH  25  26
ENDBRANCH  24  25
ENDBRANCH  23  24
ENDBRANCH   6  23
TORSDOF 8
ENDMDL
MODEL 5
REMARK VINA RESULT:      -7.0      1.496      1.881
REMARK  Name = 
REMARK  10 active torsions:
REMARK  status: ('A' for Active; 'I' for Inactive)
REMARK    1  A    between atoms: C_1  and  C_2
REMARK    2  A    between atoms: C_2  and  N_3
REMARK    3  A    between atoms: N_3  and  C_4
REMARK    4  A    between atoms: N_3  and  C_20
REMARK    5  A    between atoms: C_4  and  C_5
REMARK    6  A    between atoms: C_10  and  C_11
REMARK    7  A    between atoms: C_11  and  C_12
REMARK    8  A    between atoms: C_12  and  C_13
REMARK    9  A    between atoms: C_13  and  O_14
REMARK   10  A    between atoms: C_15  and  C_16
REMARK                            x       y       z     vdW  Elec       q    Type
REMARK                         _______ _______ _______ _____ _____    ______ ____
ROOT
ATOM      1  C   UNL     1       2.379   6.410  19.491  0.00  0.00    +0.000 A 
ATOM      2  C   UNL     1       2.434   7.164  18.381  0.00  0.00    +0.000 A 
ATOM      3  C   UNL     1       1.892   8.545  18.391  0.00  0.00    +0.000 A 
ATOM      4  O   UNL     1       2.098   9.248  17.403  0.00  0.00    +0.000 OA
ATOM      5  N   UNL     1       1.304   8.944  19.569  0.00  0.00    +0.000 N 
ATOM      6  C   UNL     1       0.781  10.214  19.878  0.00  0.00    +0.000 A 
ATOM      7  C   UNL     1       0.401  10.323  21.170  0.00  0.00    +0.000 A 
ATOM      8  C   UNL     1      -0.130  11.507  21.912  0.00  0.00    +0.000 C 
ATOM      9  S   UNL     1       0.610   8.819  22.038  0.00  0.00    +0.000 S 
ATOM     10  C   UNL     1       1.311   8.061  20.629  0.00  0.00    +0.000 A 
ATOM     11  N   UNL     1       1.788   6.864  20.651  0.00  0.00    +0.000 NA
ENDROOT
BRANCH   1  12
ATOM     12  C   UNL     1       3.175   5.109  19.595  0.00  0.00    +0.000 C 
BRANCH  12  13
ATOM     13  N   UNL     1       4.081   4.863  18.462  0.00  0.00    +0.000 N 
BRANCH  13  14
ATOM     14  C   UNL     1       5.309   5.532  18.398  0.00  0.00    +0.000 A 
ATOM     15  C   UNL     1       6.342   5.278  19.320  0.00  0.00    +0.000 A 
ATOM     16  C   UNL     1       7.548   5.989  19.290  0.00  0.00    +0.000 A 
ATOM     17  C   UNL     1       7.747   6.966  18.328  0.00  0.00    +0.000 A 
ATOM     18  F   UNL     1       8.896   7.652  18.302  0.00  0.00    +0.000 F 
ATOM     19  C   UNL     1       6.763   7.242  17.396  0.00  0.00    +0.000 A 
ATOM     20  C   UNL     1       5.560   6.531  17.436  0.00  0.00    +0.000 A 
ENDBRANCH  13  14
BRANCH  13  22
ATOM     21  C   UNL     1       2.443   3.403  17.192  0.00  0.00    +0.000 C 
ATOM     22  C   UNL     1       3.885   3.726  17.549  0.00  0.00    +0.000 C 
ENDBRANCH  13  22
ENDBRANCH  12  13
ENDBRANCH   1  12
BRANCH   6  23
ATOM     23  C   UNL     1       0.634  11.319  18.853  0.00  0.00    +0.000 C 
BRANCH  23  24
ATOM     24  C   UNL     1       1.424  12.613  19.109  0.00  0.00    +0.000 C 
BRANCH  24  25
ATOM     25  C   UNL     1       2.536  12.908  18.113  0.00  0.00    +0.000 C 
BRANCH  25  26
ATOM     26  O   UNL     1       2.648  11.885  17.134  0.00  0.00    +0.000 OA
ATOM     27  H   UNL     1       2.470  11.021  17.552  0.00  0.00    +0.000 HD
ENDBRANCH  25  26
ENDBRANCH  24  25
ENDBRANCH  23  24
ENDBRANCH   6  23
TORSDOF 8
ENDMDL
MODEL 6
REMARK VINA RESULT:      -7.0      2.735      4.193
REMARK  Name = 
REMARK  10 active torsions:
REMARK  status: ('A' for Active; 'I' for Inactive)
REMARK    1  A    between atoms: C_1  and  C_2
REMARK    2  A    between atoms: C_2  and  N_3
REMARK    3  A    between atoms: N_3  and  C_4
REMARK    4  A    between atoms: N_3  and  C_20
REMARK    5  A    between atoms: C_4  and  C_5
REMARK    6  A    between atoms: C_10  and  C_11
REMARK    7  A    between atoms: C_11  and  C_12
REMARK    8  A    between atoms: C_12  and  C_13
REMARK    9  A    between atoms: C_13  and  O_14
REMARK   10  A    between atoms: C_15  and  C_16
REMARK                            x       y       z     vdW  Elec       q    Type
REMARK                         _______ _______ _______ _____ _____    ______ ____
ROOT
ATOM      1  C   UNL     1       3.727   5.319  17.809  0.00  0.00    +0.000 A 
ATOM      2  C   UNL     1       3.351   4.884  19.023  0.00  0.00    +0.000 A 
ATOM      3  C   UNL     1       2.566   5.766  19.920  0.00  0.00    +0.000 A 
ATOM      4  O   UNL     1       2.116   5.276  20.955  0.00  0.00    +0.000 OA
ATOM      5  N   UNL     1       2.318   7.032  19.441  0.00  0.00    +0.000 N 
ATOM      6  C   UNL     1       1.542   8.040  20.045  0.00  0.00    +0.000 A 
ATOM      7  C   UNL     1       1.380   9.121  19.251  0.00  0.00    +0.000 A 
ATOM      8  C   UNL     1       0.578  10.362  19.481  0.00  0.00    +0.000 C 
ATOM      9  S   UNL     1       2.252   8.958  17.744  0.00  0.00    +0.000 S 
ATOM     10  C   UNL     1       2.772   7.348  18.177  0.00  0.00    +0.000 A 
ATOM     11  N   UNL     1       3.441   6.596  17.372  0.00  0.00    +0.000 NA
ENDROOT
BRANCH   1  12
ATOM     12  C   UNL     1       4.278   4.349  16.765  0.00  0.00    +0.000 C 
BRANCH  12  13
ATOM     13  N   UNL     1       5.646   4.654  16.319  0.00  0.00    +0.000 N 
BRANCH  13  14
ATOM     14  C   UNL     1       6.447   5.516  17.078  0.00  0.00    +0.000 A 
ATOM     15  C   UNL     1       6.682   6.847  16.688  0.00  0.00    +0.000 A 
ATOM     16  C   UNL     1       7.530   7.690  17.417  0.00  0.00    +0.000 A 
ATOM     17  C   UNL     1       8.155   7.216  18.559  0.00  0.00    +0.000 A 
ATOM     18  F   UNL     1       8.972   8.018  19.253  0.00  0.00    +0.000 F 
ATOM     19  C   UNL     1       7.945   5.918  18.985  0.00  0.00    +0.000 A 
ATOM     20  C   UNL     1       7.101   5.081  18.248  0.00  0.00    +0.000 A 
ENDBRANCH  13  14
BRANCH  13  22
ATOM     21  C   UNL     1       5.739   3.996  13.872  0.00  0.00    +0.000 C 
ATOM     22  C   UNL     1       6.313   3.862  15.274  0.00  0.00    +0.000 C 
ENDBRANCH  13  22
ENDBRANCH  12  13
ENDBRANCH   1  12
BRANCH   6  23
ATOM     23  C   UNL     1       0.984   7.924  21.448  0.00  0.00    +0.000 C 
BRANCH  23  24
ATOM     24  C   UNL     1       1.242   9.105  22.397  0.00  0.00    +0.000 C 
BRANCH  24  25
ATOM     25  C   UNL     1       0.056   9.526  23.253  0.00  0.00    +0.000 C 
BRANCH  25  26
ATOM     26  O   UNL     1      -0.263  10.897  23.069  0.00  0.00    +0.000 OA
ATOM     27  H   UNL     1       0.334  11.278  22.397  0.00  0.00    +0.000 HD
ENDBRANCH  25  26
ENDBRANCH  24  25
ENDBRANCH  23  24
ENDBRANCH   6  23
TORSDOF 8
ENDMDL
MODEL 7
REMARK VINA RESULT:      -6.9      1.107      1.168
REMARK  Name = 
REMARK  10 active torsions:
REMARK  status: ('A' for Active; 'I' for Inactive)
REMARK    1  A    between atoms: C_1  and  C_2
REMARK    2  A    between atoms: C_2  and  N_3
REMARK    3  A    between atoms: N_3  and  C_4
REMARK    4  A    between atoms: N_3  and  C_20
REMARK    5  A    between atoms: C_4  and  C_5
REMARK    6  A    between atoms: C_10  and  C_11
REMARK    7  A    between atoms: C_11  and  C_12
REMARK    8  A    between atoms: C_12  and  C_13
REMARK    9  A    between atoms: C_13  and  O_14
REMARK   10  A    between atoms: C_15  and  C_16
REMARK                            x       y       z     vdW  Elec       q    Type
REMARK                         _______ _______ _______ _____ _____    ______ ____
ROOT
ATOM      1  C   UNL     1       2.654   6.562  19.517  0.00  0.00    +0.000 A 
ATOM      2  C   UNL     1       2.628   7.270  18.376  0.00  0.00    +0.000 A 
ATOM      3  C   UNL     1       1.953   8.590  18.334  0.00  0.00    +0.000 A 
ATOM      4  O   UNL     1       2.083   9.267  17.315  0.00  0.00    +0.000 OA
ATOM      5  N   UNL     1       1.336   8.980  19.500  0.00  0.00    +0.000 N 
ATOM      6  C   UNL     1       0.693  10.205  19.761  0.00  0.00    +0.000 A 
ATOM      7  C   UNL     1       0.313  10.331  21.051  0.00  0.00    +0.000 A 
ATOM      8  C   UNL     1      -0.328  11.488  21.748  0.00  0.00    +0.000 C 
ATOM      9  S   UNL     1       0.674   8.894  21.980  0.00  0.00    +0.000 S 
ATOM     10  C   UNL     1       1.436   8.149  20.596  0.00  0.00    +0.000 A 
ATOM     11  N   UNL     1       2.029   7.006  20.664  0.00  0.00    +0.000 NA
ENDROOT
BRANCH   1  12
ATOM     12  C   UNL     1       3.575   5.352  19.668  0.00  0.00    +0.000 C 
BRANCH  12  13
ATOM     13  N   UNL     1       3.567   4.440  18.514  0.00  0.00    +0.000 N 
BRANCH  13  14
ATOM     14  C   UNL     1       4.632   4.461  17.605  0.00  0.00    +0.000 A 
ATOM     15  C   UNL     1       5.967   4.597  18.029  0.00  0.00    +0.000 A 
ATOM     16  C   UNL     1       7.026   4.678  17.115  0.00  0.00    +0.000 A 
ATOM     17  C   UNL     1       6.767   4.615  15.756  0.00  0.00    +0.000 A 
ATOM     18  F   UNL     1       7.777   4.699  14.880  0.00  0.00    +0.000 F 
ATOM     19  C   UNL     1       5.472   4.471  15.295  0.00  0.00    +0.000 A 
ATOM     20  C   UNL     1       4.420   4.397  16.213  0.00  0.00    +0.000 A 
ENDBRANCH  13  14
BRANCH  13  22
ATOM     21  C   UNL     1       3.263   1.924  18.579  0.00  0.00    +0.000 C 
ATOM     22  C   UNL     1       2.638   3.302  18.434  0.00  0.00    +0.000 C 
ENDBRANCH  13  22
ENDBRANCH  12  13
ENDBRANCH   1  12
BRANCH   6  23
ATOM     23  C   UNL     1       0.432  11.245  18.692  0.00  0.00    +0.000 C 
BRANCH  23  24
ATOM     24  C   UNL     1       1.332  12.491  18.701  0.00  0.00    +0.000 C 
BRANCH  24  25
ATOM     25  C   UNL     1       0.619  13.811  18.953  0.00  0.00    +0.000 C 
BRANCH  25  26
ATOM     26  O   UNL     1      -0.640  13.860  18.299  0.00  0.00    +0.000 OA
ATOM     27  H   UNL     1      -0.790  14.763  17.959  0.00  0.00    +0.000 HD
ENDBRANCH  25  26
ENDBRANCH  24  25
ENDBRANCH  23  24
ENDBRANCH   6  23
TORSDOF 8
ENDMDL
MODEL 8
REMARK VINA RESULT:      -6.9      1.068      1.312
REMARK  Name = 
REMARK  10 active torsions:
REMARK  status: ('A' for Active; 'I' for Inactive)
REMARK    1  A    between atoms: C_1  and  C_2
REMARK    2  A    between atoms: C_2  and  N_3
REMARK    3  A    between atoms: N_3  and  C_4
REMARK    4  A    between atoms: N_3  and  C_20
REMARK    5  A    between atoms: C_4  and  C_5
REMARK    6  A    between atoms: C_10  and  C_11
REMARK    7  A    between atoms: C_11  and  C_12
REMARK    8  A    between atoms: C_12  and  C_13
REMARK    9  A    between atoms: C_13  and  O_14
REMARK   10  A    between atoms: C_15  and  C_16
REMARK                            x       y       z     vdW  Elec       q    Type
REMARK                         _______ _______ _______ _____ _____    ______ ____
ROOT
ATOM      1  C   UNL     1       2.720   6.618  19.489  0.00  0.00    +0.000 A 
ATOM      2  C   UNL     1       2.669   7.336  18.355  0.00  0.00    +0.000 A 
ATOM      3  C   UNL     1       1.935   8.624  18.321  0.00  0.00    +0.000 A 
ATOM      4  O   UNL     1       2.041   9.317  17.309  0.00  0.00    +0.000 OA
ATOM      5  N   UNL     1       1.293   8.974  19.486  0.00  0.00    +0.000 N 
ATOM      6  C   UNL     1       0.592  10.165  19.754  0.00  0.00    +0.000 A 
ATOM      7  C   UNL     1       0.197  10.260  21.042  0.00  0.00    +0.000 A 
ATOM      8  C   UNL     1      -0.501  11.380  21.746  0.00  0.00    +0.000 C 
ATOM      9  S   UNL     1       0.617   8.832  21.959  0.00  0.00    +0.000 S 
ATOM     10  C   UNL     1       1.423   8.136  20.574  0.00  0.00    +0.000 A 
ATOM     11  N   UNL     1       2.067   7.021  20.635  0.00  0.00    +0.000 NA
ENDROOT
BRANCH   1  12
ATOM     12  C   UNL     1       3.694   5.450  19.634  0.00  0.00    +0.000 C 
BRANCH  12  13
ATOM     13  N   UNL     1       3.695   4.519  18.495  0.00  0.00    +0.000 N 
BRANCH  13  14
ATOM     14  C   UNL     1       4.708   4.603  17.532  0.00  0.00    +0.000 A 
ATOM     15  C   UNL     1       4.425   4.604  16.154  0.00  0.00    +0.000 A 
ATOM     16  C   UNL     1       5.443   4.628  15.192  0.00  0.00    +0.000 A 
ATOM     17  C   UNL     1       6.768   4.662  15.594  0.00  0.00    +0.000 A 
ATOM     18  F   UNL     1       7.743   4.678  14.676  0.00  0.00    +0.000 F 
ATOM     19  C   UNL     1       7.093   4.673  16.938  0.00  0.00    +0.000 A 
ATOM     20  C   UNL     1       6.071   4.642  17.892  0.00  0.00    +0.000 A 
ENDBRANCH  13  14
BRANCH  13  22
ATOM     21  C   UNL     1       1.400   3.526  18.083  0.00  0.00    +0.000 C 
ATOM     22  C   UNL     1       2.851   3.314  18.481  0.00  0.00    +0.000 C 
ENDBRANCH  13  22
ENDBRANCH  12  13
ENDBRANCH   1  12
BRANCH   6  23
ATOM     23  C   UNL     1       0.292  11.203  18.693  0.00  0.00    +0.000 C 
BRANCH  23  24
ATOM     24  C   UNL     1       1.164  12.469  18.694  0.00  0.00    +0.000 C 
BRANCH  24  25
ATOM     25  C   UNL     1       0.439  13.762  19.034  0.00  0.00    +0.000 C 
BRANCH  25  26
ATOM     26  O   UNL     1      -0.714  13.945  18.227  0.00  0.00    +0.000 OA
ATOM     27  H   UNL     1      -1.268  14.651  18.613  0.00  0.00    +0.000 HD
ENDBRANCH  25  26
ENDBRANCH  24  25
ENDBRANCH  23  24
ENDBRANCH   6  23
TORSDOF 8
ENDMDL
MODEL 9
REMARK VINA RESULT:      -6.8      2.547      3.879
REMARK  Name = 
REMARK  10 active torsions:
REMARK  status: ('A' for Active; 'I' for Inactive)
REMARK    1  A    between atoms: C_1  and  C_2
REMARK    2  A    between atoms: C_2  and  N_3
REMARK    3  A    between atoms: N_3  and  C_4
REMARK    4  A    between atoms: N_3  and  C_20
REMARK    5  A    between atoms: C_4  and  C_5
REMARK    6  A    between atoms: C_10  and  C_11
REMARK    7  A    between atoms: C_11  and  C_12
REMARK    8  A    between atoms: C_12  and  C_13
REMARK    9  A    between atoms: C_13  and  O_14
REMARK   10  A    between atoms: C_15  and  C_16
REMARK                            x       y       z     vdW  Elec       q    Type
REMARK                         _______ _______ _______ _____ _____    ______ ____
ROOT
ATOM      1  C   UNL     1       2.963   7.005  18.637  0.00  0.00    +0.000 A 
ATOM      2  C   UNL     1       2.621   7.936  17.731  0.00  0.00    +0.000 A 
ATOM      3  C   UNL     1       1.727   9.056  18.114  0.00  0.00    +0.000 A 
ATOM      4  O   UNL     1       1.562   9.962  17.297  0.00  0.00    +0.000 OA
ATOM      5  N   UNL     1       1.256   9.026  19.406  0.00  0.00    +0.000 N 
ATOM      6  C   UNL     1       0.460   9.992  20.051  0.00  0.00    +0.000 A 
ATOM      7  C   UNL     1       0.286   9.733  21.365  0.00  0.00    +0.000 A 
ATOM      8  C   UNL     1      -0.422  10.534  22.409  0.00  0.00    +0.000 C 
ATOM      9  S   UNL     1       1.045   8.230  21.839  0.00  0.00    +0.000 S 
ATOM     10  C   UNL     1       1.683   8.004  20.228  0.00  0.00    +0.000 A 
ATOM     11  N   UNL     1       2.471   7.029  19.926  0.00  0.00    +0.000 NA
ENDROOT
BRANCH   1  12
ATOM     12  C   UNL     1       4.094   6.017  18.358  0.00  0.00    +0.000 C 
BRANCH  12  13
ATOM     13  N   UNL     1       3.658   4.617  18.245  0.00  0.00    +0.000 N 
BRANCH  13  14
ATOM     14  C   UNL     1       2.899   4.042  19.271  0.00  0.00    +0.000 A 
ATOM     15  C   UNL     1       3.480   3.630  20.484  0.00  0.00    +0.000 A 
ATOM     16  C   UNL     1       2.728   3.001  21.486  0.00  0.00    +0.000 A 
ATOM     17  C   UNL     1       1.375   2.780  21.293  0.00  0.00    +0.000 A 
ATOM     18  F   UNL     1       0.656   2.173  22.246  0.00  0.00    +0.000 F 
ATOM     19  C   UNL     1       0.760   3.177  20.120  0.00  0.00    +0.000 A 
ATOM     20  C   UNL     1       1.518   3.799  19.123  0.00  0.00    +0.000 A 
ENDBRANCH  13  14
BRANCH  13  22
ATOM     21  C   UNL     1       4.903   4.238  16.069  0.00  0.00    +0.000 C 
ATOM     22  C   UNL     1       3.731   3.885  16.971  0.00  0.00    +0.000 C 
ENDBRANCH  13  22
ENDBRANCH  12  13
ENDBRANCH   1  12
BRANCH   6  23
ATOM     23  C   UNL     1      -0.156  11.171  19.327  0.00  0.00    +0.000 C 
BRANCH  23  24
ATOM     24  C   UNL     1      -1.611  11.014  18.857  0.00  0.00    +0.000 C 
BRANCH  24  25
ATOM     25  C   UNL     1      -1.973  11.770  17.587  0.00  0.00    +0.000 C 
BRANCH  25  26
ATOM     26  O   UNL     1      -1.031  12.792  17.299  0.00  0.00    +0.000 OA
ATOM     27  H   UNL     1      -0.142  12.497  17.575  0.00  0.00    +0.000 HD
ENDBRANCH  25  26
ENDBRANCH  24  25
ENDBRANCH  23  24
ENDBRANCH   6  23
TORSDOF 8
ENDMDL
