MODEL 1
REMARK VINA RESULT:      -7.7      0.000      0.000
REMARK  Name = 
REMARK  9 active torsions:
REMARK  status: ('A' for Active; 'I' for Inactive)
REMARK    1  A    between atoms: C_1  and  N_2
REMARK    2  A    between atoms: N_2  and  C_3
REMARK    3  A    between atoms: C_3  and  C_4
REMARK    4  A    between atoms: C_3  and  C_5
REMARK    5  A    between atoms: N_8  and  C_9
REMARK    6  A    between atoms: C_16  and  C_17
REMARK    7  A    between atoms: C_17  and  O_19
REMARK    8  A    between atoms: N_21  and  C_22
REMARK    9  A    between atoms: C_26  and  C_27
REMARK                            x       y       z     vdW  Elec       q    Type
REMARK                         _______ _______ _______ _____ _____    ______ ____
ROOT
ATOM      1  C   UNL     1       4.816   5.478  16.975  0.00  0.00    +0.000 A 
ATOM      2  C   UNL     1       4.523   6.817  16.649  0.00  0.00    +0.000 A 
ATOM      3  F   UNL     1       5.042   7.392  15.555  0.00  0.00    +0.000 F 
ATOM      4  C   UNL     1       3.655   7.583  17.403  0.00  0.00    +0.000 A 
ATOM      5  C   UNL     1       3.017   7.012  18.501  0.00  0.00    +0.000 A 
ATOM      6  C   UNL     1       2.083   7.904  19.238  0.00  0.00    +0.000 A 
ATOM      7  O   UNL     1       1.885   9.068  18.893  0.00  0.00    +0.000 OA
ATOM      8  C   UNL     1       1.397   7.374  20.418  0.00  0.00    +0.000 A 
ATOM      9  C   UNL     1       1.638   6.093  20.718  0.00  0.00    +0.000 A 
ATOM     10  N   UNL     1       2.449   5.196  20.034  0.00  0.00    +0.000 N 
ATOM     11  C   UNL     1       3.241   5.660  18.909  0.00  0.00    +0.000 A 
ATOM     12  C   UNL     1       4.210   4.907  18.154  0.00  0.00    +0.000 A 
ENDROOT
BRANCH   1  16
ATOM     13  C   UNL     1       6.214   3.734  14.068  0.00  0.00    +0.000 C 
ATOM     14  C   UNL     1       7.334   4.687  14.492  0.00  0.00    +0.000 C 
ATOM     15  C   UNL     1       7.079   4.867  15.995  0.00  0.00    +0.000 C 
ATOM     16  N   UNL     1       5.626   4.693  16.154  0.00  0.00    +0.000 N 
ATOM     17  C   UNL     1       5.037   4.298  14.868  0.00  0.00    +0.000 C 
BRANCH  13  18
ATOM     18  C   UNL     1       5.876   3.682  12.567  0.00  0.00    +0.000 C 
ATOM     19  C   UNL     1       4.368   3.472  12.349  0.00  0.00    +0.000 C 
BRANCH  18  21
ATOM     20  C   UNL     1       5.992   1.530  11.358  0.00  0.00    +0.000 C 
ATOM     21  N   UNL     1       6.695   2.722  11.815  0.00  0.00    +0.000 NA
ATOM     22  H   UNL     1       7.078   3.195  10.995  0.00  0.00    +0.000 HD
ENDBRANCH  18  21
ENDBRANCH  13  18
ENDBRANCH   1  16
BRANCH  12  23
ATOM     23  C   UNL     1       4.664   3.508  18.543  0.00  0.00    +0.000 C 
ATOM     24  F   UNL     1       5.893   3.103  18.097  0.00  0.00    +0.000 F 
ATOM     25  F   UNL     1       4.787   3.321  19.885  0.00  0.00    +0.000 F 
ATOM     26  F   UNL     1       3.811   2.550  18.081  0.00  0.00    +0.000 F 
ENDBRANCH  12  23
BRANCH  10  27
ATOM     27  C   UNL     1       2.579   3.863  20.668  0.00  0.00    +0.000 C 
ATOM     28  C   UNL     1       1.753   3.325  21.818  0.00  0.00    +0.000 C 
ATOM     29  C   UNL     1       1.532   2.796  20.444  0.00  0.00    +0.000 C 
ENDBRANCH  10  27
BRANCH   8  30
ATOM     30  C   UNL     1       0.497   8.165  21.279  0.00  0.00    +0.000 C 
ATOM     31  O   UNL     1      -0.665   7.859  21.493  0.00  0.00    +0.000 OA
BRANCH  30  32
ATOM     32  O   UNL     1       1.061   9.266  21.822  0.00  0.00    +0.000 OA
ATOM     33  H   UNL     1       2.017   9.159  22.048  0.00  0.00    +0.000 HD
ENDBRANCH  30  32
ENDBRANCH   8  30
TORSDOF 7
ENDMDL
MODEL 2
REMARK VINA RESULT:      -7.4      0.670      1.073
REMARK  Name = 
REMARK  9 active torsions:
REMARK  status: ('A' for Active; 'I' for Inactive)
REMARK    1  A    between atoms: C_1  and  N_2
REMARK    2  A    between atoms: N_2  and  C_3
REMARK    3  A    between atoms: C_3  and  C_4
REMARK    4  A    between atoms: C_3  and  C_5
REMARK    5  A    between atoms: N_8  and  C_9
REMARK    6  A    between atoms: C_16  and  C_17
REMARK    7  A    between atoms: C_17  and  O_19
REMARK    8  A    between atoms: N_21  and  C_22
REMARK    9  A    between atoms: C_26  and  C_27
REMARK                            x       y       z     vdW  Elec       q    Type
REMARK                         _______ _______ _______ _____ _____    ______ ____
ROOT
ATOM      1  C   UNL     1       4.882   5.486  17.060  0.00  0.00    +0.000 A 
ATOM      2  C   UNL     1       4.588   6.822  16.721  0.00  0.00    +0.000 A 
ATOM      3  F   UNL     1       5.131   7.398  15.639  0.00  0.00    +0.000 F 
ATOM      4  C   UNL     1       3.694   7.584  17.449  0.00  0.00    +0.000 A 
ATOM      5  C   UNL     1       3.032   7.011  18.532  0.00  0.00    +0.000 A 
ATOM      6  C   UNL     1       2.072   7.899  19.240  0.00  0.00    +0.000 A 
ATOM      7  O   UNL     1       1.874   9.060  18.886  0.00  0.00    +0.000 OA
ATOM      8  C   UNL     1       1.359   7.367  20.405  0.00  0.00    +0.000 A 
ATOM      9  C   UNL     1       1.602   6.090  20.715  0.00  0.00    +0.000 A 
ATOM     10  N   UNL     1       2.438   5.197  20.056  0.00  0.00    +0.000 N 
ATOM     11  C   UNL     1       3.255   5.663  18.951  0.00  0.00    +0.000 A 
ATOM     12  C   UNL     1       4.250   4.915  18.224  0.00  0.00    +0.000 A 
ENDROOT
BRANCH   1  16
ATOM     13  C   UNL     1       6.325   3.675  14.217  0.00  0.00    +0.000 C 
ATOM     14  C   UNL     1       7.398   4.706  14.572  0.00  0.00    +0.000 C 
ATOM     15  C   UNL     1       7.158   4.948  16.068  0.00  0.00    +0.000 C 
ATOM     16  N   UNL     1       5.720   4.705  16.264  0.00  0.00    +0.000 N 
ATOM     17  C   UNL     1       5.132   4.215  15.010  0.00  0.00    +0.000 C 
BRANCH  13  18
ATOM     18  C   UNL     1       5.965   3.529  12.727  0.00  0.00    +0.000 C 
ATOM     19  C   UNL     1       6.945   4.317  11.843  0.00  0.00    +0.000 C 
BRANCH  18  21
ATOM     20  C   UNL     1       4.025   3.215  11.228  0.00  0.00    +0.000 C 
ATOM     21  N   UNL     1       4.560   3.842  12.430  0.00  0.00    +0.000 NA
ATOM     22  H   UNL     1       3.987   3.545  13.221  0.00  0.00    +0.000 HD
ENDBRANCH  18  21
ENDBRANCH  13  18
ENDBRANCH   1  16
BRANCH  12  23
ATOM     23  C   UNL     1       4.704   3.521  18.630  0.00  0.00    +0.000 C 
ATOM     24  F   UNL     1       4.666   3.214  19.964  0.00  0.00    +0.000 F 
ATOM     25  F   UNL     1       3.953   2.519  18.099  0.00  0.00    +0.000 F 
ATOM     26  F   UNL     1       5.999   3.285  18.272  0.00  0.00    +0.000 F 
ENDBRANCH  12  23
BRANCH  10  27
ATOM     27  C   UNL     1       2.561   3.867  20.698  0.00  0.00    +0.000 C 
ATOM     28  C   UNL     1       1.743   3.346  21.862  0.00  0.00    +0.000 C 
ATOM     29  C   UNL     1       1.500   2.810  20.495  0.00  0.00    +0.000 C 
ENDBRANCH  10  27
BRANCH   8  30
ATOM     30  C   UNL     1       0.430   8.155  21.238  0.00  0.00    +0.000 C 
ATOM     31  O   UNL     1      -0.725   7.822  21.451  0.00  0.00    +0.000 OA
BRANCH  30  32
ATOM     32  O   UNL     1       0.959   9.284  21.758  0.00  0.00    +0.000 OA
ATOM     33  H   UNL     1       1.760   9.611  21.280  0.00  0.00    +0.000 HD
ENDBRANCH  30  32
ENDBRANCH   8  30
TORSDOF 7
ENDMDL
MODEL 3
REMARK VINA RESULT:      -7.3      3.974      7.653
REMARK  Name = 
REMARK  9 active torsions:
REMARK  status: ('A' for Active; 'I' for Inactive)
REMARK    1  A    between atoms: C_1  and  N_2
REMARK    2  A    between atoms: N_2  and  C_3
REMARK    3  A    between atoms: C_3  and  C_4
REMARK    4  A    between atoms: C_3  and  C_5
REMARK    5  A    between atoms: N_8  and  C_9
REMARK    6  A    between atoms: C_16  and  C_17
REMARK    7  A    between atoms: C_17  and  O_19
REMARK    8  A    between atoms: N_21  and  C_22
REMARK    9  A    between atoms: C_26  and  C_27
REMARK                            x       y       z     vdW  Elec       q    Type
REMARK                         _______ _______ _______ _____ _____    ______ ____
ROOT
ATOM      1  C   UNL     1       1.481   8.244  19.655  0.00  0.00    +0.000 A 
ATOM      2  C   UNL     1       1.008   7.473  20.736  0.00  0.00    +0.000 A 
ATOM      3  F   UNL     1       0.066   7.946  21.564  0.00  0.00    +0.000 F 
ATOM      4  C   UNL     1       1.448   6.184  20.966  0.00  0.00    +0.000 A 
ATOM      5  C   UNL     1       2.362   5.607  20.087  0.00  0.00    +0.000 A 
ATOM      6  C   UNL     1       2.759   4.209  20.401  0.00  0.00    +0.000 A 
ATOM      7  O   UNL     1       2.305   3.603  21.370  0.00  0.00    +0.000 OA
ATOM      8  C   UNL     1       3.736   3.549  19.530  0.00  0.00    +0.000 A 
ATOM      9  C   UNL     1       4.166   4.257  18.481  0.00  0.00    +0.000 A 
ATOM     10  N   UNL     1       3.785   5.539  18.103  0.00  0.00    +0.000 N 
ATOM     11  C   UNL     1       2.895   6.302  18.958  0.00  0.00    +0.000 A 
ATOM     12  C   UNL     1       2.481   7.672  18.786  0.00  0.00    +0.000 A 
ENDROOT
BRANCH   1  16
ATOM     13  C   UNL     1      -0.699  10.972  18.536  0.00  0.00    +0.000 C 
ATOM     14  C   UNL     1      -0.602  11.183  20.049  0.00  0.00    +0.000 C 
ATOM     15  C   UNL     1       0.759  10.565  20.394  0.00  0.00    +0.000 C 
ATOM     16  N   UNL     1       0.962   9.511  19.387  0.00  0.00    +0.000 N 
ATOM     17  C   UNL     1      -0.129   9.558  18.404  0.00  0.00    +0.000 C 
BRANCH  13  18
ATOM     18  C   UNL     1      -2.102  11.053  17.910  0.00  0.00    +0.000 C 
ATOM     19  C   UNL     1      -2.797   9.681  17.934  0.00  0.00    +0.000 C 
BRANCH  18  21
ATOM     20  C   UNL     1      -2.802  10.901  15.545  0.00  0.00    +0.000 C 
ATOM     21  N   UNL     1      -2.115  11.668  16.576  0.00  0.00    +0.000 NA
ATOM     22  H   UNL     1      -2.567  12.581  16.643  0.00  0.00    +0.000 HD
ENDBRANCH  18  21
ENDBRANCH  13  18
ENDBRANCH   1  16
BRANCH  12  23
ATOM     23  C   UNL     1       3.062   8.590  17.721  0.00  0.00    +0.000 C 
ATOM     24  F   UNL     1       2.722   9.914  17.784  0.00  0.00    +0.000 F 
ATOM     25  F   UNL     1       4.420   8.656  17.731  0.00  0.00    +0.000 F 
ATOM     26  F   UNL     1       2.688   8.211  16.465  0.00  0.00    +0.000 F 
ENDBRANCH  12  23
BRANCH  10  27
ATOM     27  C   UNL     1       4.508   6.086  16.931  0.00  0.00    +0.000 C 
ATOM     28  C   UNL     1       6.010   6.210  16.773  0.00  0.00    +0.000 C 
ATOM     29  C   UNL     1       5.274   5.173  16.001  0.00  0.00    +0.000 C 
ENDBRANCH  10  27
BRANCH   8  30
ATOM     30  C   UNL     1       4.268   2.193  19.760  0.00  0.00    +0.000 C 
ATOM     31  O   UNL     1       4.945   1.894  20.731  0.00  0.00    +0.000 OA
BRANCH  30  32
ATOM     32  O   UNL     1       3.944   1.292  18.807  0.00  0.00    +0.000 OA
ATOM     33  H   UNL     1       3.840   0.368  19.144  0.00  0.00    +0.000 HD
ENDBRANCH  30  32
ENDBRANCH   8  30
TORSDOF 7
ENDMDL
MODEL 4
REMARK VINA RESULT:      -7.2      3.279      6.247
REMARK  Name = 
REMARK  9 active torsions:
REMARK  status: ('A' for Active; 'I' for Inactive)
REMARK    1  A    between atoms: C_1  and  N_2
REMARK    2  A    between atoms: N_2  and  C_3
REMARK    3  A    between atoms: C_3  and  C_4
REMARK    4  A    between atoms: C_3  and  C_5
REMARK    5  A    between atoms: N_8  and  C_9
REMARK    6  A    between atoms: C_16  and  C_17
REMARK    7  A    between atoms: C_17  and  O_19
REMARK    8  A    between atoms: N_21  and  C_22
REMARK    9  A    between atoms: C_26  and  C_27
REMARK                            x       y       z     vdW  Elec       q    Type
REMARK                         _______ _______ _______ _____ _____    ______ ____
ROOT
ATOM      1  C   UNL     1       1.906   7.556  19.582  0.00  0.00    +0.000 A 
ATOM      2  C   UNL     1       1.549   7.077  20.858  0.00  0.00    +0.000 A 
ATOM      3  F   UNL     1       1.896   5.845  21.258  0.00  0.00    +0.000 F 
ATOM      4  C   UNL     1       0.874   7.861  21.774  0.00  0.00    +0.000 A 
ATOM      5  C   UNL     1       0.564   9.179  21.447  0.00  0.00    +0.000 A 
ATOM      6  C   UNL     1      -0.141   9.954  22.503  0.00  0.00    +0.000 A 
ATOM      7  O   UNL     1      -0.425   9.460  23.593  0.00  0.00    +0.000 OA
ATOM      8  C   UNL     1      -0.519  11.340  22.216  0.00  0.00    +0.000 A 
ATOM      9  C   UNL     1      -0.153  11.818  21.023  0.00  0.00    +0.000 A 
ATOM     10  N   UNL     1       0.558  11.164  20.024  0.00  0.00    +0.000 N 
ATOM     11  C   UNL     1       0.890   9.761  20.183  0.00  0.00    +0.000 A 
ATOM     12  C   UNL     1       1.523   8.898  19.217  0.00  0.00    +0.000 A 
ENDROOT
BRANCH   1  16
ATOM     13  C   UNL     1       4.540   5.440  18.155  0.00  0.00    +0.000 C 
ATOM     14  C   UNL     1       3.283   4.573  18.053  0.00  0.00    +0.000 C 
ATOM     15  C   UNL     1       2.157   5.612  17.966  0.00  0.00    +0.000 C 
ATOM     16  N   UNL     1       2.663   6.780  18.703  0.00  0.00    +0.000 N 
ATOM     17  C   UNL     1       4.056   6.539  19.104  0.00  0.00    +0.000 C 
BRANCH  13  18
ATOM     18  C   UNL     1       5.809   4.766  18.707  0.00  0.00    +0.000 C 
ATOM     19  C   UNL     1       6.744   5.799  19.357  0.00  0.00    +0.000 C 
BRANCH  18  21
ATOM     20  C   UNL     1       7.003   4.618  16.549  0.00  0.00    +0.000 C 
ATOM     21  N   UNL     1       6.498   3.919  17.724  0.00  0.00    +0.000 NA
ATOM     22  H   UNL     1       7.288   3.465  18.184  0.00  0.00    +0.000 HD
ENDBRANCH  18  21
ENDBRANCH  13  18
ENDBRANCH   1  16
BRANCH  12  23
ATOM     23  C   UNL     1       1.807   9.321  17.783  0.00  0.00    +0.000 C 
ATOM     24  F   UNL     1       2.475  10.501  17.600  0.00  0.00    +0.000 F 
ATOM     25  F   UNL     1       2.597   8.451  17.098  0.00  0.00    +0.000 F 
ATOM     26  F   UNL     1       0.659   9.473  17.062  0.00  0.00    +0.000 F 
ENDBRANCH  12  23
BRANCH  10  27
ATOM     27  C   UNL     1       0.735  11.940  18.774  0.00  0.00    +0.000 C 
ATOM     28  C   UNL     1      -0.273  12.876  18.141  0.00  0.00    +0.000 C 
ATOM     29  C   UNL     1       0.929  13.438  18.814  0.00  0.00    +0.000 C 
ENDBRANCH  10  27
BRANCH   8  30
ATOM     30  C   UNL     1      -1.277  12.201  23.144  0.00  0.00    +0.000 C 
ATOM     31  O   UNL     1      -0.854  13.263  23.569  0.00  0.00    +0.000 OA
BRANCH  30  32
ATOM     32  O   UNL     1      -2.492  11.722  23.490  0.00  0.00    +0.000 OA
ATOM     33  H   UNL     1      -2.927  12.219  24.226  0.00  0.00    +0.000 HD
ENDBRANCH  30  32
ENDBRANCH   8  30
TORSDOF 7
ENDMDL
MODEL 5
REMARK VINA RESULT:      -7.2      3.865      6.480
REMARK  Name = 
REMARK  9 active torsions:
REMARK  status: ('A' for Active; 'I' for Inactive)
REMARK    1  A    between atoms: C_1  and  N_2
REMARK    2  A    between atoms: N_2  and  C_3
REMARK    3  A    between atoms: C_3  and  C_4
REMARK    4  A    between atoms: C_3  and  C_5
REMARK    5  A    between atoms: N_8  and  C_9
REMARK    6  A    between atoms: C_16  and  C_17
REMARK    7  A    between atoms: C_17  and  O_19
REMARK    8  A    between atoms: N_21  and  C_22
REMARK    9  A    between atoms: C_26  and  C_27
REMARK                            x       y       z     vdW  Elec       q    Type
REMARK                         _______ _______ _______ _____ _____    ______ ____
ROOT
ATOM      1  C   UNL     1       1.792   7.578  19.601  0.00  0.00    +0.000 A 
ATOM      2  C   UNL     1       1.381   7.097  20.860  0.00  0.00    +0.000 A 
ATOM      3  F   UNL     1       1.664   5.846  21.250  0.00  0.00    +0.000 F 
ATOM      4  C   UNL     1       0.719   7.898  21.771  0.00  0.00    +0.000 A 
ATOM      5  C   UNL     1       0.476   9.233  21.457  0.00  0.00    +0.000 A 
ATOM      6  C   UNL     1      -0.220  10.023  22.507  0.00  0.00    +0.000 A 
ATOM      7  O   UNL     1      -0.553   9.527  23.583  0.00  0.00    +0.000 OA
ATOM      8  C   UNL     1      -0.529  11.429  22.233  0.00  0.00    +0.000 A 
ATOM      9  C   UNL     1      -0.114  11.907  21.056  0.00  0.00    +0.000 A 
ATOM     10  N   UNL     1       0.593  11.236  20.065  0.00  0.00    +0.000 N 
ATOM     11  C   UNL     1       0.859   9.817  20.210  0.00  0.00    +0.000 A 
ATOM     12  C   UNL     1       1.477   8.941  19.247  0.00  0.00    +0.000 A 
ENDROOT
BRANCH   1  16
ATOM     13  C   UNL     1       4.286   5.262  18.236  0.00  0.00    +0.000 C 
ATOM     14  C   UNL     1       2.952   4.570  17.947  0.00  0.00    +0.000 C 
ATOM     15  C   UNL     1       1.971   5.746  17.850  0.00  0.00    +0.000 C 
ATOM     16  N   UNL     1       2.535   6.782  18.729  0.00  0.00    +0.000 N 
ATOM     17  C   UNL     1       3.843   6.338  19.230  0.00  0.00    +0.000 C 
BRANCH  13  18
ATOM     18  C   UNL     1       5.405   4.394  18.838  0.00  0.00    +0.000 C 
ATOM     19  C   UNL     1       4.821   3.205  19.620  0.00  0.00    +0.000 C 
BRANCH  18  21
ATOM     20  C   UNL     1       7.509   5.690  18.865  0.00  0.00    +0.000 C 
ATOM     21  N   UNL     1       6.383   5.160  19.623  0.00  0.00    +0.000 NA
ATOM     22  H   UNL     1       5.902   5.945  20.064  0.00  0.00    +0.000 HD
ENDBRANCH  18  21
ENDBRANCH  13  18
ENDBRANCH   1  16
BRANCH  12  23
ATOM     23  C   UNL     1       1.815   9.371  17.827  0.00  0.00    +0.000 C 
ATOM     24  F   UNL     1       2.532   8.492  17.062  0.00  0.00    +0.000 F 
ATOM     25  F   UNL     1       0.725   9.587  17.043  0.00  0.00    +0.000 F 
ATOM     26  F   UNL     1       2.559  10.514  17.806  0.00  0.00    +0.000 F 
ENDBRANCH  12  23
BRANCH  10  27
ATOM     27  C   UNL     1       0.836  12.021  18.831  0.00  0.00    +0.000 C 
ATOM     28  C   UNL     1      -0.134  12.971  18.159  0.00  0.00    +0.000 C 
ATOM     29  C   UNL     1       1.038  13.517  18.894  0.00  0.00    +0.000 C 
ENDBRANCH  10  27
BRANCH   8  30
ATOM     30  C   UNL     1      -1.272  12.309  23.154  0.00  0.00    +0.000 C 
ATOM     31  O   UNL     1      -0.840  13.378  23.553  0.00  0.00    +0.000 OA
BRANCH  30  32
ATOM     32  O   UNL     1      -2.483  11.841  23.527  0.00  0.00    +0.000 OA
ATOM     33  H   UNL     1      -3.203  12.016  22.873  0.00  0.00    +0.000 HD
ENDBRANCH  30  32
ENDBRANCH   8  30
TORSDOF 7
ENDMDL
MODEL 6
REMARK VINA RESULT:      -7.1      3.694      6.460
REMARK  Name = 
REMARK  9 active torsions:
REMARK  status: ('A' for Active; 'I' for Inactive)
REMARK    1  A    between atoms: C_1  and  N_2
REMARK    2  A    between atoms: N_2  and  C_3
REMARK    3  A    between atoms: C_3  and  C_4
REMARK    4  A    between atoms: C_3  and  C_5
REMARK    5  A    between atoms: N_8  and  C_9
REMARK    6  A    between atoms: C_16  and  C_17
REMARK    7  A    between atoms: C_17  and  O_19
REMARK    8  A    between atoms: N_21  and  C_22
REMARK    9  A    between atoms: C_26  and  C_27
REMARK                            x       y       z     vdW  Elec       q    Type
REMARK                         _______ _______ _______ _____ _____    ______ ____
ROOT
ATOM      1  C   UNL     1       1.783   7.621  19.630  0.00  0.00    +0.000 A 
ATOM      2  C   UNL     1       1.374   7.148  20.893  0.00  0.00    +0.000 A 
ATOM      3  F   UNL     1       1.659   5.900  21.291  0.00  0.00    +0.000 F 
ATOM      4  C   UNL     1       0.711   7.954  21.798  0.00  0.00    +0.000 A 
ATOM      5  C   UNL     1       0.465   9.286  21.475  0.00  0.00    +0.000 A 
ATOM      6  C   UNL     1      -0.233  10.082  22.519  0.00  0.00    +0.000 A 
ATOM      7  O   UNL     1      -0.564   9.594  23.598  0.00  0.00    +0.000 OA
ATOM      8  C   UNL     1      -0.544  11.485  22.235  0.00  0.00    +0.000 A 
ATOM      9  C   UNL     1      -0.130  11.956  21.055  0.00  0.00    +0.000 A 
ATOM     10  N   UNL     1       0.578  11.280  20.068  0.00  0.00    +0.000 N 
ATOM     11  C   UNL     1       0.847   9.863  20.224  0.00  0.00    +0.000 A 
ATOM     12  C   UNL     1       1.466   8.981  19.267  0.00  0.00    +0.000 A 
ENDROOT
BRANCH   1  16
ATOM     13  C   UNL     1       4.286   5.305  18.279  0.00  0.00    +0.000 C 
ATOM     14  C   UNL     1       2.955   4.602  18.002  0.00  0.00    +0.000 C 
ATOM     15  C   UNL     1       1.966   5.771  17.898  0.00  0.00    +0.000 C 
ATOM     16  N   UNL     1       2.528   6.820  18.764  0.00  0.00    +0.000 N 
ATOM     17  C   UNL     1       3.841   6.389  19.265  0.00  0.00    +0.000 C 
BRANCH  13  18
ATOM     18  C   UNL     1       5.412   4.449  18.887  0.00  0.00    +0.000 C 
ATOM     19  C   UNL     1       6.764   4.769  18.228  0.00  0.00    +0.000 C 
BRANCH  18  21
ATOM     20  C   UNL     1       4.497   2.512  20.117  0.00  0.00    +0.000 C 
ATOM     21  N   UNL     1       5.115   3.011  18.896  0.00  0.00    +0.000 NA
ATOM     22  H   UNL     1       4.487   2.804  18.118  0.00  0.00    +0.000 HD
ENDBRANCH  18  21
ENDBRANCH  13  18
ENDBRANCH   1  16
BRANCH  12  23
ATOM     23  C   UNL     1       1.802   9.401  17.844  0.00  0.00    +0.000 C 
ATOM     24  F   UNL     1       2.503   8.509  17.078  0.00  0.00    +0.000 F 
ATOM     25  F   UNL     1       0.712   9.630  17.064  0.00  0.00    +0.000 F 
ATOM     26  F   UNL     1       2.562  10.534  17.814  0.00  0.00    +0.000 F 
ENDBRANCH  12  23
BRANCH  10  27
ATOM     27  C   UNL     1       0.818  12.056  18.829  0.00  0.00    +0.000 C 
ATOM     28  C   UNL     1      -0.110  13.080  18.209  0.00  0.00    +0.000 C 
ATOM     29  C   UNL     1       1.132  13.533  18.891  0.00  0.00    +0.000 C 
ENDBRANCH  10  27
BRANCH   8  30
ATOM     30  C   UNL     1      -1.288  12.371  23.151  0.00  0.00    +0.000 C 
ATOM     31  O   UNL     1      -0.837  13.418  23.584  0.00  0.00    +0.000 OA
BRANCH  30  32
ATOM     32  O   UNL     1      -2.524  11.933  23.477  0.00  0.00    +0.000 OA
ATOM     33  H   UNL     1      -3.085  12.609  23.932  0.00  0.00    +0.000 HD
ENDBRANCH  30  32
ENDBRANCH   8  30
TORSDOF 7
ENDMDL
MODEL 7
REMARK VINA RESULT:      -7.1      0.774      1.006
REMARK  Name = 
REMARK  9 active torsions:
REMARK  status: ('A' for Active; 'I' for Inactive)
REMARK    1  A    between atoms: C_1  and  N_2
REMARK    2  A    between atoms: N_2  and  C_3
REMARK    3  A    between atoms: C_3  and  C_4
REMARK    4  A    between atoms: C_3  and  C_5
REMARK    5  A    between atoms: N_8  and  C_9
REMARK    6  A    between atoms: C_16  and  C_17
REMARK    7  A    between atoms: C_17  and  O_19
REMARK    8  A    between atoms: N_21  and  C_22
REMARK    9  A    between atoms: C_26  and  C_27
REMARK                            x       y       z     vdW  Elec       q    Type
REMARK                         _______ _______ _______ _____ _____    ______ ____
ROOT
ATOM      1  C   UNL     1       4.652   5.259  17.028  0.00  0.00    +0.000 A 
ATOM      2  C   UNL     1       4.558   6.656  16.866  0.00  0.00    +0.000 A 
ATOM      3  F   UNL     1       5.214   7.284  15.879  0.00  0.00    +0.000 F 
ATOM      4  C   UNL     1       3.754   7.436  17.675  0.00  0.00    +0.000 A 
ATOM      5  C   UNL     1       2.982   6.827  18.661  0.00  0.00    +0.000 A 
ATOM      6  C   UNL     1       2.130   7.742  19.465  0.00  0.00    +0.000 A 
ATOM      7  O   UNL     1       2.108   8.956  19.266  0.00  0.00    +0.000 OA
ATOM      8  C   UNL     1       1.310   7.171  20.536  0.00  0.00    +0.000 A 
ATOM      9  C   UNL     1       1.362   5.843  20.678  0.00  0.00    +0.000 A 
ATOM     10  N   UNL     1       2.089   4.933  19.918  0.00  0.00    +0.000 N 
ATOM     11  C   UNL     1       3.000   5.418  18.899  0.00  0.00    +0.000 A 
ATOM     12  C   UNL     1       3.907   4.637  18.095  0.00  0.00    +0.000 A 
ENDROOT
BRANCH   1  16
ATOM     13  C   UNL     1       6.051   3.779  13.978  0.00  0.00    +0.000 C 
ATOM     14  C   UNL     1       7.265   4.410  14.665  0.00  0.00    +0.000 C 
ATOM     15  C   UNL     1       6.870   4.386  16.147  0.00  0.00    +0.000 C 
ATOM     16  N   UNL     1       5.401   4.477  16.148  0.00  0.00    +0.000 N 
ATOM     17  C   UNL     1       4.907   4.423  14.765  0.00  0.00    +0.000 C 
BRANCH  13  18
ATOM     18  C   UNL     1       5.889   4.044  12.470  0.00  0.00    +0.000 C 
ATOM     19  C   UNL     1       4.976   2.990  11.821  0.00  0.00    +0.000 C 
BRANCH  18  21
ATOM     20  C   UNL     1       7.610   5.572  11.570  0.00  0.00    +0.000 C 
ATOM     21  N   UNL     1       7.166   4.197  11.761  0.00  0.00    +0.000 NA
ATOM     22  H   UNL     1       7.890   3.703  12.285  0.00  0.00    +0.000 HD
ENDBRANCH  18  21
ENDBRANCH  13  18
ENDBRANCH   1  16
BRANCH  12  23
ATOM     23  C   UNL     1       4.149   3.152  18.318  0.00  0.00    +0.000 C 
ATOM     24  F   UNL     1       4.848   2.480  17.352  0.00  0.00    +0.000 F 
ATOM     25  F   UNL     1       4.884   2.873  19.429  0.00  0.00    +0.000 F 
ATOM     26  F   UNL     1       2.980   2.457  18.426  0.00  0.00    +0.000 F 
ENDBRANCH  12  23
BRANCH  10  27
ATOM     27  C   UNL     1       2.004   3.527  20.378  0.00  0.00    +0.000 C 
ATOM     28  C   UNL     1       2.577   2.959  21.661  0.00  0.00    +0.000 C 
ATOM     29  C   UNL     1       1.107   3.145  21.533  0.00  0.00    +0.000 C 
ENDBRANCH  10  27
BRANCH   8  30
ATOM     30  C   UNL     1       0.471   7.967  21.452  0.00  0.00    +0.000 C 
ATOM     31  O   UNL     1      -0.734   7.811  21.563  0.00  0.00    +0.000 OA
BRANCH  30  32
ATOM     32  O   UNL     1       1.143   8.892  22.172  0.00  0.00    +0.000 OA
ATOM     33  H   UNL     1       1.241   9.764  21.717  0.00  0.00    +0.000 HD
ENDBRANCH  30  32
ENDBRANCH   8  30
TORSDOF 7
ENDMDL
MODEL 8
REMARK VINA RESULT:      -6.9      3.698      7.823
REMARK  Name = 
REMARK  9 active torsions:
REMARK  status: ('A' for Active; 'I' for Inactive)
REMARK    1  A    between atoms: C_1  and  N_2
REMARK    2  A    between atoms: N_2  and  C_3
REMARK    3  A    between atoms: C_3  and  C_4
REMARK    4  A    between atoms: C_3  and  C_5
REMARK    5  A    between atoms: N_8  and  C_9
REMARK    6  A    between atoms: C_16  and  C_17
REMARK    7  A    between atoms: C_17  and  O_19
REMARK    8  A    between atoms: N_21  and  C_22
REMARK    9  A    between atoms: C_26  and  C_27
REMARK                            x       y       z     vdW  Elec       q    Type
REMARK                         _______ _______ _______ _____ _____    ______ ____
ROOT
ATOM      1  C   UNL     1       1.924   7.956  19.048  0.00  0.00    +0.000 A 
ATOM      2  C   UNL     1       2.548   8.636  17.984  0.00  0.00    +0.000 A 
ATOM      3  F   UNL     1       2.191   9.886  17.657  0.00  0.00    +0.000 F 
ATOM      4  C   UNL     1       3.584   8.076  17.261  0.00  0.00    +0.000 A 
ATOM      5  C   UNL     1       4.057   6.814  17.612  0.00  0.00    +0.000 A 
ATOM      6  C   UNL     1       5.190   6.303  16.795  0.00  0.00    +0.000 A 
ATOM      7  O   UNL     1       5.677   6.957  15.875  0.00  0.00    +0.000 OA
ATOM      8  C   UNL     1       5.720   4.971  17.095  0.00  0.00    +0.000 A 
ATOM      9  C   UNL     1       5.162   4.329  18.126  0.00  0.00    +0.000 A 
ATOM     10  N   UNL     1       4.147   4.780  18.962  0.00  0.00    +0.000 N 
ATOM     11  C   UNL     1       3.498   6.047  18.680  0.00  0.00    +0.000 A 
ATOM     12  C   UNL     1       2.367   6.619  19.366  0.00  0.00    +0.000 A 
ENDROOT
BRANCH   1  16
ATOM     13  C   UNL     1       0.147  10.281  21.258  0.00  0.00    +0.000 C 
ATOM     14  C   UNL     1      -0.648  10.343  19.952  0.00  0.00    +0.000 C 
ATOM     15  C   UNL     1      -0.391   8.965  19.329  0.00  0.00    +0.000 C 
ATOM     16  N   UNL     1       0.939   8.570  19.822  0.00  0.00    +0.000 N 
ATOM     17  C   UNL     1       1.417   9.566  20.789  0.00  0.00    +0.000 C 
BRANCH  13  18
ATOM     18  C   UNL     1       0.495  11.623  21.926  0.00  0.00    +0.000 C 
ATOM     19  C   UNL     1      -0.775  12.437  22.225  0.00  0.00    +0.000 C 
BRANCH  18  21
ATOM     20  C   UNL     1       1.031  13.663  20.638  0.00  0.00    +0.000 C 
ATOM     21  N   UNL     1       1.503  12.400  21.191  0.00  0.00    +0.000 NA
ATOM     22  H   UNL     1       2.279  12.604  21.822  0.00  0.00    +0.000 HD
ENDBRANCH  18  21
ENDBRANCH  13  18
ENDBRANCH   1  16
BRANCH  12  23
ATOM     23  C   UNL     1       1.572   5.874  20.428  0.00  0.00    +0.000 C 
ATOM     24  F   UNL     1       0.599   6.575  21.088  0.00  0.00    +0.000 F 
ATOM     25  F   UNL     1       0.865   4.816  19.946  0.00  0.00    +0.000 F 
ATOM     26  F   UNL     1       2.374   5.400  21.424  0.00  0.00    +0.000 F 
ENDBRANCH  12  23
BRANCH  10  27
ATOM     27  C   UNL     1       3.683   3.796  19.967  0.00  0.00    +0.000 C 
ATOM     28  C   UNL     1       2.898   2.528  19.697  0.00  0.00    +0.000 C 
ATOM     29  C   UNL     1       4.334   2.436  20.076  0.00  0.00    +0.000 C 
ENDBRANCH  10  27
BRANCH   8  30
ATOM     30  C   UNL     1       6.794   4.314  16.325  0.00  0.00    +0.000 C 
ATOM     31  O   UNL     1       7.922   4.143  16.760  0.00  0.00    +0.000 OA
BRANCH  30  32
ATOM     32  O   UNL     1       6.433   3.907  15.089  0.00  0.00    +0.000 OA
ATOM     33  H   UNL     1       6.072   2.988  15.056  0.00  0.00    +0.000 HD
ENDBRANCH  30  32
ENDBRANCH   8  30
TORSDOF 7
ENDMDL
MODEL 9
REMARK VINA RESULT:      -6.8      3.930      7.839
REMARK  Name = 
REMARK  9 active torsions:
REMARK  status: ('A' for Active; 'I' for Inactive)
REMARK    1  A    between atoms: C_1  and  N_2
REMARK    2  A    between atoms: N_2  and  C_3
REMARK    3  A    between atoms: C_3  and  C_4
REMARK    4  A    between atoms: C_3  and  C_5
REMARK    5  A    between atoms: N_8  and  C_9
REMARK    6  A    between atoms: C_16  and  C_17
REMARK    7  A    between atoms: C_17  and  O_19
REMARK    8  A    between atoms: N_21  and  C_22
REMARK    9  A    between atoms: C_26  and  C_27
REMARK                            x       y       z     vdW  Elec       q    Type
REMARK                         _______ _______ _______ _____ _____    ______ ____
ROOT
ATOM      1  C   UNL     1       1.704   7.894  19.599  0.00  0.00    +0.000 A 
ATOM      2  C   UNL     1       1.249   7.123  20.688  0.00  0.00    +0.000 A 
ATOM      3  F   UNL     1       0.326   7.599  21.536  0.00  0.00    +0.000 F 
ATOM      4  C   UNL     1       1.689   5.832  20.907  0.00  0.00    +0.000 A 
ATOM      5  C   UNL     1       2.582   5.252  20.010  0.00  0.00    +0.000 A 
ATOM      6  C   UNL     1       2.980   3.852  20.313  0.00  0.00    +0.000 A 
ATOM      7  O   UNL     1       2.543   3.247  21.290  0.00  0.00    +0.000 OA
ATOM      8  C   UNL     1       3.937   3.190  19.422  0.00  0.00    +0.000 A 
ATOM      9  C   UNL     1       4.348   3.897  18.365  0.00  0.00    +0.000 A 
ATOM     10  N   UNL     1       3.965   5.182  17.997  0.00  0.00    +0.000 N 
ATOM     11  C   UNL     1       3.096   5.947  18.871  0.00  0.00    +0.000 A 
ATOM     12  C   UNL     1       2.683   7.319  18.709  0.00  0.00    +0.000 A 
ENDROOT
BRANCH   1  16
ATOM     13  C   UNL     1      -0.542  10.637  18.664  0.00  0.00    +0.000 C 
ATOM     14  C   UNL     1      -0.225  10.914  20.135  0.00  0.00    +0.000 C 
ATOM     15  C   UNL     1       1.156  10.269  20.315  0.00  0.00    +0.000 C 
ATOM     16  N   UNL     1       1.185   9.163  19.344  0.00  0.00    +0.000 N 
ATOM     17  C   UNL     1      -0.034   9.200  18.524  0.00  0.00    +0.000 C 
BRANCH  13  18
ATOM     18  C   UNL     1      -2.018  10.735  18.239  0.00  0.00    +0.000 C 
ATOM     19  C   UNL     1      -2.216  10.207  16.808  0.00  0.00    +0.000 C 
BRANCH  18  21
ATOM     20  C   UNL     1      -3.888  12.097  19.108  0.00  0.00    +0.000 C 
ATOM     21  N   UNL     1      -2.597  12.071  18.432  0.00  0.00    +0.000 NA
ATOM     22  H   UNL     1      -1.943  12.632  18.981  0.00  0.00    +0.000 HD
ENDBRANCH  18  21
ENDBRANCH  13  18
ENDBRANCH   1  16
BRANCH  12  23
ATOM     23  C   UNL     1       3.247   8.236  17.634  0.00  0.00    +0.000 C 
ATOM     24  F   UNL     1       3.113   7.832  16.334  0.00  0.00    +0.000 F 
ATOM     25  F   UNL     1       2.665   9.465  17.598  0.00  0.00    +0.000 F 
ATOM     26  F   UNL     1       4.589   8.432  17.785  0.00  0.00    +0.000 F 
ENDBRANCH  12  23
BRANCH  10  27
ATOM     27  C   UNL     1       4.667   5.727  16.812  0.00  0.00    +0.000 C 
ATOM     28  C   UNL     1       6.164   5.886  16.642  0.00  0.00    +0.000 C 
ATOM     29  C   UNL     1       5.449   4.819  15.891  0.00  0.00    +0.000 C 
ENDBRANCH  10  27
BRANCH   8  30
ATOM     30  C   UNL     1       4.467   1.831  19.639  0.00  0.00    +0.000 C 
ATOM     31  O   UNL     1       5.160   1.527  20.597  0.00  0.00    +0.000 OA
BRANCH  30  32
ATOM     32  O   UNL     1       4.123   0.933  18.690  0.00  0.00    +0.000 OA
ATOM     33  H   UNL     1       4.515   1.116  17.801  0.00  0.00    +0.000 HD
ENDBRANCH  30  32
ENDBRANCH   8  30
TORSDOF 7
ENDMDL
