MODEL 1
REMARK VINA RESULT:      -8.1      0.000      0.000
REMARK  Name = 
REMARK  8 active torsions:
REMARK  status: ('A' for Active; 'I' for Inactive)
REMARK    1  A    between atoms: C_1  and  C_2
REMARK    2  A    between atoms: C_5  and  S_6
REMARK    3  A    between atoms: S_6  and  N_9
REMARK    4  A    between atoms: N_9  and  C_10
REMARK    5  A    between atoms: N_9  and  C_22
REMARK    6  A    between atoms: C_10  and  C_11
REMARK    7  A    between atoms: N_13  and  C_14
REMARK    8  A    between atoms: C_27  and  C_28
REMARK                            x       y       z     vdW  Elec       q    Type
REMARK                         _______ _______ _______ _____ _____    ______ ____
ROOT
ATOM      1  N   UNL     1       3.871   5.171  18.918  0.00  0.00    +0.000 N 
ENDROOT
BRANCH   1   2
ATOM      2  C   UNL     1       2.799   4.208  18.965  0.00  0.00    +0.000 A 
ATOM      3  C   UNL     1       2.563   3.370  17.868  0.00  0.00    +0.000 A 
ATOM      4  C   UNL     1       1.462   2.512  17.854  0.00  0.00    +0.000 A 
ATOM      5  C   UNL     1       0.597   2.470  18.942  0.00  0.00    +0.000 A 
ATOM      6  C   UNL     1       0.848   3.266  20.057  0.00  0.00    +0.000 A 
ATOM      7  C   UNL     1       1.948   4.142  20.088  0.00  0.00    +0.000 A 
ATOM      8  C   UNL     1       2.182   4.928  21.349  0.00  0.00    +0.000 C 
ENDBRANCH   1   2
BRANCH   1   9
ATOM      9  S   UNL     1       5.475   4.590  19.028  0.00  0.00    +0.000 S 
ATOM     10  O   UNL     1       5.442   3.253  19.588  0.00  0.00    +0.000 OA
ATOM     11  O   UNL     1       6.252   5.624  19.683  0.00  0.00    +0.000 OA
BRANCH   9  16
ATOM     12  C   UNL     1       7.085   4.868  13.167  0.00  0.00    +0.000 C 
ATOM     13  C   UNL     1       6.826   4.666  14.635  0.00  0.00    +0.000 A 
ATOM     14  C   UNL     1       5.867   3.739  15.064  0.00  0.00    +0.000 A 
ATOM     15  C   UNL     1       5.517   3.640  16.419  0.00  0.00    +0.000 A 
ATOM     16  C   UNL     1       6.149   4.453  17.369  0.00  0.00    +0.000 A 
ATOM     17  C   UNL     1       7.125   5.366  16.949  0.00  0.00    +0.000 A 
ATOM     18  C   UNL     1       7.456   5.474  15.589  0.00  0.00    +0.000 A 
ENDBRANCH   9  16
ENDBRANCH   1   9
BRANCH   1  19
ATOM     19  C   UNL     1       3.665   6.363  18.056  0.00  0.00    +0.000 C 
BRANCH  19  20
ATOM     20  C   UNL     1       2.308   7.048  18.186  0.00  0.00    +0.000 C 
ATOM     21  O   UNL     1       1.356   6.641  17.522  0.00  0.00    +0.000 OA
ATOM     22  N   UNL     1       2.307   8.191  18.967  0.00  0.00    +0.000 N 
ATOM     23  H   UNL     1       3.204   8.483  19.344  0.00  0.00    +0.000 HD
BRANCH  22  24
ATOM     24  C   UNL     1       1.230   9.098  19.158  0.00  0.00    +0.000 A 
ATOM     25  C   UNL     1       0.645   9.813  18.109  0.00  0.00    +0.000 A 
ATOM     26  C   UNL     1      -0.357  10.759  18.355  0.00  0.00    +0.000 A 
ATOM     27  C   UNL     1      -0.794  10.990  19.655  0.00  0.00    +0.000 A 
ATOM     28 CL   UNL     1      -1.983  12.197  19.957  0.00  0.00    +0.000 Cl
ATOM     29  C   UNL     1      -0.267  10.256  20.711  0.00  0.00    +0.000 A 
ATOM     30  C   UNL     1       0.733   9.310  20.461  0.00  0.00    +0.000 A 
ATOM     31 CL   UNL     1       1.372   8.438  21.812  0.00  0.00    +0.000 Cl
ENDBRANCH  22  24
ENDBRANCH  19  20
ENDBRANCH   1  19
TORSDOF 6
ENDMDL
MODEL 2
REMARK VINA RESULT:      -8.0      1.342      2.269
REMARK  Name = 
REMARK  8 active torsions:
REMARK  status: ('A' for Active; 'I' for Inactive)
REMARK    1  A    between atoms: C_1  and  C_2
REMARK    2  A    between atoms: C_5  and  S_6
REMARK    3  A    between atoms: S_6  and  N_9
REMARK    4  A    between atoms: N_9  and  C_10
REMARK    5  A    between atoms: N_9  and  C_22
REMARK    6  A    between atoms: C_10  and  C_11
REMARK    7  A    between atoms: N_13  and  C_14
REMARK    8  A    between atoms: C_27  and  C_28
REMARK                            x       y       z     vdW  Elec       q    Type
REMARK                         _______ _______ _______ _____ _____    ______ ____
ROOT
ATOM      1  N   UNL     1       3.664   5.345  19.106  0.00  0.00    +0.000 N 
ENDROOT
BRANCH   1   2
ATOM      2  C   UNL     1       2.714   4.447  19.714  0.00  0.00    +0.000 A 
ATOM      3  C   UNL     1       2.650   4.336  21.108  0.00  0.00    +0.000 A 
ATOM      4  C   UNL     1       1.815   3.391  21.708  0.00  0.00    +0.000 A 
ATOM      5  C   UNL     1       1.024   2.561  20.921  0.00  0.00    +0.000 A 
ATOM      6  C   UNL     1       1.046   2.693  19.535  0.00  0.00    +0.000 A 
ATOM      7  C   UNL     1       1.885   3.634  18.911  0.00  0.00    +0.000 A 
ATOM      8  C   UNL     1       1.812   3.755  17.414  0.00  0.00    +0.000 C 
ENDBRANCH   1   2
BRANCH   1   9
ATOM      9  S   UNL     1       5.259   4.779  18.862  0.00  0.00    +0.000 S 
ATOM     10  O   UNL     1       5.296   3.363  19.172  0.00  0.00    +0.000 OA
ATOM     11  O   UNL     1       6.140   5.691  19.563  0.00  0.00    +0.000 OA
BRANCH   9  16
ATOM     12  C   UNL     1       7.399   4.698  13.166  0.00  0.00    +0.000 C 
ATOM     13  C   UNL     1       6.733   4.838  14.508  0.00  0.00    +0.000 A 
ATOM     14  C   UNL     1       7.158   5.820  15.412  0.00  0.00    +0.000 A 
ATOM     15  C   UNL     1       6.642   5.871  16.716  0.00  0.00    +0.000 A 
ATOM     16  C   UNL     1       5.666   4.951  17.121  0.00  0.00    +0.000 A 
ATOM     17  C   UNL     1       5.220   3.981  16.214  0.00  0.00    +0.000 A 
ATOM     18  C   UNL     1       5.756   3.923  14.919  0.00  0.00    +0.000 A 
ENDBRANCH   9  16
ENDBRANCH   1   9
BRANCH   1  19
ATOM     19  C   UNL     1       3.139   6.283  18.082  0.00  0.00    +0.000 C 
BRANCH  19  20
ATOM     20  C   UNL     1       2.649   7.630  18.605  0.00  0.00    +0.000 C 
ATOM     21  O   UNL     1       3.192   8.664  18.221  0.00  0.00    +0.000 OA
ATOM     22  N   UNL     1       1.692   7.552  19.602  0.00  0.00    +0.000 N 
ATOM     23  H   UNL     1       1.437   6.619  19.915  0.00  0.00    +0.000 HD
BRANCH  22  24
ATOM     24  C   UNL     1       1.153   8.627  20.359  0.00  0.00    +0.000 A 
ATOM     25  C   UNL     1       1.329   8.744  21.742  0.00  0.00    +0.000 A 
ATOM     26  C   UNL     1       0.709   9.774  22.460  0.00  0.00    +0.000 A 
ATOM     27  C   UNL     1      -0.084  10.706  21.798  0.00  0.00    +0.000 A 
ATOM     28 CL   UNL     1      -0.891  11.933  22.695  0.00  0.00    +0.000 Cl
ATOM     29  C   UNL     1      -0.232  10.644  20.418  0.00  0.00    +0.000 A 
ATOM     30  C   UNL     1       0.391   9.616  19.703  0.00  0.00    +0.000 A 
ATOM     31 CL   UNL     1       0.157   9.570  17.990  0.00  0.00    +0.000 Cl
ENDBRANCH  22  24
ENDBRANCH  19  20
ENDBRANCH   1  19
TORSDOF 6
ENDMDL
MODEL 3
REMARK VINA RESULT:      -8.0      1.016      1.336
REMARK  Name = 
REMARK  8 active torsions:
REMARK  status: ('A' for Active; 'I' for Inactive)
REMARK    1  A    between atoms: C_1  and  C_2
REMARK    2  A    between atoms: C_5  and  S_6
REMARK    3  A    between atoms: S_6  and  N_9
REMARK    4  A    between atoms: N_9  and  C_10
REMARK    5  A    between atoms: N_9  and  C_22
REMARK    6  A    between atoms: C_10  and  C_11
REMARK    7  A    between atoms: N_13  and  C_14
REMARK    8  A    between atoms: C_27  and  C_28
REMARK                            x       y       z     vdW  Elec       q    Type
REMARK                         _______ _______ _______ _____ _____    ______ ____
ROOT
ATOM      1  N   UNL     1       3.779   5.097  18.930  0.00  0.00    +0.000 N 
ENDROOT
BRANCH   1   2
ATOM      2  C   UNL     1       2.719   4.125  19.035  0.00  0.00    +0.000 A 
ATOM      3  C   UNL     1       2.395   3.323  17.933  0.00  0.00    +0.000 A 
ATOM      4  C   UNL     1       1.301   2.457  17.983  0.00  0.00    +0.000 A 
ATOM      5  C   UNL     1       0.532   2.372  19.138  0.00  0.00    +0.000 A 
ATOM      6  C   UNL     1       0.872   3.131  20.255  0.00  0.00    +0.000 A 
ATOM      7  C   UNL     1       1.967   4.014  20.223  0.00  0.00    +0.000 A 
ATOM      8  C   UNL     1       2.303   4.758  21.486  0.00  0.00    +0.000 C 
ENDBRANCH   1   2
BRANCH   1   9
ATOM      9  S   UNL     1       5.392   4.535  19.008  0.00  0.00    +0.000 S 
ATOM     10  O   UNL     1       5.390   3.214  19.605  0.00  0.00    +0.000 OA
ATOM     11  O   UNL     1       6.177   5.595  19.610  0.00  0.00    +0.000 OA
BRANCH   9  16
ATOM     12  C   UNL     1       7.093   4.866  13.175  0.00  0.00    +0.000 C 
ATOM     13  C   UNL     1       6.765   4.613  14.621  0.00  0.00    +0.000 A 
ATOM     14  C   UNL     1       5.566   3.980  14.976  0.00  0.00    +0.000 A 
ATOM     15  C   UNL     1       5.184   3.865  16.321  0.00  0.00    +0.000 A 
ATOM     16  C   UNL     1       6.017   4.359  17.333  0.00  0.00    +0.000 A 
ATOM     17  C   UNL     1       7.227   4.973  16.986  0.00  0.00    +0.000 A 
ATOM     18  C   UNL     1       7.594   5.103  15.638  0.00  0.00    +0.000 A 
ENDBRANCH   9  16
ENDBRANCH   1   9
BRANCH   1  19
ATOM     19  C   UNL     1       3.534   6.263  18.044  0.00  0.00    +0.000 C 
BRANCH  19  20
ATOM     20  C   UNL     1       2.306   7.103  18.377  0.00  0.00    +0.000 C 
ATOM     21  O   UNL     1       1.405   7.217  17.547  0.00  0.00    +0.000 OA
ATOM     22  N   UNL     1       2.380   7.793  19.576  0.00  0.00    +0.000 N 
ATOM     23  H   UNL     1       3.250   7.707  20.095  0.00  0.00    +0.000 HD
BRANCH  22  24
ATOM     24  C   UNL     1       1.451   8.744  20.076  0.00  0.00    +0.000 A 
ATOM     25  C   UNL     1       0.697   8.531  21.234  0.00  0.00    +0.000 A 
ATOM     26  C   UNL     1      -0.268   9.459  21.644  0.00  0.00    +0.000 A 
ATOM     27  C   UNL     1      -0.480  10.618  20.904  0.00  0.00    +0.000 A 
ATOM     28 CL   UNL     1      -1.710  11.724  21.379  0.00  0.00    +0.000 Cl
ATOM     29  C   UNL     1       0.292  10.879  19.778  0.00  0.00    +0.000 A 
ATOM     30  C   UNL     1       1.257   9.952  19.373  0.00  0.00    +0.000 A 
ATOM     31 CL   UNL     1       2.176  10.314  17.953  0.00  0.00    +0.000 Cl
ENDBRANCH  22  24
ENDBRANCH  19  20
ENDBRANCH   1  19
TORSDOF 6
ENDMDL
MODEL 4
REMARK VINA RESULT:      -7.9      1.095      1.095
REMARK  Name = 
REMARK  8 active torsions:
REMARK  status: ('A' for Active; 'I' for Inactive)
REMARK    1  A    between atoms: C_1  and  C_2
REMARK    2  A    between atoms: C_5  and  S_6
REMARK    3  A    between atoms: S_6  and  N_9
REMARK    4  A    between atoms: N_9  and  C_10
REMARK    5  A    between atoms: N_9  and  C_22
REMARK    6  A    between atoms: C_10  and  C_11
REMARK    7  A    between atoms: N_13  and  C_14
REMARK    8  A    between atoms: C_27  and  C_28
REMARK                            x       y       z     vdW  Elec       q    Type
REMARK                         _______ _______ _______ _____ _____    ______ ____
ROOT
ATOM      1  N   UNL     1       3.605   4.963  18.698  0.00  0.00    +0.000 N 
ENDROOT
BRANCH   1   2
ATOM      2  C   UNL     1       2.596   3.984  19.020  0.00  0.00    +0.000 A 
ATOM      3  C   UNL     1       2.162   3.080  18.042  0.00  0.00    +0.000 A 
ATOM      4  C   UNL     1       1.108   2.202  18.305  0.00  0.00    +0.000 A 
ATOM      5  C   UNL     1       0.492   2.206  19.552  0.00  0.00    +0.000 A 
ATOM      6  C   UNL     1       0.945   3.070  20.546  0.00  0.00    +0.000 A 
ATOM      7  C   UNL     1       2.000   3.966  20.299  0.00  0.00    +0.000 A 
ATOM      8  C   UNL     1       2.469   4.828  21.440  0.00  0.00    +0.000 C 
ENDBRANCH   1   2
BRANCH   1   9
ATOM      9  S   UNL     1       5.243   4.526  18.917  0.00  0.00    +0.000 S 
ATOM     10  O   UNL     1       5.290   3.200  19.502  0.00  0.00    +0.000 OA
ATOM     11  O   UNL     1       5.885   5.634  19.596  0.00  0.00    +0.000 OA
BRANCH   9  16
ATOM     12  C   UNL     1       7.229   4.905  13.178  0.00  0.00    +0.000 C 
ATOM     13  C   UNL     1       6.879   4.681  14.624  0.00  0.00    +0.000 A 
ATOM     14  C   UNL     1       5.916   3.727  14.980  0.00  0.00    +0.000 A 
ATOM     15  C   UNL     1       5.480   3.605  16.308  0.00  0.00    +0.000 A 
ATOM     16  C   UNL     1       6.027   4.423  17.305  0.00  0.00    +0.000 A 
ATOM     17  C   UNL     1       7.007   5.363  16.959  0.00  0.00    +0.000 A 
ATOM     18  C   UNL     1       7.424   5.493  15.626  0.00  0.00    +0.000 A 
ENDBRANCH   9  16
ENDBRANCH   1   9
BRANCH   1  19
ATOM     19  C   UNL     1       3.317   5.873  17.561  0.00  0.00    +0.000 C 
BRANCH  19  20
ATOM     20  C   UNL     1       3.221   7.356  17.906  0.00  0.00    +0.000 C 
ATOM     21  O   UNL     1       4.241   8.042  17.922  0.00  0.00    +0.000 OA
ATOM     22  N   UNL     1       1.967   7.778  18.315  0.00  0.00    +0.000 N 
ATOM     23  H   UNL     1       1.248   7.063  18.382  0.00  0.00    +0.000 HD
BRANCH  22  24
ATOM     24  C   UNL     1       1.615   9.059  18.817  0.00  0.00    +0.000 A 
ATOM     25  C   UNL     1       1.751  10.231  18.066  0.00  0.00    +0.000 A 
ATOM     26  C   UNL     1       1.472  11.482  18.631  0.00  0.00    +0.000 A 
ATOM     27  C   UNL     1       1.042  11.571  19.950  0.00  0.00    +0.000 A 
ATOM     28 CL   UNL     1       0.760  13.115  20.656  0.00  0.00    +0.000 Cl
ATOM     29  C   UNL     1       0.848  10.418  20.702  0.00  0.00    +0.000 A 
ATOM     30  C   UNL     1       1.125   9.170  20.135  0.00  0.00    +0.000 A 
ATOM     31 CL   UNL     1       0.889   7.768  21.119  0.00  0.00    +0.000 Cl
ENDBRANCH  22  24
ENDBRANCH  19  20
ENDBRANCH   1  19
TORSDOF 6
ENDMDL
MODEL 5
REMARK VINA RESULT:      -7.7      1.335      1.754
REMARK  Name = 
REMARK  8 active torsions:
REMARK  status: ('A' for Active; 'I' for Inactive)
REMARK    1  A    between atoms: C_1  and  C_2
REMARK    2  A    between atoms: C_5  and  S_6
REMARK    3  A    between atoms: S_6  and  N_9
REMARK    4  A    between atoms: N_9  and  C_10
REMARK    5  A    between atoms: N_9  and  C_22
REMARK    6  A    between atoms: C_10  and  C_11
REMARK    7  A    between atoms: N_13  and  C_14
REMARK    8  A    between atoms: C_27  and  C_28
REMARK                            x       y       z     vdW  Elec       q    Type
REMARK                         _______ _______ _______ _____ _____    ______ ____
ROOT
ATOM      1  N   UNL     1       3.496   5.286  19.090  0.00  0.00    +0.000 N 
ENDROOT
BRANCH   1   2
ATOM      2  C   UNL     1       2.504   4.239  19.136  0.00  0.00    +0.000 A 
ATOM      3  C   UNL     1       1.979   3.722  17.945  0.00  0.00    +0.000 A 
ATOM      4  C   UNL     1       0.940   2.791  17.974  0.00  0.00    +0.000 A 
ATOM      5  C   UNL     1       0.429   2.354  19.191  0.00  0.00    +0.000 A 
ATOM      6  C   UNL     1       0.974   2.827  20.381  0.00  0.00    +0.000 A 
ATOM      7  C   UNL     1       2.017   3.771  20.374  0.00  0.00    +0.000 A 
ATOM      8  C   UNL     1       2.590   4.192  21.700  0.00  0.00    +0.000 C 
ENDBRANCH   1   2
BRANCH   1   9
ATOM      9  S   UNL     1       5.134   4.830  18.913  0.00  0.00    +0.000 S 
ATOM     10  O   UNL     1       5.264   3.433  19.280  0.00  0.00    +0.000 OA
ATOM     11  O   UNL     1       5.925   5.830  19.602  0.00  0.00    +0.000 OA
BRANCH   9  16
ATOM     12  C   UNL     1       7.175   4.420  13.195  0.00  0.00    +0.000 C 
ATOM     13  C   UNL     1       6.575   4.680  14.550  0.00  0.00    +0.000 A 
ATOM     14  C   UNL     1       7.269   5.443  15.499  0.00  0.00    +0.000 A 
ATOM     15  C   UNL     1       6.786   5.575  16.810  0.00  0.00    +0.000 A 
ATOM     16  C   UNL     1       5.580   4.966  17.179  0.00  0.00    +0.000 A 
ATOM     17  C   UNL     1       4.870   4.220  16.229  0.00  0.00    +0.000 A 
ATOM     18  C   UNL     1       5.369   4.075  14.925  0.00  0.00    +0.000 A 
ENDBRANCH   9  16
ENDBRANCH   1   9
BRANCH   1  19
ATOM     19  C   UNL     1       3.097   6.559  18.440  0.00  0.00    +0.000 C 
BRANCH  19  20
ATOM     20  C   UNL     1       2.346   7.550  19.324  0.00  0.00    +0.000 C 
ATOM     21  O   UNL     1       2.047   7.231  20.474  0.00  0.00    +0.000 OA
ATOM     22  N   UNL     1       1.938   8.708  18.684  0.00  0.00    +0.000 N 
ATOM     23  H   UNL     1       2.141   8.772  17.690  0.00  0.00    +0.000 HD
BRANCH  22  24
ATOM     24  C   UNL     1       1.117   9.738  19.216  0.00  0.00    +0.000 A 
ATOM     25  C   UNL     1       0.076   9.489  20.115  0.00  0.00    +0.000 A 
ATOM     26  C   UNL     1      -0.762  10.523  20.548  0.00  0.00    +0.000 A 
ATOM     27  C   UNL     1      -0.559  11.822  20.094  0.00  0.00    +0.000 A 
ATOM     28 CL   UNL     1      -1.629  13.078  20.582  0.00  0.00    +0.000 Cl
ATOM     29  C   UNL     1       0.501  12.106  19.241  0.00  0.00    +0.000 A 
ATOM     30  C   UNL     1       1.338  11.071  18.812  0.00  0.00    +0.000 A 
ATOM     31 CL   UNL     1       2.629  11.473  17.733  0.00  0.00    +0.000 Cl
ENDBRANCH  22  24
ENDBRANCH  19  20
ENDBRANCH   1  19
TORSDOF 6
ENDMDL
MODEL 6
REMARK VINA RESULT:      -7.7      1.366      1.931
REMARK  Name = 
REMARK  8 active torsions:
REMARK  status: ('A' for Active; 'I' for Inactive)
REMARK    1  A    between atoms: C_1  and  C_2
REMARK    2  A    between atoms: C_5  and  S_6
REMARK    3  A    between atoms: S_6  and  N_9
REMARK    4  A    between atoms: N_9  and  C_10
REMARK    5  A    between atoms: N_9  and  C_22
REMARK    6  A    between atoms: C_10  and  C_11
REMARK    7  A    between atoms: N_13  and  C_14
REMARK    8  A    between atoms: C_27  and  C_28
REMARK                            x       y       z     vdW  Elec       q    Type
REMARK                         _______ _______ _______ _____ _____    ______ ____
ROOT
ATOM      1  N   UNL     1       3.503   5.355  18.576  0.00  0.00    +0.000 N 
ENDROOT
BRANCH   1   2
ATOM      2  C   UNL     1       2.594   4.279  18.887  0.00  0.00    +0.000 A 
ATOM      3  C   UNL     1       2.167   3.411  17.874  0.00  0.00    +0.000 A 
ATOM      4  C   UNL     1       1.202   2.436  18.136  0.00  0.00    +0.000 A 
ATOM      5  C   UNL     1       0.670   2.307  19.414  0.00  0.00    +0.000 A 
ATOM      6  C   UNL     1       1.121   3.136  20.439  0.00  0.00    +0.000 A 
ATOM      7  C   UNL     1       2.087   4.129  20.194  0.00  0.00    +0.000 A 
ATOM      8  C   UNL     1       2.562   4.946  21.364  0.00  0.00    +0.000 C 
ENDBRANCH   1   2
BRANCH   1   9
ATOM      9  S   UNL     1       5.164   4.982  18.427  0.00  0.00    +0.000 S 
ATOM     10  O   UNL     1       5.385   3.650  18.955  0.00  0.00    +0.000 OA
ATOM     11  O   UNL     1       5.897   6.105  18.978  0.00  0.00    +0.000 OA
BRANCH   9  16
ATOM     12  C   UNL     1       7.000   3.908  12.725  0.00  0.00    +0.000 C 
ATOM     13  C   UNL     1       6.471   4.338  14.067  0.00  0.00    +0.000 A 
ATOM     14  C   UNL     1       7.283   5.064  14.948  0.00  0.00    +0.000 A 
ATOM     15  C   UNL     1       6.853   5.351  16.253  0.00  0.00    +0.000 A 
ATOM     16  C   UNL     1       5.585   4.936  16.681  0.00  0.00    +0.000 A 
ATOM     17  C   UNL     1       4.759   4.230  15.796  0.00  0.00    +0.000 A 
ATOM     18  C   UNL     1       5.204   3.929  14.500  0.00  0.00    +0.000 A 
ENDBRANCH   9  16
ENDBRANCH   1   9
BRANCH   1  19
ATOM     19  C   UNL     1       2.991   6.430  17.689  0.00  0.00    +0.000 C 
BRANCH  19  20
ATOM     20  C   UNL     1       2.575   7.722  18.383  0.00  0.00    +0.000 C 
ATOM     21  O   UNL     1       3.224   8.750  18.193  0.00  0.00    +0.000 OA
ATOM     22  N   UNL     1       1.548   7.584  19.302  0.00  0.00    +0.000 N 
ATOM     23  H   UNL     1       1.198   6.642  19.452  0.00  0.00    +0.000 HD
BRANCH  22  24
ATOM     24  C   UNL     1       1.046   8.579  20.183  0.00  0.00    +0.000 A 
ATOM     25  C   UNL     1       1.292   8.567  21.560  0.00  0.00    +0.000 A 
ATOM     26  C   UNL     1       0.707   9.520  22.402  0.00  0.00    +0.000 A 
ATOM     27  C   UNL     1      -0.121  10.504  21.873  0.00  0.00    +0.000 A 
ATOM     28 CL   UNL     1      -0.885  11.635  22.921  0.00  0.00    +0.000 Cl
ATOM     29  C   UNL     1      -0.340  10.571  20.502  0.00  0.00    +0.000 A 
ATOM     30  C   UNL     1       0.248   9.619  19.663  0.00  0.00    +0.000 A 
ATOM     31 CL   UNL     1      -0.074   9.732  17.967  0.00  0.00    +0.000 Cl
ENDBRANCH  22  24
ENDBRANCH  19  20
ENDBRANCH   1  19
TORSDOF 6
ENDMDL
MODEL 7
REMARK VINA RESULT:      -7.7      1.614      2.264
REMARK  Name = 
REMARK  8 active torsions:
REMARK  status: ('A' for Active; 'I' for Inactive)
REMARK    1  A    between atoms: C_1  and  C_2
REMARK    2  A    between atoms: C_5  and  S_6
REMARK    3  A    between atoms: S_6  and  N_9
REMARK    4  A    between atoms: N_9  and  C_10
REMARK    5  A    between atoms: N_9  and  C_22
REMARK    6  A    between atoms: C_10  and  C_11
REMARK    7  A    between atoms: N_13  and  C_14
REMARK    8  A    between atoms: C_27  and  C_28
REMARK                            x       y       z     vdW  Elec       q    Type
REMARK                         _______ _______ _______ _____ _____    ______ ____
ROOT
ATOM      1  N   UNL     1       3.462   5.743  19.282  0.00  0.00    +0.000 N 
ENDROOT
BRANCH   1   2
ATOM      2  C   UNL     1       2.581   4.714  19.776  0.00  0.00    +0.000 A 
ATOM      3  C   UNL     1       2.577   4.393  21.139  0.00  0.00    +0.000 A 
ATOM      4  C   UNL     1       1.814   3.325  21.615  0.00  0.00    +0.000 A 
ATOM      5  C   UNL     1       1.034   2.580  20.737  0.00  0.00    +0.000 A 
ATOM      6  C   UNL     1       0.995   2.920  19.387  0.00  0.00    +0.000 A 
ATOM      7  C   UNL     1       1.762   3.987  18.887  0.00  0.00    +0.000 A 
ATOM      8  C   UNL     1       1.623   4.326  17.428  0.00  0.00    +0.000 C 
ENDBRANCH   1   2
BRANCH   1   9
ATOM      9  S   UNL     1       5.049   5.292  18.837  0.00  0.00    +0.000 S 
ATOM     10  O   UNL     1       5.399   4.078  19.547  0.00  0.00    +0.000 OA
ATOM     11  O   UNL     1       5.877   6.473  18.983  0.00  0.00    +0.000 OA
BRANCH   9  16
ATOM     12  C   UNL     1       6.112   3.877  13.015  0.00  0.00    +0.000 C 
ATOM     13  C   UNL     1       5.662   4.231  14.406  0.00  0.00    +0.000 A 
ATOM     14  C   UNL     1       5.597   5.572  14.810  0.00  0.00    +0.000 A 
ATOM     15  C   UNL     1       5.314   5.909  16.142  0.00  0.00    +0.000 A 
ATOM     16  C   UNL     1       5.063   4.903  17.083  0.00  0.00    +0.000 A 
ATOM     17  C   UNL     1       5.104   3.561  16.680  0.00  0.00    +0.000 A 
ATOM     18  C   UNL     1       5.407   3.230  15.351  0.00  0.00    +0.000 A 
ENDBRANCH   9  16
ENDBRANCH   1   9
BRANCH   1  19
ATOM     19  C   UNL     1       2.841   6.829  18.481  0.00  0.00    +0.000 C 
BRANCH  19  20
ATOM     20  C   UNL     1       2.161   7.936  19.280  0.00  0.00    +0.000 C 
ATOM     21  O   UNL     1       2.007   7.803  20.493  0.00  0.00    +0.000 OA
ATOM     22  N   UNL     1       1.640   8.967  18.517  0.00  0.00    +0.000 N 
ATOM     23  H   UNL     1       1.725   8.873  17.508  0.00  0.00    +0.000 HD
BRANCH  22  24
ATOM     24  C   UNL     1       0.848  10.055  18.972  0.00  0.00    +0.000 A 
ATOM     25  C   UNL     1      -0.345   9.881  19.680  0.00  0.00    +0.000 A 
ATOM     26  C   UNL     1      -1.137  10.980  20.035  0.00  0.00    +0.000 A 
ATOM     27  C   UNL     1      -0.735  12.267  19.696  0.00  0.00    +0.000 A 
ATOM     28 CL   UNL     1      -1.743  13.608  20.082  0.00  0.00    +0.000 Cl
ATOM     29  C   UNL     1       0.472  12.473  19.039  0.00  0.00    +0.000 A 
ATOM     30  C   UNL     1       1.262  11.374  18.687  0.00  0.00    +0.000 A 
ATOM     31 CL   UNL     1       2.744  11.681  17.851  0.00  0.00    +0.000 Cl
ENDBRANCH  22  24
ENDBRANCH  19  20
ENDBRANCH   1  19
TORSDOF 6
ENDMDL
MODEL 8
REMARK VINA RESULT:      -7.7      1.173      1.920
REMARK  Name = 
REMARK  8 active torsions:
REMARK  status: ('A' for Active; 'I' for Inactive)
REMARK    1  A    between atoms: C_1  and  C_2
REMARK    2  A    between atoms: C_5  and  S_6
REMARK    3  A    between atoms: S_6  and  N_9
REMARK    4  A    between atoms: N_9  and  C_10
REMARK    5  A    between atoms: N_9  and  C_22
REMARK    6  A    between atoms: C_10  and  C_11
REMARK    7  A    between atoms: N_13  and  C_14
REMARK    8  A    between atoms: C_27  and  C_28
REMARK                            x       y       z     vdW  Elec       q    Type
REMARK                         _______ _______ _______ _____ _____    ______ ____
ROOT
ATOM      1  N   UNL     1       3.686   5.269  18.861  0.00  0.00    +0.000 N 
ENDROOT
BRANCH   1   2
ATOM      2  C   UNL     1       2.790   4.432  19.620  0.00  0.00    +0.000 A 
ATOM      3  C   UNL     1       2.779   4.507  21.018  0.00  0.00    +0.000 A 
ATOM      4  C   UNL     1       2.000   3.625  21.771  0.00  0.00    +0.000 A 
ATOM      5  C   UNL     1       1.212   2.674  21.133  0.00  0.00    +0.000 A 
ATOM      6  C   UNL     1       1.180   2.621  19.742  0.00  0.00    +0.000 A 
ATOM      7  C   UNL     1       1.962   3.495  18.966  0.00  0.00    +0.000 A 
ATOM      8  C   UNL     1       1.831   3.411  17.470  0.00  0.00    +0.000 C 
ENDBRANCH   1   2
BRANCH   1   9
ATOM      9  S   UNL     1       5.285   4.717  18.618  0.00  0.00    +0.000 S 
ATOM     10  O   UNL     1       5.350   3.318  18.993  0.00  0.00    +0.000 OA
ATOM     11  O   UNL     1       6.161   5.675  19.262  0.00  0.00    +0.000 OA
BRANCH   9  16
ATOM     12  C   UNL     1       7.121   4.192  12.841  0.00  0.00    +0.000 C 
ATOM     13  C   UNL     1       6.565   4.476  14.210  0.00  0.00    +0.000 A 
ATOM     14  C   UNL     1       7.277   5.280  15.110  0.00  0.00    +0.000 A 
ATOM     15  C   UNL     1       6.840   5.439  16.434  0.00  0.00    +0.000 A 
ATOM     16  C   UNL     1       5.664   4.814  16.865  0.00  0.00    +0.000 A 
ATOM     17  C   UNL     1       4.935   4.026  15.963  0.00  0.00    +0.000 A 
ATOM     18  C   UNL     1       5.389   3.855  14.646  0.00  0.00    +0.000 A 
ENDBRANCH   9  16
ENDBRANCH   1   9
BRANCH   1  19
ATOM     19  C   UNL     1       3.089   6.055  17.751  0.00  0.00    +0.000 C 
BRANCH  19  20
ATOM     20  C   UNL     1       2.951   7.554  17.999  0.00  0.00    +0.000 C 
ATOM     21  O   UNL     1       3.899   8.299  17.759  0.00  0.00    +0.000 OA
ATOM     22  N   UNL     1       1.773   7.934  18.620  0.00  0.00    +0.000 N 
ATOM     23  H   UNL     1       1.137   7.186  18.883  0.00  0.00    +0.000 HD
BRANCH  22  24
ATOM     24  C   UNL     1       1.431   9.231  19.088  0.00  0.00    +0.000 A 
ATOM     25  C   UNL     1       1.502  10.371  18.282  0.00  0.00    +0.000 A 
ATOM     26  C   UNL     1       1.237  11.641  18.809  0.00  0.00    +0.000 A 
ATOM     27  C   UNL     1       0.885  11.781  20.147  0.00  0.00    +0.000 A 
ATOM     28 CL   UNL     1       0.619  13.350  20.802  0.00  0.00    +0.000 Cl
ATOM     29  C   UNL     1       0.755  10.659  20.957  0.00  0.00    +0.000 A 
ATOM     30  C   UNL     1       1.018   9.392  20.427  0.00  0.00    +0.000 A 
ATOM     31 CL   UNL     1       0.865   8.030  21.483  0.00  0.00    +0.000 Cl
ENDBRANCH  22  24
ENDBRANCH  19  20
ENDBRANCH   1  19
TORSDOF 6
ENDMDL
MODEL 9
REMARK VINA RESULT:      -7.7      0.502      1.321
REMARK  Name = 
REMARK  8 active torsions:
REMARK  status: ('A' for Active; 'I' for Inactive)
REMARK    1  A    between atoms: C_1  and  C_2
REMARK    2  A    between atoms: C_5  and  S_6
REMARK    3  A    between atoms: S_6  and  N_9
REMARK    4  A    between atoms: N_9  and  C_10
REMARK    5  A    between atoms: N_9  and  C_22
REMARK    6  A    between atoms: C_10  and  C_11
REMARK    7  A    between atoms: N_13  and  C_14
REMARK    8  A    between atoms: C_27  and  C_28
REMARK                            x       y       z     vdW  Elec       q    Type
REMARK                         _______ _______ _______ _____ _____    ______ ____
ROOT
ATOM      1  N   UNL     1       3.986   5.291  19.057  0.00  0.00    +0.000 N 
ENDROOT
BRANCH   1   2
ATOM      2  C   UNL     1       2.866   4.477  19.462  0.00  0.00    +0.000 A 
ATOM      3  C   UNL     1       2.406   4.531  20.784  0.00  0.00    +0.000 A 
ATOM      4  C   UNL     1       1.398   3.669  21.220  0.00  0.00    +0.000 A 
ATOM      5  C   UNL     1       0.829   2.759  20.336  0.00  0.00    +0.000 A 
ATOM      6  C   UNL     1       1.247   2.728  19.008  0.00  0.00    +0.000 A 
ATOM      7  C   UNL     1       2.266   3.583  18.551  0.00  0.00    +0.000 A 
ATOM      8  C   UNL     1       2.624   3.528  17.091  0.00  0.00    +0.000 C 
ENDBRANCH   1   2
BRANCH   1   9
ATOM      9  S   UNL     1       5.543   4.587  19.095  0.00  0.00    +0.000 S 
ATOM     10  O   UNL     1       5.422   3.231  19.594  0.00  0.00    +0.000 OA
ATOM     11  O   UNL     1       6.412   5.528  19.774  0.00  0.00    +0.000 OA
BRANCH   9  16
ATOM     12  C   UNL     1       6.903   4.902  13.172  0.00  0.00    +0.000 C 
ATOM     13  C   UNL     1       6.717   4.703  14.652  0.00  0.00    +0.000 A 
ATOM     14  C   UNL     1       5.856   3.706  15.130  0.00  0.00    +0.000 A 
ATOM     15  C   UNL     1       5.566   3.601  16.499  0.00  0.00    +0.000 A 
ATOM     16  C   UNL     1       6.163   4.479  17.413  0.00  0.00    +0.000 A 
ATOM     17  C   UNL     1       7.043   5.464  16.943  0.00  0.00    +0.000 A 
ATOM     18  C   UNL     1       7.312   5.576  15.570  0.00  0.00    +0.000 A 
ENDBRANCH   9  16
ENDBRANCH   1   9
BRANCH   1  19
ATOM     19  C   UNL     1       3.740   6.278  17.975  0.00  0.00    +0.000 C 
BRANCH  19  20
ATOM     20  C   UNL     1       2.449   7.082  18.091  0.00  0.00    +0.000 C 
ATOM     21  O   UNL     1       1.512   6.838  17.334  0.00  0.00    +0.000 OA
ATOM     22  N   UNL     1       2.503   8.141  18.982  0.00  0.00    +0.000 N 
ATOM     23  H   UNL     1       3.395   8.304  19.440  0.00  0.00    +0.000 HD
BRANCH  22  24
ATOM     24  C   UNL     1       1.506   9.130  19.198  0.00  0.00    +0.000 A 
ATOM     25  C   UNL     1       1.242  10.154  18.283  0.00  0.00    +0.000 A 
ATOM     26  C   UNL     1       0.310  11.156  18.576  0.00  0.00    +0.000 A 
ATOM     27  C   UNL     1      -0.378  11.137  19.784  0.00  0.00    +0.000 A 
ATOM     28 CL   UNL     1      -1.478  12.406  20.163  0.00  0.00    +0.000 Cl
ATOM     29  C   UNL     1      -0.174  10.103  20.689  0.00  0.00    +0.000 A 
ATOM     30  C   UNL     1       0.756   9.101  20.393  0.00  0.00    +0.000 A 
ATOM     31 CL   UNL     1       0.991   7.848  21.562  0.00  0.00    +0.000 Cl
ENDBRANCH  22  24
ENDBRANCH  19  20
ENDBRANCH   1  19
TORSDOF 6
ENDMDL
