MODEL 1
REMARK VINA RESULT:      -7.1      0.000      0.000
REMARK  Name = 
REMARK  6 active torsions:
REMARK  status: ('A' for Active; 'I' for Inactive)
REMARK    1  A    between atoms: C_1  and  N_2
REMARK    2  A    between atoms: C_7  and  C_8
REMARK    3  A    between atoms: N_10  and  N_11
REMARK    4  A    between atoms: C_12  and  C_13
REMARK    5  A    between atoms: C_17  and  O_18
REMARK    6  A    between atoms: O_18  and  C_19
REMARK                            x       y       z     vdW  Elec       q    Type
REMARK                         _______ _______ _______ _____ _____    ______ ____
ROOT
ATOM      1  N   UNL     1       8.301   8.287  18.114  0.00  0.00    +0.000 NA
ATOM      2  C   UNL     1       8.052   9.557  18.033  0.00  0.00    +0.000 C 
ENDROOT
BRANCH   2   3
ATOM      3  C   UNL     1       9.023  10.579  18.485  0.00  0.00    +0.000 A 
ATOM      4  C   UNL     1       9.622  10.472  19.744  0.00  0.00    +0.000 A 
ATOM      5  C   UNL     1      10.573  11.410  20.140  0.00  0.00    +0.000 A 
ATOM      6  C   UNL     1      10.923  12.451  19.279  0.00  0.00    +0.000 A 
ATOM      7  C   UNL     1      10.312  12.571  18.028  0.00  0.00    +0.000 A 
ATOM      8  C   UNL     1       9.360  11.634  17.625  0.00  0.00    +0.000 A 
BRANCH   7   9
ATOM      9  O   UNL     1      10.766  13.612  17.256  0.00  0.00    +0.000 OA
BRANCH   9  10
ATOM     10  C   UNL     1      10.840  14.942  17.828  0.00  0.00    +0.000 C 
ATOM     11  C   UNL     1      11.364  16.067  16.887  0.00  0.00    +0.000 C 
ATOM     12  S   UNL     1      10.168  17.247  17.572  0.00  0.00    +0.000 S 
ATOM     13  C   UNL     1       9.453  15.633  17.995  0.00  0.00    +0.000 C 
ENDBRANCH   9  10
ENDBRANCH   7   9
ENDBRANCH   2   3
BRANCH   1  16
ATOM     14  C   UNL     1       7.193   6.152  18.060  0.00  0.00    +0.000 C 
ATOM     15  O   UNL     1       7.930   5.650  18.911  0.00  0.00    +0.000 OA
ATOM     16  N   UNL     1       7.321   7.465  17.629  0.00  0.00    +0.000 N 
ATOM     17  H   UNL     1       6.695   7.818  16.913  0.00  0.00    +0.000 HD
BRANCH  14  24
ATOM     18  C   UNL     1       7.313   4.882  15.242  0.00  0.00    +0.000 C 
ATOM     19  N   UNL     1       6.199   4.846  16.165  0.00  0.00    +0.000 N 
ATOM     20  N   UNL     1       5.080   4.191  15.779  0.00  0.00    +0.000 NA
ATOM     21  C   UNL     1       4.258   4.323  16.817  0.00  0.00    +0.000 A 
ATOM     22  C   UNL     1       4.846   5.056  17.853  0.00  0.00    +0.000 A 
ATOM     23 BR   UNL     1       3.944   5.418  19.456  0.00  0.00    +0.000 Br
ATOM     24  C   UNL     1       6.119   5.401  17.430  0.00  0.00    +0.000 A 
ENDBRANCH  14  24
ENDBRANCH   1  16
TORSDOF 5
ENDMDL
MODEL 2
REMARK VINA RESULT:      -7.1      7.487      9.113
REMARK  Name = 
REMARK  6 active torsions:
REMARK  status: ('A' for Active; 'I' for Inactive)
REMARK    1  A    between atoms: C_1  and  N_2
REMARK    2  A    between atoms: C_7  and  C_8
REMARK    3  A    between atoms: N_10  and  N_11
REMARK    4  A    between atoms: C_12  and  C_13
REMARK    5  A    between atoms: C_17  and  O_18
REMARK    6  A    between atoms: O_18  and  C_19
REMARK                            x       y       z     vdW  Elec       q    Type
REMARK                         _______ _______ _______ _____ _____    ______ ____
ROOT
ATOM      1  N   UNL     1       1.763   7.869  20.394  0.00  0.00    +0.000 NA
ATOM      2  C   UNL     1       1.075   8.160  21.454  0.00  0.00    +0.000 C 
ENDROOT
BRANCH   2   3
ATOM      3  C   UNL     1       0.257   9.390  21.547  0.00  0.00    +0.000 A 
ATOM      4  C   UNL     1      -0.345   9.745  22.758  0.00  0.00    +0.000 A 
ATOM      5  C   UNL     1      -1.070  10.932  22.849  0.00  0.00    +0.000 A 
ATOM      6  C   UNL     1      -1.193  11.759  21.731  0.00  0.00    +0.000 A 
ATOM      7  C   UNL     1      -0.609  11.396  20.514  0.00  0.00    +0.000 A 
ATOM      8  C   UNL     1       0.120  10.210  20.418  0.00  0.00    +0.000 A 
BRANCH   7   9
ATOM      9  O   UNL     1      -0.765  12.307  19.498  0.00  0.00    +0.000 OA
BRANCH   9  10
ATOM     10  C   UNL     1      -1.672  12.006  18.408  0.00  0.00    +0.000 C 
ATOM     11  C   UNL     1      -1.590  10.564  17.825  0.00  0.00    +0.000 C 
ATOM     12  S   UNL     1      -3.392  10.506  17.620  0.00  0.00    +0.000 S 
ATOM     13  C   UNL     1      -3.152  11.815  18.854  0.00  0.00    +0.000 C 
ENDBRANCH   9  10
ENDBRANCH   7   9
ENDBRANCH   2   3
BRANCH   1  16
ATOM     14  C   UNL     1       2.696   5.941  19.299  0.00  0.00    +0.000 C 
ATOM     15  O   UNL     1       2.345   6.300  18.174  0.00  0.00    +0.000 OA
ATOM     16  N   UNL     1       2.446   6.685  20.444  0.00  0.00    +0.000 N 
ATOM     17  H   UNL     1       2.746   6.330  21.345  0.00  0.00    +0.000 HD
BRANCH  14  24
ATOM     18  C   UNL     1       5.656   5.419  18.568  0.00  0.00    +0.000 C 
ATOM     19  N   UNL     1       4.735   4.486  19.183  0.00  0.00    +0.000 N 
ATOM     20  N   UNL     1       5.194   3.250  19.482  0.00  0.00    +0.000 NA
ATOM     21  C   UNL     1       4.145   2.644  20.030  0.00  0.00    +0.000 A 
ATOM     22  C   UNL     1       3.028   3.484  20.077  0.00  0.00    +0.000 A 
ATOM     23 BR   UNL     1       1.387   2.925  20.792  0.00  0.00    +0.000 Br
ATOM     24  C   UNL     1       3.410   4.694  19.523  0.00  0.00    +0.000 A 
ENDBRANCH  14  24
ENDBRANCH   1  16
TORSDOF 5
ENDMDL
MODEL 3
REMARK VINA RESULT:      -7.1      1.440      1.776
REMARK  Name = 
REMARK  6 active torsions:
REMARK  status: ('A' for Active; 'I' for Inactive)
REMARK    1  A    between atoms: C_1  and  N_2
REMARK    2  A    between atoms: C_7  and  C_8
REMARK    3  A    between atoms: N_10  and  N_11
REMARK    4  A    between atoms: C_12  and  C_13
REMARK    5  A    between atoms: C_17  and  O_18
REMARK    6  A    between atoms: O_18  and  C_19
REMARK                            x       y       z     vdW  Elec       q    Type
REMARK                         _______ _______ _______ _____ _____    ______ ____
ROOT
ATOM      1  N   UNL     1       8.333   8.287  18.282  0.00  0.00    +0.000 NA
ATOM      2  C   UNL     1       8.144   9.556  18.087  0.00  0.00    +0.000 C 
ENDROOT
BRANCH   2   3
ATOM      3  C   UNL     1       9.109  10.575  18.555  0.00  0.00    +0.000 A 
ATOM      4  C   UNL     1       9.659  10.487  19.838  0.00  0.00    +0.000 A 
ATOM      5  C   UNL     1      10.605  11.423  20.251  0.00  0.00    +0.000 A 
ATOM      6  C   UNL     1      10.999  12.443  19.383  0.00  0.00    +0.000 A 
ATOM      7  C   UNL     1      10.437  12.545  18.107  0.00  0.00    +0.000 A 
ATOM      8  C   UNL     1       9.490  11.609  17.688  0.00  0.00    +0.000 A 
BRANCH   7   9
ATOM      9  O   UNL     1      10.931  13.565  17.332  0.00  0.00    +0.000 OA
BRANCH   9  10
ATOM     10  C   UNL     1      10.937  14.917  17.856  0.00  0.00    +0.000 C 
ATOM     11  C   UNL     1      11.603  15.999  16.957  0.00  0.00    +0.000 C 
ATOM     12  S   UNL     1      10.335  17.213  17.416  0.00  0.00    +0.000 S 
ATOM     13  C   UNL     1       9.548  15.621  17.794  0.00  0.00    +0.000 C 
ENDBRANCH   9  10
ENDBRANCH   7   9
ENDBRANCH   2   3
BRANCH   1  16
ATOM     14  C   UNL     1       7.296   6.123  18.118  0.00  0.00    +0.000 C 
ATOM     15  O   UNL     1       8.067   5.595  18.921  0.00  0.00    +0.000 OA
ATOM     16  N   UNL     1       7.371   7.464  17.767  0.00  0.00    +0.000 N 
ATOM     17  H   UNL     1       6.718   7.839  17.087  0.00  0.00    +0.000 HD
BRANCH  14  24
ATOM     18  C   UNL     1       4.595   5.350  19.412  0.00  0.00    +0.000 C 
ATOM     19  N   UNL     1       5.034   5.042  18.068  0.00  0.00    +0.000 N 
ATOM     20  N   UNL     1       4.191   4.346  17.272  0.00  0.00    +0.000 NA
ATOM     21  C   UNL     1       4.856   4.228  16.126  0.00  0.00    +0.000 A 
ATOM     22  C   UNL     1       6.112   4.842  16.192  0.00  0.00    +0.000 A 
ATOM     23 BR   UNL     1       7.295   4.850  14.738  0.00  0.00    +0.000 Br
ATOM     24  C   UNL     1       6.233   5.376  17.463  0.00  0.00    +0.000 A 
ENDBRANCH  14  24
ENDBRANCH   1  16
TORSDOF 5
ENDMDL
MODEL 4
REMARK VINA RESULT:      -7.1      8.058      9.567
REMARK  Name = 
REMARK  6 active torsions:
REMARK  status: ('A' for Active; 'I' for Inactive)
REMARK    1  A    between atoms: C_1  and  N_2
REMARK    2  A    between atoms: C_7  and  C_8
REMARK    3  A    between atoms: N_10  and  N_11
REMARK    4  A    between atoms: C_12  and  C_13
REMARK    5  A    between atoms: C_17  and  O_18
REMARK    6  A    between atoms: O_18  and  C_19
REMARK                            x       y       z     vdW  Elec       q    Type
REMARK                         _______ _______ _______ _____ _____    ______ ____
ROOT
ATOM      1  N   UNL     1       1.877   7.790  20.127  0.00  0.00    +0.000 NA
ATOM      2  C   UNL     1       1.108   8.144  21.110  0.00  0.00    +0.000 C 
ENDROOT
BRANCH   2   3
ATOM      3  C   UNL     1       0.350   9.416  21.096  0.00  0.00    +0.000 A 
ATOM      4  C   UNL     1       0.122  10.086  19.890  0.00  0.00    +0.000 A 
ATOM      5  C   UNL     1      -0.636  11.255  19.881  0.00  0.00    +0.000 A 
ATOM      6  C   UNL     1      -1.164  11.751  21.074  0.00  0.00    +0.000 A 
ATOM      7  C   UNL     1      -0.921  11.093  22.283  0.00  0.00    +0.000 A 
ATOM      8  C   UNL     1      -0.164   9.921  22.299  0.00  0.00    +0.000 A 
BRANCH   7   9
ATOM      9  O   UNL     1      -1.524  11.654  23.382  0.00  0.00    +0.000 OA
BRANCH   9  10
ATOM     10  C   UNL     1      -2.503  12.707  23.196  0.00  0.00    +0.000 C 
ATOM     11  C   UNL     1      -3.777  12.626  24.089  0.00  0.00    +0.000 C 
ATOM     12  S   UNL     1      -3.791  14.430  24.293  0.00  0.00    +0.000 S 
ATOM     13  C   UNL     1      -2.078  14.076  23.806  0.00  0.00    +0.000 C 
ENDBRANCH   9  10
ENDBRANCH   7   9
ENDBRANCH   2   3
BRANCH   1  16
ATOM     14  C   UNL     1       2.886   5.828  19.168  0.00  0.00    +0.000 C 
ATOM     15  O   UNL     1       2.735   6.209  18.007  0.00  0.00    +0.000 OA
ATOM     16  N   UNL     1       2.489   6.576  20.269  0.00  0.00    +0.000 N 
ATOM     17  H   UNL     1       2.625   6.202  21.202  0.00  0.00    +0.000 HD
BRANCH  14  24
ATOM     18  C   UNL     1       5.881   5.141  18.810  0.00  0.00    +0.000 C 
ATOM     19  N   UNL     1       4.843   4.266  19.314  0.00  0.00    +0.000 N 
ATOM     20  N   UNL     1       5.194   3.012  19.676  0.00  0.00    +0.000 NA
ATOM     21  C   UNL     1       4.055   2.469  20.094  0.00  0.00    +0.000 A 
ATOM     22  C   UNL     1       2.987   3.367  19.998  0.00  0.00    +0.000 A 
ATOM     23 BR   UNL     1       1.244   2.904  20.509  0.00  0.00    +0.000 Br
ATOM     24  C   UNL     1       3.499   4.548  19.487  0.00  0.00    +0.000 A 
ENDBRANCH  14  24
ENDBRANCH   1  16
TORSDOF 5
ENDMDL
MODEL 5
REMARK VINA RESULT:      -7.0      6.624      7.757
REMARK  Name = 
REMARK  6 active torsions:
REMARK  status: ('A' for Active; 'I' for Inactive)
REMARK    1  A    between atoms: C_1  and  N_2
REMARK    2  A    between atoms: C_7  and  C_8
REMARK    3  A    between atoms: N_10  and  N_11
REMARK    4  A    between atoms: C_12  and  C_13
REMARK    5  A    between atoms: C_17  and  O_18
REMARK    6  A    between atoms: O_18  and  C_19
REMARK                            x       y       z     vdW  Elec       q    Type
REMARK                         _______ _______ _______ _____ _____    ______ ____
ROOT
ATOM      1  N   UNL     1       1.745   7.911  20.540  0.00  0.00    +0.000 NA
ATOM      2  C   UNL     1       1.161   8.226  21.655  0.00  0.00    +0.000 C 
ENDROOT
BRANCH   2   3
ATOM      3  C   UNL     1       0.472   9.522  21.842  0.00  0.00    +0.000 A 
ATOM      4  C   UNL     1      -0.490   9.669  22.846  0.00  0.00    +0.000 A 
ATOM      5  C   UNL     1      -1.095  10.908  23.048  0.00  0.00    +0.000 A 
ATOM      6  C   UNL     1      -0.739  11.995  22.248  0.00  0.00    +0.000 A 
ATOM      7  C   UNL     1       0.208  11.845  21.231  0.00  0.00    +0.000 A 
ATOM      8  C   UNL     1       0.819  10.608  21.025  0.00  0.00    +0.000 A 
BRANCH   7   9
ATOM      9  O   UNL     1       0.503  12.993  20.537  0.00  0.00    +0.000 OA
BRANCH   9  10
ATOM     10  C   UNL     1       1.792  13.116  19.884  0.00  0.00    +0.000 C 
ATOM     11  C   UNL     1       1.863  14.110  18.687  0.00  0.00    +0.000 C 
ATOM     12  S   UNL     1       3.520  14.653  19.189  0.00  0.00    +0.000 S 
ATOM     13  C   UNL     1       2.839  13.925  20.706  0.00  0.00    +0.000 C 
ENDBRANCH   9  10
ENDBRANCH   7   9
ENDBRANCH   2   3
BRANCH   1  16
ATOM     14  C   UNL     1       2.830   6.136  19.331  0.00  0.00    +0.000 C 
ATOM     15  O   UNL     1       2.830   6.746  18.261  0.00  0.00    +0.000 OA
ATOM     16  N   UNL     1       2.313   6.668  20.505  0.00  0.00    +0.000 N 
ATOM     17  H   UNL     1       2.326   6.111  21.353  0.00  0.00    +0.000 HD
BRANCH  14  24
ATOM     18  C   UNL     1       5.831   5.404  19.178  0.00  0.00    +0.000 C 
ATOM     19  N   UNL     1       4.724   4.494  19.379  0.00  0.00    +0.000 N 
ATOM     20  N   UNL     1       5.005   3.179  19.521  0.00  0.00    +0.000 NA
ATOM     21  C   UNL     1       3.813   2.614  19.695  0.00  0.00    +0.000 A 
ATOM     22  C   UNL     1       2.783   3.559  19.662  0.00  0.00    +0.000 A 
ATOM     23 BR   UNL     1       0.983   3.081  19.875  0.00  0.00    +0.000 Br
ATOM     24  C   UNL     1       3.375   4.793  19.455  0.00  0.00    +0.000 A 
ENDBRANCH  14  24
ENDBRANCH   1  16
TORSDOF 5
ENDMDL
MODEL 6
REMARK VINA RESULT:      -7.0      4.668      9.397
REMARK  Name = 
REMARK  6 active torsions:
REMARK  status: ('A' for Active; 'I' for Inactive)
REMARK    1  A    between atoms: C_1  and  N_2
REMARK    2  A    between atoms: C_7  and  C_8
REMARK    3  A    between atoms: N_10  and  N_11
REMARK    4  A    between atoms: C_12  and  C_13
REMARK    5  A    between atoms: C_17  and  O_18
REMARK    6  A    between atoms: O_18  and  C_19
REMARK                            x       y       z     vdW  Elec       q    Type
REMARK                         _______ _______ _______ _____ _____    ______ ____
ROOT
ATOM      1  N   UNL     1       8.736   9.303  18.582  0.00  0.00    +0.000 NA
ATOM      2  C   UNL     1       7.994   8.706  17.701  0.00  0.00    +0.000 C 
ENDROOT
BRANCH   2   3
ATOM      3  C   UNL     1       7.435   7.355  17.931  0.00  0.00    +0.000 A 
ATOM      4  C   UNL     1       8.092   6.456  18.777  0.00  0.00    +0.000 A 
ATOM      5  C   UNL     1       7.530   5.205  19.027  0.00  0.00    +0.000 A 
ATOM      6  C   UNL     1       6.317   4.856  18.431  0.00  0.00    +0.000 A 
ATOM      7  C   UNL     1       5.669   5.745  17.570  0.00  0.00    +0.000 A 
ATOM      8  C   UNL     1       6.225   7.000  17.317  0.00  0.00    +0.000 A 
BRANCH   7   9
ATOM      9  O   UNL     1       4.465   5.305  17.076  0.00  0.00    +0.000 OA
BRANCH   9  10
ATOM     10  C   UNL     1       3.677   4.370  17.855  0.00  0.00    +0.000 C 
ATOM     11  C   UNL     1       2.567   4.990  18.753  0.00  0.00    +0.000 C 
ATOM     12  S   UNL     1       1.442   3.616  18.374  0.00  0.00    +0.000 S 
ATOM     13  C   UNL     1       2.642   3.565  17.012  0.00  0.00    +0.000 C 
ENDBRANCH   9  10
ENDBRANCH   7   9
ENDBRANCH   2   3
BRANCH   1  16
ATOM     14  C   UNL     1       9.425  11.522  19.205  0.00  0.00    +0.000 C 
ATOM     15  O   UNL     1       9.326  11.309  20.414  0.00  0.00    +0.000 OA
ATOM     16  N   UNL     1       9.155  10.559  18.242  0.00  0.00    +0.000 N 
ATOM     17  H   UNL     1       9.239  10.799  17.260  0.00  0.00    +0.000 HD
BRANCH  14  24
ATOM     18  C   UNL     1      12.331  12.578  19.124  0.00  0.00    +0.000 C 
ATOM     19  N   UNL     1      11.145  13.264  18.659  0.00  0.00    +0.000 N 
ATOM     20  N   UNL     1      11.296  14.497  18.126  0.00  0.00    +0.000 NA
ATOM     21  C   UNL     1      10.059  14.855  17.792  0.00  0.00    +0.000 A 
ATOM     22  C   UNL     1       9.129  13.861  18.111  0.00  0.00    +0.000 A 
ATOM     23 BR   UNL     1       7.297  14.061  17.767  0.00  0.00    +0.000 Br
ATOM     24  C   UNL     1       9.835  12.815  18.681  0.00  0.00    +0.000 A 
ENDBRANCH  14  24
ENDBRANCH   1  16
TORSDOF 5
ENDMDL
MODEL 7
REMARK VINA RESULT:      -6.9      4.723      9.609
REMARK  Name = 
REMARK  6 active torsions:
REMARK  status: ('A' for Active; 'I' for Inactive)
REMARK    1  A    between atoms: C_1  and  N_2
REMARK    2  A    between atoms: C_7  and  C_8
REMARK    3  A    between atoms: N_10  and  N_11
REMARK    4  A    between atoms: C_12  and  C_13
REMARK    5  A    between atoms: C_17  and  O_18
REMARK    6  A    between atoms: O_18  and  C_19
REMARK                            x       y       z     vdW  Elec       q    Type
REMARK                         _______ _______ _______ _____ _____    ______ ____
ROOT
ATOM      1  N   UNL     1       8.188   8.997  17.961  0.00  0.00    +0.000 NA
ATOM      2  C   UNL     1       8.232   7.816  18.495  0.00  0.00    +0.000 C 
ENDROOT
BRANCH   2   3
ATOM      3  C   UNL     1       7.425   6.689  17.977  0.00  0.00    +0.000 A 
ATOM      4  C   UNL     1       7.282   6.500  16.600  0.00  0.00    +0.000 A 
ATOM      5  C   UNL     1       6.562   5.406  16.122  0.00  0.00    +0.000 A 
ATOM      6  C   UNL     1       5.989   4.506  17.021  0.00  0.00    +0.000 A 
ATOM      7  C   UNL     1       6.114   4.703  18.399  0.00  0.00    +0.000 A 
ATOM      8  C   UNL     1       6.834   5.796  18.883  0.00  0.00    +0.000 A 
BRANCH   7   9
ATOM      9  O   UNL     1       5.540   3.731  19.181  0.00  0.00    +0.000 OA
BRANCH   9  10
ATOM     10  C   UNL     1       4.096   3.616  19.226  0.00  0.00    +0.000 C 
ATOM     11  C   UNL     1       3.516   2.670  20.319  0.00  0.00    +0.000 C 
ATOM     12  S   UNL     1       2.137   3.810  20.625  0.00  0.00    +0.000 S 
ATOM     13  C   UNL     1       3.384   4.863  19.830  0.00  0.00    +0.000 C 
ENDBRANCH   9  10
ENDBRANCH   7   9
ENDBRANCH   2   3
BRANCH   1  16
ATOM     14  C   UNL     1       8.901  11.280  18.223  0.00  0.00    +0.000 C 
ATOM     15  O   UNL     1       8.054  11.727  17.449  0.00  0.00    +0.000 OA
ATOM     16  N   UNL     1       9.012   9.930  18.528  0.00  0.00    +0.000 N 
ATOM     17  H   UNL     1       9.740   9.619  19.161  0.00  0.00    +0.000 HD
BRANCH  14  24
ATOM     18  C   UNL     1       9.102  11.712  21.280  0.00  0.00    +0.000 C 
ATOM     19  N   UNL     1       9.933  12.316  20.261  0.00  0.00    +0.000 N 
ATOM     20  N   UNL     1      10.910  13.161  20.661  0.00  0.00    +0.000 NA
ATOM     21  C   UNL     1      11.492  13.538  19.527  0.00  0.00    +0.000 A 
ATOM     22  C   UNL     1      10.891  12.941  18.413  0.00  0.00    +0.000 A 
ATOM     23 BR   UNL     1      11.480  13.271  16.664  0.00  0.00    +0.000 Br
ATOM     24  C   UNL     1       9.867  12.139  18.890  0.00  0.00    +0.000 A 
ENDBRANCH  14  24
ENDBRANCH   1  16
TORSDOF 5
ENDMDL
MODEL 8
REMARK VINA RESULT:      -6.8      4.659      9.639
REMARK  Name = 
REMARK  6 active torsions:
REMARK  status: ('A' for Active; 'I' for Inactive)
REMARK    1  A    between atoms: C_1  and  N_2
REMARK    2  A    between atoms: C_7  and  C_8
REMARK    3  A    between atoms: N_10  and  N_11
REMARK    4  A    between atoms: C_12  and  C_13
REMARK    5  A    between atoms: C_17  and  O_18
REMARK    6  A    between atoms: O_18  and  C_19
REMARK                            x       y       z     vdW  Elec       q    Type
REMARK                         _______ _______ _______ _____ _____    ______ ____
ROOT
ATOM      1  N   UNL     1       8.197   9.028  17.970  0.00  0.00    +0.000 NA
ATOM      2  C   UNL     1       8.191   7.860  18.534  0.00  0.00    +0.000 C 
ENDROOT
BRANCH   2   3
ATOM      3  C   UNL     1       7.421   6.724  17.979  0.00  0.00    +0.000 A 
ATOM      4  C   UNL     1       7.363   6.521  16.597  0.00  0.00    +0.000 A 
ATOM      5  C   UNL     1       6.679   5.420  16.087  0.00  0.00    +0.000 A 
ATOM      6  C   UNL     1       6.054   4.526  16.958  0.00  0.00    +0.000 A 
ATOM      7  C   UNL     1       6.093   4.737  18.339  0.00  0.00    +0.000 A 
ATOM      8  C   UNL     1       6.778   5.838  18.855  0.00  0.00    +0.000 A 
BRANCH   7   9
ATOM      9  O   UNL     1       5.475   3.770  19.094  0.00  0.00    +0.000 OA
BRANCH   9  10
ATOM     10  C   UNL     1       4.162   3.297  18.705  0.00  0.00    +0.000 C 
ATOM     11  C   UNL     1       3.789   1.855  19.161  0.00  0.00    +0.000 C 
ATOM     12  S   UNL     1       2.079   2.364  19.496  0.00  0.00    +0.000 S 
ATOM     13  C   UNL     1       2.997   3.931  19.523  0.00  0.00    +0.000 C 
ENDBRANCH   9  10
ENDBRANCH   7   9
ENDBRANCH   2   3
BRANCH   1  16
ATOM     14  C   UNL     1       8.864  11.320  18.274  0.00  0.00    +0.000 C 
ATOM     15  O   UNL     1       8.052  11.757  17.458  0.00  0.00    +0.000 OA
ATOM     16  N   UNL     1       8.978   9.971  18.581  0.00  0.00    +0.000 N 
ATOM     17  H   UNL     1       9.677   9.668  19.250  0.00  0.00    +0.000 HD
BRANCH  14  24
ATOM     18  C   UNL     1      11.220  12.868  17.000  0.00  0.00    +0.000 C 
ATOM     19  N   UNL     1      10.832  12.870  18.395  0.00  0.00    +0.000 N 
ATOM     20  N   UNL     1      11.558  13.622  19.252  0.00  0.00    +0.000 NA
ATOM     21  C   UNL     1      10.967  13.429  20.428  0.00  0.00    +0.000 A 
ATOM     22  C   UNL     1       9.876  12.560  20.321  0.00  0.00    +0.000 A 
ATOM     23 BR   UNL     1       8.832  12.083  21.804  0.00  0.00    +0.000 Br
ATOM     24  C   UNL     1       9.783  12.190  18.990  0.00  0.00    +0.000 A 
ENDBRANCH  14  24
ENDBRANCH   1  16
TORSDOF 5
ENDMDL
MODEL 9
REMARK VINA RESULT:      -6.8      8.337      9.531
REMARK  Name = 
REMARK  6 active torsions:
REMARK  status: ('A' for Active; 'I' for Inactive)
REMARK    1  A    between atoms: C_1  and  N_2
REMARK    2  A    between atoms: C_7  and  C_8
REMARK    3  A    between atoms: N_10  and  N_11
REMARK    4  A    between atoms: C_12  and  C_13
REMARK    5  A    between atoms: C_17  and  O_18
REMARK    6  A    between atoms: O_18  and  C_19
REMARK                            x       y       z     vdW  Elec       q    Type
REMARK                         _______ _______ _______ _____ _____    ______ ____
ROOT
ATOM      1  N   UNL     1       1.754   8.021  20.297  0.00  0.00    +0.000 NA
ATOM      2  C   UNL     1       0.828   8.231  21.180  0.00  0.00    +0.000 C 
ENDROOT
BRANCH   2   3
ATOM      3  C   UNL     1       0.066   9.499  21.234  0.00  0.00    +0.000 A 
ATOM      4  C   UNL     1       0.004  10.233  22.422  0.00  0.00    +0.000 A 
ATOM      5  C   UNL     1      -0.672  11.452  22.448  0.00  0.00    +0.000 A 
ATOM      6  C   UNL     1      -1.285  11.932  21.289  0.00  0.00    +0.000 A 
ATOM      7  C   UNL     1      -1.241  11.190  20.106  0.00  0.00    +0.000 A 
ATOM      8  C   UNL     1      -0.564   9.970  20.073  0.00  0.00    +0.000 A 
BRANCH   7   9
ATOM      9  O   UNL     1      -1.846  11.783  19.024  0.00  0.00    +0.000 OA
BRANCH   9  10
ATOM     10  C   UNL     1      -2.734  10.998  18.189  0.00  0.00    +0.000 C 
ATOM     11  C   UNL     1      -4.000  11.731  17.655  0.00  0.00    +0.000 C 
ATOM     12  S   UNL     1      -3.859  10.886  16.055  0.00  0.00    +0.000 S 
ATOM     13  C   UNL     1      -2.188  10.749  16.751  0.00  0.00    +0.000 C 
ENDBRANCH   9  10
ENDBRANCH   7   9
ENDBRANCH   2   3
BRANCH   1  16
ATOM     14  C   UNL     1       2.574   6.039  19.208  0.00  0.00    +0.000 C 
ATOM     15  O   UNL     1       2.274   6.429  18.078  0.00  0.00    +0.000 OA
ATOM     16  N   UNL     1       2.350   6.791  20.353  0.00  0.00    +0.000 N 
ATOM     17  H   UNL     1       2.603   6.410  21.258  0.00  0.00    +0.000 HD
BRANCH  14  24
ATOM     18  C   UNL     1       1.073   3.462  20.031  0.00  0.00    +0.000 C 
ATOM     19  N   UNL     1       2.496   3.605  19.809  0.00  0.00    +0.000 N 
ATOM     20  N   UNL     1       3.274   2.511  19.968  0.00  0.00    +0.000 NA
ATOM     21  C   UNL     1       4.500   2.947  19.693  0.00  0.00    +0.000 A 
ATOM     22  C   UNL     1       4.504   4.306  19.363  0.00  0.00    +0.000 A 
ATOM     23 BR   UNL     1       6.080   5.221  18.924  0.00  0.00    +0.000 Br
ATOM     24  C   UNL     1       3.192   4.743  19.438  0.00  0.00    +0.000 A 
ENDBRANCH  14  24
ENDBRANCH   1  16
TORSDOF 5
ENDMDL
