MODEL 1
REMARK VINA RESULT:      -8.9      0.000      0.000
REMARK  Name = 
REMARK  7 active torsions:
REMARK  status: ('A' for Active; 'I' for Inactive)
REMARK    1  A    between atoms: C_1  and  C_2
REMARK    2  A    between atoms: C_2  and  C_28
REMARK    3  A    between atoms: C_3  and  C_4
REMARK    4  A    between atoms: N_6  and  C_7
REMARK    5  A    between atoms: C_16  and  O_17
REMARK    6  A    between atoms: C_16  and  C_18
REMARK    7  A    between atoms: C_24  and  C_25
REMARK                            x       y       z     vdW  Elec       q    Type
REMARK                         _______ _______ _______ _____ _____    ______ ____
ROOT
ATOM      1  C   UNL     1       0.709   9.357  20.924  0.00  0.00    +0.000 A 
ATOM      2  C   UNL     1       0.538   9.278  22.302  0.00  0.00    +0.000 A 
ATOM      3  C   UNL     1      -0.325  10.149  22.972  0.00  0.00    +0.000 A 
ATOM      4  C   UNL     1      -1.043  11.124  22.306  0.00  0.00    +0.000 A 
ATOM      5  N   UNL     1      -1.842  11.913  23.030  0.00  0.00    +0.000 NA
ATOM      6  C   UNL     1      -2.557  12.857  22.410  0.00  0.00    +0.000 A 
ATOM      7  N   UNL     1      -3.382  13.660  23.156  0.00  0.00    +0.000 N 
ATOM      8  C   UNL     1      -3.420  13.584  24.607  0.00  0.00    +0.000 C 
ATOM      9  C   UNL     1      -2.922  14.903  25.197  0.00  0.00    +0.000 C 
ATOM     10  C   UNL     1      -3.670  16.121  24.616  0.00  0.00    +0.000 C 
ATOM     11  C   UNL     1      -3.669  16.075  23.077  0.00  0.00    +0.000 C 
ATOM     12  C   UNL     1      -4.157  14.727  22.546  0.00  0.00    +0.000 C 
ATOM     13  N   UNL     1      -2.490  13.036  21.084  0.00  0.00    +0.000 NA
ATOM     14  C   UNL     1      -1.678  12.235  20.354  0.00  0.00    +0.000 A 
ATOM     15  C   UNL     1      -1.685  12.499  18.877  0.00  0.00    +0.000 C 
ATOM     16  C   UNL     1      -0.893  11.228  20.924  0.00  0.00    +0.000 A 
ATOM     17  C   UNL     1      -0.005  10.345  20.234  0.00  0.00    +0.000 A 
ENDROOT
BRANCH   1  20
ATOM     18  C   UNL     1       1.654   7.120  20.384  0.00  0.00    +0.000 C 
ATOM     19  O   UNL     1       1.016   6.446  21.184  0.00  0.00    +0.000 OA
ATOM     20  N   UNL     1       1.565   8.488  20.199  0.00  0.00    +0.000 N 
ATOM     21  H   UNL     1       2.109   8.899  19.453  0.00  0.00    +0.000 HD
BRANCH  18  24
ATOM     22  C   UNL     1       2.612   8.290  17.713  0.00  0.00    +0.000 C 
ATOM     23  C   UNL     1       3.005   6.961  18.303  0.00  0.00    +0.000 C 
ATOM     24  C   UNL     1       2.656   6.463  19.506  0.00  0.00    +0.000 C 
BRANCH  23  25
ATOM     25  C   UNL     1       3.842   6.137  17.414  0.00  0.00    +0.000 A 
ATOM     26  C   UNL     1       4.733   6.756  16.525  0.00  0.00    +0.000 A 
ATOM     27  C   UNL     1       5.543   5.986  15.688  0.00  0.00    +0.000 A 
ATOM     28  C   UNL     1       5.462   4.596  15.736  0.00  0.00    +0.000 A 
ATOM     29 CL   UNL     1       6.454   3.648  14.697  0.00  0.00    +0.000 Cl
ATOM     30  C   UNL     1       4.584   3.970  16.621  0.00  0.00    +0.000 A 
ATOM     31  C   UNL     1       3.774   4.741  17.460  0.00  0.00    +0.000 A 
ENDBRANCH  23  25
ENDBRANCH  18  24
ENDBRANCH   1  20
BRANCH  10  32
ATOM     32  C   UNL     1      -3.019  17.407  25.105  0.00  0.00    +0.000 C 
ATOM     33  C   UNL     1      -1.724  17.376  25.884  0.00  0.00    +0.000 C 
ATOM     34  C   UNL     1      -1.749  17.989  24.514  0.00  0.00    +0.000 C 
ENDBRANCH  10  32
BRANCH  10  35
ATOM     35  O   UNL     1      -5.034  16.081  25.051  0.00  0.00    +0.000 OA
ATOM     36  H   UNL     1      -5.318  15.153  25.016  0.00  0.00    +0.000 HD
ENDBRANCH  10  35
TORSDOF 5
ENDMDL
MODEL 2
REMARK VINA RESULT:      -8.5      1.513      3.118
REMARK  Name = 
REMARK  7 active torsions:
REMARK  status: ('A' for Active; 'I' for Inactive)
REMARK    1  A    between atoms: C_1  and  C_2
REMARK    2  A    between atoms: C_2  and  C_28
REMARK    3  A    between atoms: C_3  and  C_4
REMARK    4  A    between atoms: N_6  and  C_7
REMARK    5  A    between atoms: C_16  and  O_17
REMARK    6  A    between atoms: C_16  and  C_18
REMARK    7  A    between atoms: C_24  and  C_25
REMARK                            x       y       z     vdW  Elec       q    Type
REMARK                         _______ _______ _______ _____ _____    ______ ____
ROOT
ATOM      1  C   UNL     1       0.341  10.473  18.983  0.00  0.00    +0.000 A 
ATOM      2  C   UNL     1      -0.168  11.629  18.398  0.00  0.00    +0.000 A 
ATOM      3  C   UNL     1      -0.921  12.541  19.143  0.00  0.00    +0.000 A 
ATOM      4  C   UNL     1      -1.197  12.342  20.482  0.00  0.00    +0.000 A 
ATOM      5  N   UNL     1      -1.927  13.267  21.111  0.00  0.00    +0.000 NA
ATOM      6  C   UNL     1      -2.199  13.105  22.410  0.00  0.00    +0.000 A 
ATOM      7  N   UNL     1      -2.943  14.061  23.055  0.00  0.00    +0.000 N 
ATOM      8  C   UNL     1      -3.529  15.185  22.345  0.00  0.00    +0.000 C 
ATOM      9  C   UNL     1      -5.053  15.091  22.417  0.00  0.00    +0.000 C 
ATOM     10  C   UNL     1      -5.560  14.934  23.866  0.00  0.00    +0.000 C 
ATOM     11  C   UNL     1      -4.820  13.788  24.579  0.00  0.00    +0.000 C 
ATOM     12  C   UNL     1      -3.302  13.925  24.456  0.00  0.00    +0.000 C 
ATOM     13  N   UNL     1      -1.763  12.039  23.095  0.00  0.00    +0.000 NA
ATOM     14  C   UNL     1      -1.026  11.103  22.453  0.00  0.00    +0.000 A 
ATOM     15  C   UNL     1      -0.569   9.957  23.307  0.00  0.00    +0.000 C 
ATOM     16  C   UNL     1      -0.701  11.192  21.096  0.00  0.00    +0.000 A 
ATOM     17  C   UNL     1       0.063  10.252  20.337  0.00  0.00    +0.000 A 
ENDROOT
BRANCH   1  20
ATOM     18  C   UNL     1       1.817   8.477  18.843  0.00  0.00    +0.000 C 
ATOM     19  O   UNL     1       1.873   8.197  20.035  0.00  0.00    +0.000 OA
ATOM     20  N   UNL     1       1.119   9.525  18.271  0.00  0.00    +0.000 N 
ATOM     21  H   UNL     1       1.113   9.592  17.262  0.00  0.00    +0.000 HD
BRANCH  18  24
ATOM     22  C   UNL     1       3.147   5.796  19.526  0.00  0.00    +0.000 C 
ATOM     23  C   UNL     1       3.208   6.517  18.204  0.00  0.00    +0.000 C 
ATOM     24  C   UNL     1       2.571   7.655  17.861  0.00  0.00    +0.000 C 
BRANCH  23  25
ATOM     25  C   UNL     1       4.101   5.883  17.220  0.00  0.00    +0.000 A 
ATOM     26  C   UNL     1       4.263   4.490  17.222  0.00  0.00    +0.000 A 
ATOM     27  C   UNL     1       5.095   3.876  16.283  0.00  0.00    +0.000 A 
ATOM     28  C   UNL     1       5.767   4.653  15.342  0.00  0.00    +0.000 A 
ATOM     29 CL   UNL     1       6.799   3.895  14.192  0.00  0.00    +0.000 Cl
ATOM     30  C   UNL     1       5.607   6.038  15.327  0.00  0.00    +0.000 A 
ATOM     31  C   UNL     1       4.774   6.653  16.266  0.00  0.00    +0.000 A 
ENDBRANCH  23  25
ENDBRANCH  18  24
ENDBRANCH   1  20
BRANCH  10  32
ATOM     32  C   UNL     1      -7.060  14.671  23.862  0.00  0.00    +0.000 C 
ATOM     33  C   UNL     1      -7.738  14.058  22.659  0.00  0.00    +0.000 C 
ATOM     34  C   UNL     1      -7.675  13.288  23.946  0.00  0.00    +0.000 C 
ENDBRANCH  10  32
BRANCH  10  35
ATOM     35  O   UNL     1      -5.289  16.141  24.587  0.00  0.00    +0.000 OA
ATOM     36  H   UNL     1      -6.146  16.550  24.793  0.00  0.00    +0.000 HD
ENDBRANCH  10  35
TORSDOF 5
ENDMDL
MODEL 3
REMARK VINA RESULT:      -8.4      1.241      1.749
REMARK  Name = 
REMARK  7 active torsions:
REMARK  status: ('A' for Active; 'I' for Inactive)
REMARK    1  A    between atoms: C_1  and  C_2
REMARK    2  A    between atoms: C_2  and  C_28
REMARK    3  A    between atoms: C_3  and  C_4
REMARK    4  A    between atoms: N_6  and  C_7
REMARK    5  A    between atoms: C_16  and  O_17
REMARK    6  A    between atoms: C_16  and  C_18
REMARK    7  A    between atoms: C_24  and  C_25
REMARK                            x       y       z     vdW  Elec       q    Type
REMARK                         _______ _______ _______ _____ _____    ______ ____
ROOT
ATOM      1  C   UNL     1       0.433  10.050  19.875  0.00  0.00    +0.000 A 
ATOM      2  C   UNL     1       0.670  10.258  21.230  0.00  0.00    +0.000 A 
ATOM      3  C   UNL     1      -0.215  11.009  22.008  0.00  0.00    +0.000 A 
ATOM      4  C   UNL     1      -1.356  11.579  21.476  0.00  0.00    +0.000 A 
ATOM      5  N   UNL     1      -2.142  12.282  22.296  0.00  0.00    +0.000 NA
ATOM      6  C   UNL     1      -3.258  12.835  21.810  0.00  0.00    +0.000 A 
ATOM      7  N   UNL     1      -4.066  13.550  22.657  0.00  0.00    +0.000 N 
ATOM      8  C   UNL     1      -3.691  13.812  24.037  0.00  0.00    +0.000 C 
ATOM      9  C   UNL     1      -3.501  15.316  24.233  0.00  0.00    +0.000 C 
ATOM     10  C   UNL     1      -4.725  16.125  23.754  0.00  0.00    +0.000 C 
ATOM     11  C   UNL     1      -5.118  15.718  22.323  0.00  0.00    +0.000 C 
ATOM     12  C   UNL     1      -5.273  14.204  22.182  0.00  0.00    +0.000 C 
ATOM     13  N   UNL     1      -3.607  12.705  20.523  0.00  0.00    +0.000 NA
ATOM     14  C   UNL     1      -2.807  11.993  19.695  0.00  0.00    +0.000 A 
ATOM     15  C   UNL     1      -3.289  11.889  18.278  0.00  0.00    +0.000 C 
ATOM     16  C   UNL     1      -1.620  11.388  20.120  0.00  0.00    +0.000 A 
ATOM     17  C   UNL     1      -0.714  10.627  19.317  0.00  0.00    +0.000 A 
ENDROOT
BRANCH   1  20
ATOM     18  C   UNL     1       1.918   8.107  19.418  0.00  0.00    +0.000 C 
ATOM     19  O   UNL     1       1.822   7.535  20.497  0.00  0.00    +0.000 OA
ATOM     20  N   UNL     1       1.297   9.286  19.048  0.00  0.00    +0.000 N 
ATOM     21  H   UNL     1       1.419   9.604  18.097  0.00  0.00    +0.000 HD
BRANCH  18  24
ATOM     22  C   UNL     1       2.092   5.108  18.787  0.00  0.00    +0.000 C 
ATOM     23  C   UNL     1       2.904   6.207  18.153  0.00  0.00    +0.000 C 
ATOM     24  C   UNL     1       2.791   7.535  18.361  0.00  0.00    +0.000 C 
BRANCH  23  25
ATOM     25  C   UNL     1       3.946   5.723  17.232  0.00  0.00    +0.000 A 
ATOM     26  C   UNL     1       4.140   4.345  17.061  0.00  0.00    +0.000 A 
ATOM     27  C   UNL     1       5.114   3.873  16.178  0.00  0.00    +0.000 A 
ATOM     28  C   UNL     1       5.898   4.779  15.467  0.00  0.00    +0.000 A 
ATOM     29 CL   UNL     1       7.105   4.197  14.387  0.00  0.00    +0.000 Cl
ATOM     30  C   UNL     1       5.709   6.152  15.624  0.00  0.00    +0.000 A 
ATOM     31  C   UNL     1       4.734   6.624  16.507  0.00  0.00    +0.000 A 
ENDBRANCH  23  25
ENDBRANCH  18  24
ENDBRANCH   1  20
BRANCH  10  32
ATOM     32  C   UNL     1      -4.412  17.614  23.811  0.00  0.00    +0.000 C 
ATOM     33  C   UNL     1      -5.505  18.631  24.041  0.00  0.00    +0.000 C 
ATOM     34  C   UNL     1      -4.445  18.436  25.085  0.00  0.00    +0.000 C 
ENDBRANCH  10  32
BRANCH  10  35
ATOM     35  O   UNL     1      -5.837  15.838  24.609  0.00  0.00    +0.000 OA
ATOM     36  H   UNL     1      -6.468  16.570  24.513  0.00  0.00    +0.000 HD
ENDBRANCH  10  35
TORSDOF 5
ENDMDL
MODEL 4
REMARK VINA RESULT:      -8.2      1.279      1.758
REMARK  Name = 
REMARK  7 active torsions:
REMARK  status: ('A' for Active; 'I' for Inactive)
REMARK    1  A    between atoms: C_1  and  C_2
REMARK    2  A    between atoms: C_2  and  C_28
REMARK    3  A    between atoms: C_3  and  C_4
REMARK    4  A    between atoms: N_6  and  C_7
REMARK    5  A    between atoms: C_16  and  O_17
REMARK    6  A    between atoms: C_16  and  C_18
REMARK    7  A    between atoms: C_24  and  C_25
REMARK                            x       y       z     vdW  Elec       q    Type
REMARK                         _______ _______ _______ _____ _____    ______ ____
ROOT
ATOM      1  C   UNL     1       0.179   9.980  20.145  0.00  0.00    +0.000 A 
ATOM      2  C   UNL     1       0.442  10.164  21.498  0.00  0.00    +0.000 A 
ATOM      3  C   UNL     1      -0.360  10.998  22.281  0.00  0.00    +0.000 A 
ATOM      4  C   UNL     1      -1.442  11.678  21.755  0.00  0.00    +0.000 A 
ATOM      5  N   UNL     1      -2.150  12.455  22.580  0.00  0.00    +0.000 NA
ATOM      6  C   UNL     1      -3.209  13.115  22.100  0.00  0.00    +0.000 A 
ATOM      7  N   UNL     1      -3.938  13.906  22.951  0.00  0.00    +0.000 N 
ATOM      8  C   UNL     1      -3.531  14.130  24.328  0.00  0.00    +0.000 C 
ATOM      9  C   UNL     1      -3.193  15.608  24.523  0.00  0.00    +0.000 C 
ATOM     10  C   UNL     1      -4.333  16.534  24.051  0.00  0.00    +0.000 C 
ATOM     11  C   UNL     1      -4.772  16.168  22.622  0.00  0.00    +0.000 C 
ATOM     12  C   UNL     1      -5.077  14.677  22.482  0.00  0.00    +0.000 C 
ATOM     13  N   UNL     1      -3.576  13.021  20.814  0.00  0.00    +0.000 NA
ATOM     14  C   UNL     1      -2.855  12.233  19.982  0.00  0.00    +0.000 A 
ATOM     15  C   UNL     1      -3.354  12.178  18.568  0.00  0.00    +0.000 C 
ATOM     16  C   UNL     1      -1.731  11.514  20.401  0.00  0.00    +0.000 A 
ATOM     17  C   UNL     1      -0.910  10.668  19.593  0.00  0.00    +0.000 A 
ENDROOT
BRANCH   1  20
ATOM     18  C   UNL     1       1.876   9.568  18.374  0.00  0.00    +0.000 C 
ATOM     19  O   UNL     1       2.168  10.730  18.115  0.00  0.00    +0.000 OA
ATOM     20  N   UNL     1       0.957   9.135  19.313  0.00  0.00    +0.000 N 
ATOM     21  H   UNL     1       0.870   8.139  19.461  0.00  0.00    +0.000 HD
BRANCH  18  24
ATOM     22  C   UNL     1       2.623   6.865  19.620  0.00  0.00    +0.000 C 
ATOM     23  C   UNL     1       2.913   7.315  18.211  0.00  0.00    +0.000 C 
ATOM     24  C   UNL     1       2.529   8.465  17.623  0.00  0.00    +0.000 C 
BRANCH  23  25
ATOM     25  C   UNL     1       3.738   6.369  17.440  0.00  0.00    +0.000 A 
ATOM     26  C   UNL     1       3.498   4.991  17.543  0.00  0.00    +0.000 A 
ATOM     27  C   UNL     1       4.263   4.085  16.805  0.00  0.00    +0.000 A 
ATOM     28  C   UNL     1       5.270   4.555  15.965  0.00  0.00    +0.000 A 
ATOM     29 CL   UNL     1       6.219   3.437  15.064  0.00  0.00    +0.000 Cl
ATOM     30  C   UNL     1       5.512   5.923  15.850  0.00  0.00    +0.000 A 
ATOM     31  C   UNL     1       4.747   6.830  16.588  0.00  0.00    +0.000 A 
ENDBRANCH  23  25
ENDBRANCH  18  24
ENDBRANCH   1  20
BRANCH  10  32
ATOM     32  C   UNL     1      -3.874  17.985  24.106  0.00  0.00    +0.000 C 
ATOM     33  C   UNL     1      -3.492  18.630  25.417  0.00  0.00    +0.000 C 
ATOM     34  C   UNL     1      -2.442  18.409  24.368  0.00  0.00    +0.000 C 
ENDBRANCH  10  32
BRANCH  10  35
ATOM     35  O   UNL     1      -5.463  16.358  24.912  0.00  0.00    +0.000 OA
ATOM     36  H   UNL     1      -5.242  16.771  25.762  0.00  0.00    +0.000 HD
ENDBRANCH  10  35
TORSDOF 5
ENDMDL
MODEL 5
REMARK VINA RESULT:      -8.2      4.477     12.016
REMARK  Name = 
REMARK  7 active torsions:
REMARK  status: ('A' for Active; 'I' for Inactive)
REMARK    1  A    between atoms: C_1  and  C_2
REMARK    2  A    between atoms: C_2  and  C_28
REMARK    3  A    between atoms: C_3  and  C_4
REMARK    4  A    between atoms: N_6  and  C_7
REMARK    5  A    between atoms: C_16  and  O_17
REMARK    6  A    between atoms: C_16  and  C_18
REMARK    7  A    between atoms: C_24  and  C_25
REMARK                            x       y       z     vdW  Elec       q    Type
REMARK                         _______ _______ _______ _____ _____    ______ ____
ROOT
ATOM      1  C   UNL     1      -0.103  11.521  19.776  0.00  0.00    +0.000 A 
ATOM      2  C   UNL     1       0.521  11.702  18.546  0.00  0.00    +0.000 A 
ATOM      3  C   UNL     1       1.342  10.711  18.002  0.00  0.00    +0.000 A 
ATOM      4  C   UNL     1       1.575   9.515  18.653  0.00  0.00    +0.000 A 
ATOM      5  N   UNL     1       2.376   8.627  18.057  0.00  0.00    +0.000 NA
ATOM      6  C   UNL     1       2.610   7.457  18.659  0.00  0.00    +0.000 A 
ATOM      7  N   UNL     1       3.427   6.545  18.040  0.00  0.00    +0.000 N 
ATOM      8  C   UNL     1       4.128   6.857  16.805  0.00  0.00    +0.000 C 
ATOM      9  C   UNL     1       5.635   6.840  17.060  0.00  0.00    +0.000 C 
ATOM     10  C   UNL     1       6.100   5.529  17.729  0.00  0.00    +0.000 C 
ATOM     11  C   UNL     1       5.244   5.220  18.970  0.00  0.00    +0.000 C 
ATOM     12  C   UNL     1       3.748   5.270  18.660  0.00  0.00    +0.000 C 
ATOM     13  N   UNL     1       2.065   7.152  19.845  0.00  0.00    +0.000 NA
ATOM     14  C   UNL     1       1.255   8.055  20.446  0.00  0.00    +0.000 A 
ATOM     15  C   UNL     1       0.679   7.617  21.760  0.00  0.00    +0.000 C 
ATOM     16  C   UNL     1       0.963   9.304  19.888  0.00  0.00    +0.000 A 
ATOM     17  C   UNL     1       0.129  10.317  20.453  0.00  0.00    +0.000 A 
ENDROOT
BRANCH   1  20
ATOM     18  C   UNL     1      -0.618  13.304  21.432  0.00  0.00    +0.000 C 
ATOM     19  O   UNL     1       0.450  13.320  22.033  0.00  0.00    +0.000 OA
ATOM     20  N   UNL     1      -0.954  12.493  20.363  0.00  0.00    +0.000 N 
ATOM     21  H   UNL     1      -1.853  12.638  19.926  0.00  0.00    +0.000 HD
BRANCH  18  24
ATOM     22  C   UNL     1      -2.871  12.478  23.347  0.00  0.00    +0.000 C 
ATOM     23  C   UNL     1      -2.731  13.803  22.644  0.00  0.00    +0.000 C 
ATOM     24  C   UNL     1      -1.713  14.212  21.860  0.00  0.00    +0.000 C 
BRANCH  23  25
ATOM     25  C   UNL     1      -3.876  14.708  22.843  0.00  0.00    +0.000 A 
ATOM     26  C   UNL     1      -4.857  14.820  21.846  0.00  0.00    +0.000 A 
ATOM     27  C   UNL     1      -5.955  15.663  22.030  0.00  0.00    +0.000 A 
ATOM     28  C   UNL     1      -6.074  16.396  23.208  0.00  0.00    +0.000 A 
ATOM     29 CL   UNL     1      -7.423  17.441  23.429  0.00  0.00    +0.000 Cl
ATOM     30  C   UNL     1      -5.108  16.286  24.208  0.00  0.00    +0.000 A 
ATOM     31  C   UNL     1      -4.009  15.443  24.025  0.00  0.00    +0.000 A 
ENDBRANCH  23  25
ENDBRANCH  18  24
ENDBRANCH   1  20
BRANCH  10  32
ATOM     32  C   UNL     1       7.569   5.641  18.114  0.00  0.00    +0.000 C 
ATOM     33  C   UNL     1       8.148   6.949  18.598  0.00  0.00    +0.000 C 
ATOM     34  C   UNL     1       8.058   5.785  19.542  0.00  0.00    +0.000 C 
ENDBRANCH  10  32
BRANCH  10  35
ATOM     35  O   UNL     1       5.930   4.450  16.804  0.00  0.00    +0.000 OA
ATOM     36  H   UNL     1       5.915   3.629  17.322  0.00  0.00    +0.000 HD
ENDBRANCH  10  35
TORSDOF 5
ENDMDL
MODEL 6
REMARK VINA RESULT:      -8.2      4.567     12.116
REMARK  Name = 
REMARK  7 active torsions:
REMARK  status: ('A' for Active; 'I' for Inactive)
REMARK    1  A    between atoms: C_1  and  C_2
REMARK    2  A    between atoms: C_2  and  C_28
REMARK    3  A    between atoms: C_3  and  C_4
REMARK    4  A    between atoms: N_6  and  C_7
REMARK    5  A    between atoms: C_16  and  O_17
REMARK    6  A    between atoms: C_16  and  C_18
REMARK    7  A    between atoms: C_24  and  C_25
REMARK                            x       y       z     vdW  Elec       q    Type
REMARK                         _______ _______ _______ _____ _____    ______ ____
ROOT
ATOM      1  C   UNL     1       0.044  11.573  19.760  0.00  0.00    +0.000 A 
ATOM      2  C   UNL     1       0.693  11.709  18.538  0.00  0.00    +0.000 A 
ATOM      3  C   UNL     1       1.488  10.680  18.026  0.00  0.00    +0.000 A 
ATOM      4  C   UNL     1       1.669   9.489  18.703  0.00  0.00    +0.000 A 
ATOM      5  N   UNL     1       2.449   8.563  18.137  0.00  0.00    +0.000 NA
ATOM      6  C   UNL     1       2.632   7.397  18.765  0.00  0.00    +0.000 A 
ATOM      7  N   UNL     1       3.427   6.446  18.177  0.00  0.00    +0.000 N 
ATOM      8  C   UNL     1       4.158   6.709  16.948  0.00  0.00    +0.000 C 
ATOM      9  C   UNL     1       5.659   6.647  17.228  0.00  0.00    +0.000 C 
ATOM     10  C   UNL     1       6.067   5.334  17.928  0.00  0.00    +0.000 C 
ATOM     11  C   UNL     1       5.182   5.078  19.161  0.00  0.00    +0.000 C 
ATOM     12  C   UNL     1       3.694   5.174  18.825  0.00  0.00    +0.000 C 
ATOM     13  N   UNL     1       2.058   7.134  19.947  0.00  0.00    +0.000 NA
ATOM     14  C   UNL     1       1.270   8.076  20.518  0.00  0.00    +0.000 A 
ATOM     15  C   UNL     1       0.659   7.683  21.830  0.00  0.00    +0.000 C 
ATOM     16  C   UNL     1       1.031   9.323  19.932  0.00  0.00    +0.000 A 
ATOM     17  C   UNL     1       0.223  10.375  20.464  0.00  0.00    +0.000 A 
ENDROOT
BRANCH   1  20
ATOM     18  C   UNL     1      -2.126  12.757  20.038  0.00  0.00    +0.000 C 
ATOM     19  O   UNL     1      -2.814  12.073  19.289  0.00  0.00    +0.000 OA
ATOM     20  N   UNL     1      -0.781  12.585  20.315  0.00  0.00    +0.000 N 
ATOM     21  H   UNL     1      -0.362  13.189  21.007  0.00  0.00    +0.000 HD
BRANCH  18  24
ATOM     22  C   UNL     1      -3.425  12.584  22.814  0.00  0.00    +0.000 C 
ATOM     23  C   UNL     1      -3.365  13.799  21.925  0.00  0.00    +0.000 C 
ATOM     24  C   UNL     1      -2.736  13.916  20.738  0.00  0.00    +0.000 C 
BRANCH  23  25
ATOM     25  C   UNL     1      -4.120  14.954  22.441  0.00  0.00    +0.000 A 
ATOM     26  C   UNL     1      -5.011  14.782  23.511  0.00  0.00    +0.000 A 
ATOM     27  C   UNL     1      -5.721  15.871  24.019  0.00  0.00    +0.000 A 
ATOM     28  C   UNL     1      -5.543  17.134  23.458  0.00  0.00    +0.000 A 
ATOM     29 CL   UNL     1      -6.426  18.474  24.079  0.00  0.00    +0.000 Cl
ATOM     30  C   UNL     1      -4.654  17.317  22.399  0.00  0.00    +0.000 A 
ATOM     31  C   UNL     1      -3.943  16.227  21.890  0.00  0.00    +0.000 A 
ENDBRANCH  23  25
ENDBRANCH  18  24
ENDBRANCH   1  20
BRANCH  10  32
ATOM     32  C   UNL     1       7.533   5.402  18.336  0.00  0.00    +0.000 C 
ATOM     33  C   UNL     1       8.184   6.721  18.678  0.00  0.00    +0.000 C 
ATOM     34  C   UNL     1       8.004   5.686  19.749  0.00  0.00    +0.000 C 
ENDBRANCH  10  32
BRANCH  10  35
ATOM     35  O   UNL     1       5.875   4.243  17.021  0.00  0.00    +0.000 OA
ATOM     36  H   UNL     1       6.635   3.647  17.125  0.00  0.00    +0.000 HD
ENDBRANCH  10  35
TORSDOF 5
ENDMDL
MODEL 7
REMARK VINA RESULT:      -8.1      1.474      2.824
REMARK  Name = 
REMARK  7 active torsions:
REMARK  status: ('A' for Active; 'I' for Inactive)
REMARK    1  A    between atoms: C_1  and  C_2
REMARK    2  A    between atoms: C_2  and  C_28
REMARK    3  A    between atoms: C_3  and  C_4
REMARK    4  A    between atoms: N_6  and  C_7
REMARK    5  A    between atoms: C_16  and  O_17
REMARK    6  A    between atoms: C_16  and  C_18
REMARK    7  A    between atoms: C_24  and  C_25
REMARK                            x       y       z     vdW  Elec       q    Type
REMARK                         _______ _______ _______ _____ _____    ______ ____
ROOT
ATOM      1  C   UNL     1       1.049  10.519  19.150  0.00  0.00    +0.000 A 
ATOM      2  C   UNL     1       0.983  11.838  18.712  0.00  0.00    +0.000 A 
ATOM      3  C   UNL     1       0.395  12.830  19.501  0.00  0.00    +0.000 A 
ATOM      4  C   UNL     1      -0.147  12.553  20.742  0.00  0.00    +0.000 A 
ATOM      5  N   UNL     1      -0.691  13.565  21.424  0.00  0.00    +0.000 NA
ATOM      6  C   UNL     1      -1.212  13.327  22.632  0.00  0.00    +0.000 A 
ATOM      7  N   UNL     1      -1.763  14.371  23.332  0.00  0.00    +0.000 N 
ATOM      8  C   UNL     1      -1.889  15.699  22.757  0.00  0.00    +0.000 C 
ATOM      9  C   UNL     1      -3.370  16.053  22.621  0.00  0.00    +0.000 C 
ATOM     10  C   UNL     1      -4.138  15.871  23.947  0.00  0.00    +0.000 C 
ATOM     11  C   UNL     1      -3.872  14.476  24.541  0.00  0.00    +0.000 C 
ATOM     12  C   UNL     1      -2.377  14.170  24.634  0.00  0.00    +0.000 C 
ATOM     13  N   UNL     1      -1.208  12.102  23.174  0.00  0.00    +0.000 NA
ATOM     14  C   UNL     1      -0.657  11.079  22.478  0.00  0.00    +0.000 A 
ATOM     15  C   UNL     1      -0.684   9.750  23.174  0.00  0.00    +0.000 C 
ATOM     16  C   UNL     1      -0.096  11.239  21.208  0.00  0.00    +0.000 A 
ATOM     17  C   UNL     1       0.497  10.219  20.401  0.00  0.00    +0.000 A 
ENDROOT
BRANCH   1  20
ATOM     18  C   UNL     1       2.028   8.248  18.886  0.00  0.00    +0.000 C 
ATOM     19  O   UNL     1       1.911   7.854  20.041  0.00  0.00    +0.000 OA
ATOM     20  N   UNL     1       1.646   9.481  18.389  0.00  0.00    +0.000 N 
ATOM     21  H   UNL     1       1.746   9.640  17.396  0.00  0.00    +0.000 HD
BRANCH  18  24
ATOM     22  C   UNL     1       3.944   5.950  19.574  0.00  0.00    +0.000 C 
ATOM     23  C   UNL     1       3.549   6.407  18.193  0.00  0.00    +0.000 C 
ATOM     24  C   UNL     1       2.655   7.362  17.871  0.00  0.00    +0.000 C 
BRANCH  23  25
ATOM     25  C   UNL     1       4.274   5.723  17.109  0.00  0.00    +0.000 A 
ATOM     26  C   UNL     1       4.308   4.321  17.070  0.00  0.00    +0.000 A 
ATOM     27  C   UNL     1       4.979   3.660  16.038  0.00  0.00    +0.000 A 
ATOM     28  C   UNL     1       5.617   4.399  15.045  0.00  0.00    +0.000 A 
ATOM     29 CL   UNL     1       6.451   3.584  13.779  0.00  0.00    +0.000 Cl
ATOM     30  C   UNL     1       5.582   5.793  15.070  0.00  0.00    +0.000 A 
ATOM     31  C   UNL     1       4.912   6.455  16.102  0.00  0.00    +0.000 A 
ENDBRANCH  23  25
ENDBRANCH  18  24
ENDBRANCH   1  20
BRANCH  10  32
ATOM     32  C   UNL     1      -5.629  16.068  23.711  0.00  0.00    +0.000 C 
ATOM     33  C   UNL     1      -6.276  15.630  22.417  0.00  0.00    +0.000 C 
ATOM     34  C   UNL     1      -6.639  14.937  23.698  0.00  0.00    +0.000 C 
ENDBRANCH  10  32
BRANCH  10  35
ATOM     35  O   UNL     1      -3.672  16.841  24.891  0.00  0.00    +0.000 OA
ATOM     36  H   UNL     1      -4.233  16.765  25.680  0.00  0.00    +0.000 HD
ENDBRANCH  10  35
TORSDOF 5
ENDMDL
MODEL 8
REMARK VINA RESULT:      -8.1      1.209      1.740
REMARK  Name = 
REMARK  7 active torsions:
REMARK  status: ('A' for Active; 'I' for Inactive)
REMARK    1  A    between atoms: C_1  and  C_2
REMARK    2  A    between atoms: C_2  and  C_28
REMARK    3  A    between atoms: C_3  and  C_4
REMARK    4  A    between atoms: N_6  and  C_7
REMARK    5  A    between atoms: C_16  and  O_17
REMARK    6  A    between atoms: C_16  and  C_18
REMARK    7  A    between atoms: C_24  and  C_25
REMARK                            x       y       z     vdW  Elec       q    Type
REMARK                         _______ _______ _______ _____ _____    ______ ____
ROOT
ATOM      1  C   UNL     1       0.542  10.190  19.993  0.00  0.00    +0.000 A 
ATOM      2  C   UNL     1       0.045   9.804  21.234  0.00  0.00    +0.000 A 
ATOM      3  C   UNL     1      -0.646  10.707  22.046  0.00  0.00    +0.000 A 
ATOM      4  C   UNL     1      -0.867  12.016  21.662  0.00  0.00    +0.000 A 
ATOM      5  N   UNL     1      -1.536  12.807  22.504  0.00  0.00    +0.000 NA
ATOM      6  C   UNL     1      -1.773  14.076  22.153  0.00  0.00    +0.000 A 
ATOM      7  N   UNL     1      -2.467  14.884  23.018  0.00  0.00    +0.000 N 
ATOM      8  C   UNL     1      -2.858  14.433  24.343  0.00  0.00    +0.000 C 
ATOM      9  C   UNL     1      -2.136  15.273  25.397  0.00  0.00    +0.000 C 
ATOM     10  C   UNL     1      -2.331  16.786  25.169  0.00  0.00    +0.000 C 
ATOM     11  C   UNL     1      -1.991  17.165  23.717  0.00  0.00    +0.000 C 
ATOM     12  C   UNL     1      -2.725  16.280  22.710  0.00  0.00    +0.000 C 
ATOM     13  N   UNL     1      -1.354  14.573  20.982  0.00  0.00    +0.000 NA
ATOM     14  C   UNL     1      -0.675  13.768  20.131  0.00  0.00    +0.000 A 
ATOM     15  C   UNL     1      -0.264  14.410  18.839  0.00  0.00    +0.000 C 
ATOM     16  C   UNL     1      -0.380  12.433  20.423  0.00  0.00    +0.000 A 
ATOM     17  C   UNL     1       0.335  11.515  19.592  0.00  0.00    +0.000 A 
ENDROOT
BRANCH   1  20
ATOM     18  C   UNL     1       1.849   8.127  19.520  0.00  0.00    +0.000 C 
ATOM     19  O   UNL     1       1.879   7.657  20.652  0.00  0.00    +0.000 OA
ATOM     20  N   UNL     1       1.240   9.306  19.131  0.00  0.00    +0.000 N 
ATOM     21  H   UNL     1       1.242   9.534  18.146  0.00  0.00    +0.000 HD
BRANCH  18  24
ATOM     22  C   UNL     1       3.172   5.374  19.824  0.00  0.00    +0.000 C 
ATOM     23  C   UNL     1       3.171   6.238  18.590  0.00  0.00    +0.000 C 
ATOM     24  C   UNL     1       2.534   7.413  18.412  0.00  0.00    +0.000 C 
BRANCH  23  25
ATOM     25  C   UNL     1       3.997   5.710  17.491  0.00  0.00    +0.000 A 
ATOM     26  C   UNL     1       4.110   4.324  17.308  0.00  0.00    +0.000 A 
ATOM     27  C   UNL     1       4.878   3.811  16.260  0.00  0.00    +0.000 A 
ATOM     28  C   UNL     1       5.536   4.683  15.396  0.00  0.00    +0.000 A 
ATOM     29 CL   UNL     1       6.491   4.050  14.111  0.00  0.00    +0.000 Cl
ATOM     30  C   UNL     1       5.425   6.063  15.565  0.00  0.00    +0.000 A 
ATOM     31  C   UNL     1       4.657   6.576  16.613  0.00  0.00    +0.000 A 
ENDBRANCH  23  25
ENDBRANCH  18  24
ENDBRANCH   1  20
BRANCH  10  32
ATOM     32  C   UNL     1      -1.454  17.569  26.137  0.00  0.00    +0.000 C 
ATOM     33  C   UNL     1      -0.461  16.864  27.032  0.00  0.00    +0.000 C 
ATOM     34  C   UNL     1       0.036  17.777  25.948  0.00  0.00    +0.000 C 
ENDBRANCH  10  32
BRANCH  10  35
ATOM     35  O   UNL     1      -3.705  17.118  25.396  0.00  0.00    +0.000 OA
ATOM     36  H   UNL     1      -3.742  17.647  26.209  0.00  0.00    +0.000 HD
ENDBRANCH  10  35
TORSDOF 5
ENDMDL
MODEL 9
REMARK VINA RESULT:      -8.1      0.936      1.470
REMARK  Name = 
REMARK  7 active torsions:
REMARK  status: ('A' for Active; 'I' for Inactive)
REMARK    1  A    between atoms: C_1  and  C_2
REMARK    2  A    between atoms: C_2  and  C_28
REMARK    3  A    between atoms: C_3  and  C_4
REMARK    4  A    between atoms: N_6  and  C_7
REMARK    5  A    between atoms: C_16  and  O_17
REMARK    6  A    between atoms: C_16  and  C_18
REMARK    7  A    between atoms: C_24  and  C_25
REMARK                            x       y       z     vdW  Elec       q    Type
REMARK                         _______ _______ _______ _____ _____    ______ ____
ROOT
ATOM      1  C   UNL     1       0.726   9.583  19.780  0.00  0.00    +0.000 A 
ATOM      2  C   UNL     1       1.041   9.703  21.130  0.00  0.00    +0.000 A 
ATOM      3  C   UNL     1       0.296  10.532  21.973  0.00  0.00    +0.000 A 
ATOM      4  C   UNL     1      -0.778  11.269  21.512  0.00  0.00    +0.000 A 
ATOM      5  N   UNL     1      -1.430  12.036  22.391  0.00  0.00    +0.000 NA
ATOM      6  C   UNL     1      -2.480  12.751  21.974  0.00  0.00    +0.000 A 
ATOM      7  N   UNL     1      -3.152  13.532  22.881  0.00  0.00    +0.000 N 
ATOM      8  C   UNL     1      -2.691  13.685  24.251  0.00  0.00    +0.000 C 
ATOM      9  C   UNL     1      -2.294  15.142  24.491  0.00  0.00    +0.000 C 
ATOM     10  C   UNL     1      -3.415  16.125  24.096  0.00  0.00    +0.000 C 
ATOM     11  C   UNL     1      -3.915  15.832  22.670  0.00  0.00    +0.000 C 
ATOM     12  C   UNL     1      -4.278  14.359  22.483  0.00  0.00    +0.000 C 
ATOM     13  N   UNL     1      -2.893  12.721  20.700  0.00  0.00    +0.000 NA
ATOM     14  C   UNL     1      -2.229  11.944  19.812  0.00  0.00    +0.000 A 
ATOM     15  C   UNL     1      -2.776  11.963  18.416  0.00  0.00    +0.000 C 
ATOM     16  C   UNL     1      -1.118  11.170  20.163  0.00  0.00    +0.000 A 
ATOM     17  C   UNL     1      -0.355  10.330  19.295  0.00  0.00    +0.000 A 
ENDROOT
BRANCH   1  20
ATOM     18  C   UNL     1       1.973   7.509  19.209  0.00  0.00    +0.000 C 
ATOM     19  O   UNL     1       1.901   6.939  20.291  0.00  0.00    +0.000 OA
ATOM     20  N   UNL     1       1.446   8.747  18.889  0.00  0.00    +0.000 N 
ATOM     21  H   UNL     1       1.529   9.061  17.932  0.00  0.00    +0.000 HD
BRANCH  18  24
ATOM     22  C   UNL     1       4.141   5.370  19.594  0.00  0.00    +0.000 C 
ATOM     23  C   UNL     1       3.704   5.980  18.287  0.00  0.00    +0.000 C 
ATOM     24  C   UNL     1       2.705   6.863  18.088  0.00  0.00    +0.000 C 
BRANCH  23  25
ATOM     25  C   UNL     1       4.509   5.553  17.130  0.00  0.00    +0.000 A 
ATOM     26  C   UNL     1       4.794   4.193  16.942  0.00  0.00    +0.000 A 
ATOM     27  C   UNL     1       5.543   3.774  15.841  0.00  0.00    +0.000 A 
ATOM     28  C   UNL     1       6.012   4.715  14.927  0.00  0.00    +0.000 A 
ATOM     29 CL   UNL     1       6.944   4.199  13.575  0.00  0.00    +0.000 Cl
ATOM     30  C   UNL     1       5.729   6.070  15.101  0.00  0.00    +0.000 A 
ATOM     31  C   UNL     1       4.979   6.489  16.202  0.00  0.00    +0.000 A 
ENDBRANCH  23  25
ENDBRANCH  18  24
ENDBRANCH   1  20
BRANCH  10  32
ATOM     32  C   UNL     1      -2.903  17.556  24.192  0.00  0.00    +0.000 C 
ATOM     33  C   UNL     1      -3.578  18.564  25.092  0.00  0.00    +0.000 C 
ATOM     34  C   UNL     1      -2.180  18.114  25.402  0.00  0.00    +0.000 C 
ENDBRANCH  10  32
BRANCH  10  35
ATOM     35  O   UNL     1      -4.521  15.953  24.988  0.00  0.00    +0.000 OA
ATOM     36  H   UNL     1      -4.438  16.628  25.682  0.00  0.00    +0.000 HD
ENDBRANCH  10  35
TORSDOF 5
ENDMDL
