MODEL 1
REMARK VINA RESULT:      -6.6      0.000      0.000
REMARK  Name = 
REMARK  7 active torsions:
REMARK  status: ('A' for Active; 'I' for Inactive)
REMARK    1  A    between atoms: C_1  and  C_2
REMARK    2  A    between atoms: C_6  and  C_7
REMARK    3  A    between atoms: C_7  and  N_8
REMARK    4  A    between atoms: N_8  and  C_9
REMARK    5  A    between atoms: C_9  and  C_10
REMARK    6  A    between atoms: C_10  and  S_11
REMARK    7  A    between atoms: S_11  and  N_14
REMARK                            x       y       z     vdW  Elec       q    Type
REMARK                         _______ _______ _______ _____ _____    ______ ____
ROOT
ATOM      1  C   UNL     1       4.868   6.288  16.471  0.00  0.00    +0.000 C 
ENDROOT
BRANCH   1   2
ATOM      2  N   UNL     1       6.273   5.929  16.584  0.00  0.00    +0.000 NA
ATOM      3  H   UNL     1       6.880   6.570  16.075  0.00  0.00    +0.000 HD
BRANCH   2   4
ATOM      4  C   UNL     1       6.557   4.561  16.169  0.00  0.00    +0.000 C 
BRANCH   4  10
ATOM      5  C   UNL     1       5.396   2.527  11.671  0.00  0.00    +0.000 C 
ATOM      6  C   UNL     1       6.187   3.507  12.489  0.00  0.00    +0.000 A 
ATOM      7  C   UNL     1       7.120   4.355  11.886  0.00  0.00    +0.000 A 
ATOM      8  C   UNL     1       7.855   5.256  12.656  0.00  0.00    +0.000 A 
ATOM      9  C   UNL     1       7.671   5.310  14.039  0.00  0.00    +0.000 A 
ATOM     10  C   UNL     1       6.755   4.460  14.670  0.00  0.00    +0.000 A 
ATOM     11  C   UNL     1       6.002   3.574  13.877  0.00  0.00    +0.000 A 
ENDBRANCH   4  10
ENDBRANCH   2   4
ENDBRANCH   1   2
BRANCH   1  12
ATOM     12  C   UNL     1       4.310   6.757  17.811  0.00  0.00    +0.000 C 
BRANCH  12  13
ATOM     13  S   UNL     1       3.961   5.397  18.922  0.00  0.00    +0.000 S 
ATOM     14  O   UNL     1       5.223   4.834  19.363  0.00  0.00    +0.000 OA
ATOM     15  O   UNL     1       2.921   5.752  19.859  0.00  0.00    +0.000 OA
BRANCH  13  16
ATOM     16  N   UNL     1       3.265   4.266  17.848  0.00  0.00    +0.000 NA
ATOM     17  C   UNL     1       1.768   4.209  17.796  0.00  0.00    +0.000 C 
ATOM     18  C   UNL     1       1.159   3.238  18.818  0.00  0.00    +0.000 C 
ATOM     19  O   UNL     1       1.780   1.947  18.782  0.00  0.00    +0.000 OA
ATOM     20  C   UNL     1       3.186   2.072  19.039  0.00  0.00    +0.000 C 
ATOM     21  C   UNL     1       3.844   2.888  17.924  0.00  0.00    +0.000 C 
ENDBRANCH  13  16
ENDBRANCH  12  13
ENDBRANCH   1  12
TORSDOF 6
ENDMDL
MODEL 2
REMARK VINA RESULT:      -6.5      1.039      1.073
REMARK  Name = 
REMARK  7 active torsions:
REMARK  status: ('A' for Active; 'I' for Inactive)
REMARK    1  A    between atoms: C_1  and  C_2
REMARK    2  A    between atoms: C_6  and  C_7
REMARK    3  A    between atoms: C_7  and  N_8
REMARK    4  A    between atoms: N_8  and  C_9
REMARK    5  A    between atoms: C_9  and  C_10
REMARK    6  A    between atoms: C_10  and  S_11
REMARK    7  A    between atoms: S_11  and  N_14
REMARK                            x       y       z     vdW  Elec       q    Type
REMARK                         _______ _______ _______ _____ _____    ______ ____
ROOT
ATOM      1  C   UNL     1       5.756   6.066  17.683  0.00  0.00    +0.000 C 
ENDROOT
BRANCH   1   2
ATOM      2  N   UNL     1       5.670   5.670  16.286  0.00  0.00    +0.000 NA
ATOM      3  H   UNL     1       4.715   5.461  15.999  0.00  0.00    +0.000 HD
BRANCH   2   4
ATOM      4  C   UNL     1       6.534   4.546  15.947  0.00  0.00    +0.000 C 
BRANCH   4  10
ATOM      5  C   UNL     1       5.423   2.427  11.476  0.00  0.00    +0.000 C 
ATOM      6  C   UNL     1       6.192   3.434  12.281  0.00  0.00    +0.000 A 
ATOM      7  C   UNL     1       7.109   4.292  11.668  0.00  0.00    +0.000 A 
ATOM      8  C   UNL     1       7.824   5.218  12.427  0.00  0.00    +0.000 A 
ATOM      9  C   UNL     1       7.637   5.288  13.808  0.00  0.00    +0.000 A 
ATOM     10  C   UNL     1       6.737   4.429  14.450  0.00  0.00    +0.000 A 
ATOM     11  C   UNL     1       6.003   3.517  13.668  0.00  0.00    +0.000 A 
ENDBRANCH   4  10
ENDBRANCH   2   4
ENDBRANCH   1   2
BRANCH   1  12
ATOM     12  C   UNL     1       6.096   4.875  18.573  0.00  0.00    +0.000 C 
BRANCH  12  13
ATOM     13  S   UNL     1       4.646   4.154  19.338  0.00  0.00    +0.000 S 
ATOM     14  O   UNL     1       5.050   2.947  20.034  0.00  0.00    +0.000 OA
ATOM     15  O   UNL     1       3.847   5.170  19.983  0.00  0.00    +0.000 OA
BRANCH  13  16
ATOM     16  N   UNL     1       3.762   3.659  17.964  0.00  0.00    +0.000 NA
ATOM     17  C   UNL     1       2.540   4.455  17.616  0.00  0.00    +0.000 C 
ATOM     18  C   UNL     1       1.266   3.950  18.309  0.00  0.00    +0.000 C 
ATOM     19  O   UNL     1       1.086   2.536  18.159  0.00  0.00    +0.000 OA
ATOM     20  C   UNL     1       2.218   1.838  18.698  0.00  0.00    +0.000 C 
ATOM     21  C   UNL     1       3.473   2.192  17.897  0.00  0.00    +0.000 C 
ENDBRANCH  13  16
ENDBRANCH  12  13
ENDBRANCH   1  12
TORSDOF 6
ENDMDL
MODEL 3
REMARK VINA RESULT:      -6.5      5.560      7.138
REMARK  Name = 
REMARK  7 active torsions:
REMARK  status: ('A' for Active; 'I' for Inactive)
REMARK    1  A    between atoms: C_1  and  C_2
REMARK    2  A    between atoms: C_6  and  C_7
REMARK    3  A    between atoms: C_7  and  N_8
REMARK    4  A    between atoms: N_8  and  C_9
REMARK    5  A    between atoms: C_9  and  C_10
REMARK    6  A    between atoms: C_10  and  S_11
REMARK    7  A    between atoms: S_11  and  N_14
REMARK                            x       y       z     vdW  Elec       q    Type
REMARK                         _______ _______ _______ _____ _____    ______ ____
ROOT
ATOM      1  C   UNL     1       7.529   8.124  17.652  0.00  0.00    +0.000 C 
ENDROOT
BRANCH   1   2
ATOM      2  N   UNL     1       8.222   9.395  17.791  0.00  0.00    +0.000 NA
ATOM      3  H   UNL     1       8.880   9.565  17.032  0.00  0.00    +0.000 HD
BRANCH   2   4
ATOM      4  C   UNL     1       8.907   9.546  19.069  0.00  0.00    +0.000 C 
BRANCH   4  10
ATOM      5  C   UNL     1      11.390  13.262  16.673  0.00  0.00    +0.000 C 
ATOM      6  C   UNL     1      10.966  12.595  17.950  0.00  0.00    +0.000 A 
ATOM      7  C   UNL     1      11.366  13.102  19.189  0.00  0.00    +0.000 A 
ATOM      8  C   UNL     1      10.972  12.470  20.369  0.00  0.00    +0.000 A 
ATOM      9  C   UNL     1      10.185  11.319  20.319  0.00  0.00    +0.000 A 
ATOM     10  C   UNL     1       9.785  10.781  19.090  0.00  0.00    +0.000 A 
ATOM     11  C   UNL     1      10.168  11.444  17.909  0.00  0.00    +0.000 A 
ENDBRANCH   4  10
ENDBRANCH   2   4
ENDBRANCH   1   2
BRANCH   1  12
ATOM     12  C   UNL     1       8.186   7.042  18.503  0.00  0.00    +0.000 C 
BRANCH  12  13
ATOM     13  S   UNL     1       7.242   5.520  18.525  0.00  0.00    +0.000 S 
ATOM     14  O   UNL     1       8.003   4.501  17.828  0.00  0.00    +0.000 OA
ATOM     15  O   UNL     1       6.679   5.285  19.834  0.00  0.00    +0.000 OA
BRANCH  13  16
ATOM     16  N   UNL     1       5.929   5.933  17.514  0.00  0.00    +0.000 NA
ATOM     17  C   UNL     1       4.557   5.853  18.111  0.00  0.00    +0.000 C 
ATOM     18  C   UNL     1       3.909   4.468  17.967  0.00  0.00    +0.000 C 
ATOM     19  O   UNL     1       3.976   3.971  16.624  0.00  0.00    +0.000 OA
ATOM     20  C   UNL     1       5.343   3.893  16.198  0.00  0.00    +0.000 C 
ATOM     21  C   UNL     1       5.954   5.296  16.160  0.00  0.00    +0.000 C 
ENDBRANCH  13  16
ENDBRANCH  12  13
ENDBRANCH   1  12
TORSDOF 6
ENDMDL
MODEL 4
REMARK VINA RESULT:      -6.4      1.449      1.747
REMARK  Name = 
REMARK  7 active torsions:
REMARK  status: ('A' for Active; 'I' for Inactive)
REMARK    1  A    between atoms: C_1  and  C_2
REMARK    2  A    between atoms: C_6  and  C_7
REMARK    3  A    between atoms: C_7  and  N_8
REMARK    4  A    between atoms: N_8  and  C_9
REMARK    5  A    between atoms: C_9  and  C_10
REMARK    6  A    between atoms: C_10  and  S_11
REMARK    7  A    between atoms: S_11  and  N_14
REMARK                            x       y       z     vdW  Elec       q    Type
REMARK                         _______ _______ _______ _____ _____    ______ ____
ROOT
ATOM      1  C   UNL     1       5.210   6.516  17.406  0.00  0.00    +0.000 C 
ENDROOT
BRANCH   1   2
ATOM      2  N   UNL     1       5.284   5.844  16.118  0.00  0.00    +0.000 NA
ATOM      3  H   UNL     1       4.483   5.237  15.950  0.00  0.00    +0.000 HD
BRANCH   2   4
ATOM      4  C   UNL     1       6.514   5.085  15.929  0.00  0.00    +0.000 C 
BRANCH   4  10
ATOM      5  C   UNL     1       5.383   2.466  11.736  0.00  0.00    +0.000 C 
ATOM      6  C   UNL     1       6.197   3.519  12.430  0.00  0.00    +0.000 A 
ATOM      7  C   UNL     1       7.188   4.226  11.744  0.00  0.00    +0.000 A 
ATOM      8  C   UNL     1       7.944   5.197  12.400  0.00  0.00    +0.000 A 
ATOM      9  C   UNL     1       7.724   5.462  13.753  0.00  0.00    +0.000 A 
ATOM     10  C   UNL     1       6.749   4.756  14.468  0.00  0.00    +0.000 A 
ATOM     11  C   UNL     1       5.976   3.797  13.787  0.00  0.00    +0.000 A 
ENDBRANCH   4  10
ENDBRANCH   2   4
ENDBRANCH   1   2
BRANCH   1  12
ATOM     12  C   UNL     1       3.867   6.264  18.083  0.00  0.00    +0.000 C 
BRANCH  12  13
ATOM     13  S   UNL     1       3.596   4.530  18.442  0.00  0.00    +0.000 S 
ATOM     14  O   UNL     1       3.287   3.849  17.200  0.00  0.00    +0.000 OA
ATOM     15  O   UNL     1       4.600   4.031  19.352  0.00  0.00    +0.000 OA
BRANCH  13  16
ATOM     16  N   UNL     1       2.142   4.604  19.337  0.00  0.00    +0.000 NA
ATOM     17  C   UNL     1       2.265   4.738  20.825  0.00  0.00    +0.000 C 
ATOM     18  C   UNL     1       2.352   3.389  21.553  0.00  0.00    +0.000 C 
ATOM     19  O   UNL     1       1.321   2.481  21.146  0.00  0.00    +0.000 OA
ATOM     20  C   UNL     1       1.399   2.253  19.732  0.00  0.00    +0.000 C 
ATOM     21  C   UNL     1       1.131   3.560  18.982  0.00  0.00    +0.000 C 
ENDBRANCH  13  16
ENDBRANCH  12  13
ENDBRANCH   1  12
TORSDOF 6
ENDMDL
MODEL 5
REMARK VINA RESULT:      -6.3      2.158      3.510
REMARK  Name = 
REMARK  7 active torsions:
REMARK  status: ('A' for Active; 'I' for Inactive)
REMARK    1  A    between atoms: C_1  and  C_2
REMARK    2  A    between atoms: C_6  and  C_7
REMARK    3  A    between atoms: C_7  and  N_8
REMARK    4  A    between atoms: N_8  and  C_9
REMARK    5  A    between atoms: C_9  and  C_10
REMARK    6  A    between atoms: C_10  and  S_11
REMARK    7  A    between atoms: S_11  and  N_14
REMARK                            x       y       z     vdW  Elec       q    Type
REMARK                         _______ _______ _______ _____ _____    ______ ____
ROOT
ATOM      1  C   UNL     1       2.668   6.245  19.627  0.00  0.00    +0.000 C 
ENDROOT
BRANCH   1   2
ATOM      2  N   UNL     1       2.743   6.203  18.175  0.00  0.00    +0.000 NA
ATOM      3  H   UNL     1       2.823   5.253  17.817  0.00  0.00    +0.000 HD
BRANCH   2   4
ATOM      4  C   UNL     1       3.818   7.020  17.625  0.00  0.00    +0.000 C 
BRANCH   4  10
ATOM      5  C   UNL     1       6.112   4.032  14.230  0.00  0.00    +0.000 C 
ATOM      6  C   UNL     1       6.126   4.752  15.548  0.00  0.00    +0.000 A 
ATOM      7  C   UNL     1       7.230   4.663  16.400  0.00  0.00    +0.000 A 
ATOM      8  C   UNL     1       7.230   5.329  17.625  0.00  0.00    +0.000 A 
ATOM      9  C   UNL     1       6.121   6.082  18.015  0.00  0.00    +0.000 A 
ATOM     10  C   UNL     1       4.996   6.174  17.188  0.00  0.00    +0.000 A 
ATOM     11  C   UNL     1       5.020   5.517  15.943  0.00  0.00    +0.000 A 
ENDBRANCH   4  10
ENDBRANCH   2   4
ENDBRANCH   1   2
BRANCH   1  12
ATOM     12  C   UNL     1       3.245   4.975  20.245  0.00  0.00    +0.000 C 
BRANCH  12  13
ATOM     13  S   UNL     1       1.973   3.821  20.753  0.00  0.00    +0.000 S 
ATOM     14  O   UNL     1       2.136   3.557  22.169  0.00  0.00    +0.000 OA
ATOM     15  O   UNL     1       0.693   4.188  20.191  0.00  0.00    +0.000 OA
BRANCH  13  16
ATOM     16  N   UNL     1       2.463   2.408  19.928  0.00  0.00    +0.000 NA
ATOM     17  C   UNL     1       3.937   2.182  19.781  0.00  0.00    +0.000 C 
ATOM     18  C   UNL     1       4.529   2.823  18.517  0.00  0.00    +0.000 C 
ATOM     19  O   UNL     1       3.782   2.497  17.339  0.00  0.00    +0.000 OA
ATOM     20  C   UNL     1       2.422   2.927  17.486  0.00  0.00    +0.000 C 
ATOM     21  C   UNL     1       1.759   2.159  18.632  0.00  0.00    +0.000 C 
ENDBRANCH  13  16
ENDBRANCH  12  13
ENDBRANCH   1  12
TORSDOF 6
ENDMDL
MODEL 6
REMARK VINA RESULT:      -6.3      2.072      3.257
REMARK  Name = 
REMARK  7 active torsions:
REMARK  status: ('A' for Active; 'I' for Inactive)
REMARK    1  A    between atoms: C_1  and  C_2
REMARK    2  A    between atoms: C_6  and  C_7
REMARK    3  A    between atoms: C_7  and  N_8
REMARK    4  A    between atoms: N_8  and  C_9
REMARK    5  A    between atoms: C_9  and  C_10
REMARK    6  A    between atoms: C_10  and  S_11
REMARK    7  A    between atoms: S_11  and  N_14
REMARK                            x       y       z     vdW  Elec       q    Type
REMARK                         _______ _______ _______ _____ _____    ______ ____
ROOT
ATOM      1  C   UNL     1       3.228   6.252  19.058  0.00  0.00    +0.000 C 
ENDROOT
BRANCH   1   2
ATOM      2  N   UNL     1       3.203   6.838  17.727  0.00  0.00    +0.000 NA
ATOM      3  H   UNL     1       2.857   6.188  17.022  0.00  0.00    +0.000 HD
BRANCH   2   4
ATOM      4  C   UNL     1       4.491   7.371  17.303  0.00  0.00    +0.000 C 
BRANCH   4  10
ATOM      5  C   UNL     1       6.091   4.081  13.791  0.00  0.00    +0.000 C 
ATOM      6  C   UNL     1       6.229   4.697  15.153  0.00  0.00    +0.000 A 
ATOM      7  C   UNL     1       7.230   4.274  16.032  0.00  0.00    +0.000 A 
ATOM      8  C   UNL     1       7.344   4.848  17.298  0.00  0.00    +0.000 A 
ATOM      9  C   UNL     1       6.451   5.841  17.701  0.00  0.00    +0.000 A 
ATOM     10  C   UNL     1       5.429   6.271  16.847  0.00  0.00    +0.000 A 
ATOM     11  C   UNL     1       5.341   5.702  15.563  0.00  0.00    +0.000 A 
ENDBRANCH   4  10
ENDBRANCH   2   4
ENDBRANCH   1   2
BRANCH   1  12
ATOM     12  C   UNL     1       2.058   5.294  19.260  0.00  0.00    +0.000 C 
BRANCH  12  13
ATOM     13  S   UNL     1       2.052   3.959  18.067  0.00  0.00    +0.000 S 
ATOM     14  O   UNL     1       0.839   4.058  17.278  0.00  0.00    +0.000 OA
ATOM     15  O   UNL     1       3.349   3.816  17.449  0.00  0.00    +0.000 OA
BRANCH  13  16
ATOM     16  N   UNL     1       1.864   2.605  19.091  0.00  0.00    +0.000 NA
ATOM     17  C   UNL     1       1.195   2.837  20.412  0.00  0.00    +0.000 C 
ATOM     18  C   UNL     1       2.172   3.231  21.528  0.00  0.00    +0.000 C 
ATOM     19  O   UNL     1       3.297   2.348  21.607  0.00  0.00    +0.000 OA
ATOM     20  C   UNL     1       4.000   2.336  20.357  0.00  0.00    +0.000 C 
ATOM     21  C   UNL     1       3.094   1.770  19.261  0.00  0.00    +0.000 C 
ENDBRANCH  13  16
ENDBRANCH  12  13
ENDBRANCH   1  12
TORSDOF 6
ENDMDL
MODEL 7
REMARK VINA RESULT:      -6.3      3.721      7.460
REMARK  Name = 
REMARK  7 active torsions:
REMARK  status: ('A' for Active; 'I' for Inactive)
REMARK    1  A    between atoms: C_1  and  C_2
REMARK    2  A    between atoms: C_6  and  C_7
REMARK    3  A    between atoms: C_7  and  N_8
REMARK    4  A    between atoms: N_8  and  C_9
REMARK    5  A    between atoms: C_9  and  C_10
REMARK    6  A    between atoms: C_10  and  S_11
REMARK    7  A    between atoms: S_11  and  N_14
REMARK                            x       y       z     vdW  Elec       q    Type
REMARK                         _______ _______ _______ _____ _____    ______ ____
ROOT
ATOM      1  C   UNL     1       2.415   5.595  18.395  0.00  0.00    +0.000 C 
ENDROOT
BRANCH   1   2
ATOM      2  N   UNL     1       2.878   6.871  18.918  0.00  0.00    +0.000 NA
ATOM      3  H   UNL     1       2.632   7.002  19.898  0.00  0.00    +0.000 HD
BRANCH   2   4
ATOM      4  C   UNL     1       2.417   8.017  18.145  0.00  0.00    +0.000 C 
BRANCH   4  10
ATOM      5  C   UNL     1       0.143   9.308  22.490  0.00  0.00    +0.000 C 
ATOM      6  C   UNL     1       0.323   9.497  21.012  0.00  0.00    +0.000 A 
ATOM      7  C   UNL     1      -0.428  10.447  20.315  0.00  0.00    +0.000 A 
ATOM      8  C   UNL     1      -0.257  10.610  18.940  0.00  0.00    +0.000 A 
ATOM      9  C   UNL     1       0.658   9.816  18.248  0.00  0.00    +0.000 A 
ATOM     10  C   UNL     1       1.411   8.845  18.919  0.00  0.00    +0.000 A 
ATOM     11  C   UNL     1       1.247   8.710  20.310  0.00  0.00    +0.000 A 
ENDBRANCH   4  10
ENDBRANCH   2   4
ENDBRANCH   1   2
BRANCH   1  12
ATOM     12  C   UNL     1       2.931   4.434  19.239  0.00  0.00    +0.000 C 
BRANCH  12  13
ATOM     13  S   UNL     1       4.367   3.646  18.514  0.00  0.00    +0.000 S 
ATOM     14  O   UNL     1       5.290   3.311  19.581  0.00  0.00    +0.000 OA
ATOM     15  O   UNL     1       3.973   2.676  17.519  0.00  0.00    +0.000 OA
BRANCH  13  16
ATOM     16  N   UNL     1       5.059   4.950  17.655  0.00  0.00    +0.000 NA
ATOM     17  C   UNL     1       5.137   4.819  16.164  0.00  0.00    +0.000 C 
ATOM     18  C   UNL     1       6.426   4.141  15.678  0.00  0.00    +0.000 C 
ATOM     19  O   UNL     1       7.600   4.719  16.261  0.00  0.00    +0.000 OA
ATOM     20  C   UNL     1       7.535   4.625  17.691  0.00  0.00    +0.000 C 
ATOM     21  C   UNL     1       6.355   5.451  18.209  0.00  0.00    +0.000 C 
ENDBRANCH  13  16
ENDBRANCH  12  13
ENDBRANCH   1  12
TORSDOF 6
ENDMDL
MODEL 8
REMARK VINA RESULT:      -6.3      1.179      1.504
REMARK  Name = 
REMARK  7 active torsions:
REMARK  status: ('A' for Active; 'I' for Inactive)
REMARK    1  A    between atoms: C_1  and  C_2
REMARK    2  A    between atoms: C_6  and  C_7
REMARK    3  A    between atoms: C_7  and  N_8
REMARK    4  A    between atoms: N_8  and  C_9
REMARK    5  A    between atoms: C_9  and  C_10
REMARK    6  A    between atoms: C_10  and  S_11
REMARK    7  A    between atoms: S_11  and  N_14
REMARK                            x       y       z     vdW  Elec       q    Type
REMARK                         _______ _______ _______ _____ _____    ______ ____
ROOT
ATOM      1  C   UNL     1       4.156   5.816  17.032  0.00  0.00    +0.000 C 
ENDROOT
BRANCH   1   2
ATOM      2  N   UNL     1       5.109   6.089  15.967  0.00  0.00    +0.000 NA
ATOM      3  H   UNL     1       4.662   6.159  15.054  0.00  0.00    +0.000 HD
BRANCH   2   4
ATOM      4  C   UNL     1       6.198   5.123  15.900  0.00  0.00    +0.000 C 
BRANCH   4  10
ATOM      5  C   UNL     1       5.306   2.485  11.662  0.00  0.00    +0.000 C 
ATOM      6  C   UNL     1       6.105   3.515  12.408  0.00  0.00    +0.000 A 
ATOM      7  C   UNL     1       7.177   4.170  11.797  0.00  0.00    +0.000 A 
ATOM      8  C   UNL     1       7.916   5.120  12.501  0.00  0.00    +0.000 A 
ATOM      9  C   UNL     1       7.597   5.415  13.827  0.00  0.00    +0.000 A 
ATOM     10  C   UNL     1       6.538   4.761  14.469  0.00  0.00    +0.000 A 
ATOM     11  C   UNL     1       5.785   3.824  13.738  0.00  0.00    +0.000 A 
ENDBRANCH   4  10
ENDBRANCH   2   4
ENDBRANCH   1   2
BRANCH   1  12
ATOM     12  C   UNL     1       4.262   4.371  17.508  0.00  0.00    +0.000 C 
BRANCH  12  13
ATOM     13  S   UNL     1       4.432   4.246  19.287  0.00  0.00    +0.000 S 
ATOM     14  O   UNL     1       5.810   3.912  19.591  0.00  0.00    +0.000 OA
ATOM     15  O   UNL     1       3.753   5.338  19.945  0.00  0.00    +0.000 OA
BRANCH  13  16
ATOM     16  N   UNL     1       3.504   2.849  19.608  0.00  0.00    +0.000 NA
ATOM     17  C   UNL     1       2.624   2.347  18.503  0.00  0.00    +0.000 C 
ATOM     18  C   UNL     1       1.223   2.974  18.507  0.00  0.00    +0.000 C 
ATOM     19  O   UNL     1       0.603   2.920  19.797  0.00  0.00    +0.000 OA
ATOM     20  C   UNL     1       1.420   3.598  20.762  0.00  0.00    +0.000 C 
ATOM     21  C   UNL     1       2.760   2.873  20.906  0.00  0.00    +0.000 C 
ENDBRANCH  13  16
ENDBRANCH  12  13
ENDBRANCH   1  12
TORSDOF 6
ENDMDL
MODEL 9
REMARK VINA RESULT:      -6.3      2.296      3.999
REMARK  Name = 
REMARK  7 active torsions:
REMARK  status: ('A' for Active; 'I' for Inactive)
REMARK    1  A    between atoms: C_1  and  C_2
REMARK    2  A    between atoms: C_6  and  C_7
REMARK    3  A    between atoms: C_7  and  N_8
REMARK    4  A    between atoms: N_8  and  C_9
REMARK    5  A    between atoms: C_9  and  C_10
REMARK    6  A    between atoms: C_10  and  S_11
REMARK    7  A    between atoms: S_11  and  N_14
REMARK                            x       y       z     vdW  Elec       q    Type
REMARK                         _______ _______ _______ _____ _____    ______ ____
ROOT
ATOM      1  C   UNL     1       4.406   3.926  16.338  0.00  0.00    +0.000 C 
ENDROOT
BRANCH   1   2
ATOM      2  N   UNL     1       5.792   3.509  16.486  0.00  0.00    +0.000 NA
ATOM      3  H   UNL     1       6.032   3.293  17.452  0.00  0.00    +0.000 HD
BRANCH   2   4
ATOM      4  C   UNL     1       6.748   4.471  15.952  0.00  0.00    +0.000 C 
BRANCH   4  10
ATOM      5  C   UNL     1       7.945   9.079  17.698  0.00  0.00    +0.000 C 
ATOM      6  C   UNL     1       7.854   7.595  17.904  0.00  0.00    +0.000 A 
ATOM      7  C   UNL     1       8.267   7.012  19.105  0.00  0.00    +0.000 A 
ATOM      8  C   UNL     1       8.185   5.631  19.283  0.00  0.00    +0.000 A 
ATOM      9  C   UNL     1       7.700   4.819  18.257  0.00  0.00    +0.000 A 
ATOM     10  C   UNL     1       7.296   5.375  17.038  0.00  0.00    +0.000 A 
ATOM     11  C   UNL     1       7.360   6.773  16.882  0.00  0.00    +0.000 A 
ENDBRANCH   4  10
ENDBRANCH   2   4
ENDBRANCH   1   2
BRANCH   1  12
ATOM     12  C   UNL     1       4.164   5.278  17.000  0.00  0.00    +0.000 C 
BRANCH  12  13
ATOM     13  S   UNL     1       3.526   5.121  18.666  0.00  0.00    +0.000 S 
ATOM     14  O   UNL     1       4.625   5.301  19.595  0.00  0.00    +0.000 OA
ATOM     15  O   UNL     1       2.284   5.844  18.811  0.00  0.00    +0.000 OA
BRANCH  13  16
ATOM     16  N   UNL     1       3.115   3.463  18.705  0.00  0.00    +0.000 NA
ATOM     17  C   UNL     1       1.670   3.115  18.512  0.00  0.00    +0.000 C 
ATOM     18  C   UNL     1       0.869   3.088  19.821  0.00  0.00    +0.000 C 
ATOM     19  O   UNL     1       1.511   2.310  20.838  0.00  0.00    +0.000 OA
ATOM     20  C   UNL     1       2.820   2.834  21.104  0.00  0.00    +0.000 C 
ATOM     21  C   UNL     1       3.693   2.699  19.854  0.00  0.00    +0.000 C 
ENDBRANCH  13  16
ENDBRANCH  12  13
ENDBRANCH   1  12
TORSDOF 6
ENDMDL
