MODEL 1
REMARK VINA RESULT:      -8.4      0.000      0.000
REMARK  Name = 
REMARK  11 active torsions:
REMARK  status: ('A' for Active; 'I' for Inactive)
REMARK    1  A    between atoms: C_1  and  O_2
REMARK    2  A    between atoms: O_2  and  C_3
REMARK    3  A    between atoms: C_7  and  C_8
REMARK    4  A    between atoms: N_10  and  C_11
REMARK    5  A    between atoms: N_10  and  C_27
REMARK    6  A    between atoms: C_11  and  C_12
REMARK    7  A    between atoms: C_15  and  C_16
REMARK    8  A    between atoms: C_16  and  O_17
REMARK    9  A    between atoms: O_17  and  C_18
REMARK   10  A    between atoms: C_20  and  C_21
REMARK   11  A    between atoms: C_23  and  C_24
REMARK                            x       y       z     vdW  Elec       q    Type
REMARK                         _______ _______ _______ _____ _____    ______ ____
ROOT
ATOM      1  C   UNL     1       3.501   5.017  20.074  0.00  0.00    +0.000 C 
ENDROOT
BRANCH   1   2
ATOM      2  C   UNL     1       2.888   6.277  19.501  0.00  0.00    +0.000 A 
ATOM      3  C   UNL     1       3.113   6.782  18.233  0.00  0.00    +0.000 A 
ATOM      4  S   UNL     1       2.240   8.241  18.002  0.00  0.00    +0.000 S 
ATOM      5  C   UNL     1       1.643   8.143  19.614  0.00  0.00    +0.000 A 
ATOM      6  N   UNL     1       1.987   7.036  20.254  0.00  0.00    +0.000 NA
BRANCH   5   7
ATOM      7  C   UNL     1       0.991   9.341  20.277  0.00  0.00    +0.000 C 
BRANCH   7   8
ATOM      8  O   UNL     1       0.855  10.449  19.373  0.00  0.00    +0.000 OA
BRANCH   8   9
ATOM      9  C   UNL     1      -0.437  10.699  18.946  0.00  0.00    +0.000 A 
ATOM     10  C   UNL     1      -1.180  11.604  19.720  0.00  0.00    +0.000 A 
ATOM     11  C   UNL     1      -2.514  11.919  19.390  0.00  0.00    +0.000 A 
ATOM     12  C   UNL     1      -3.343  12.842  20.234  0.00  0.00    +0.000 C 
ATOM     13  C   UNL     1      -3.095  11.333  18.264  0.00  0.00    +0.000 A 
ATOM     14  C   UNL     1      -2.368  10.442  17.468  0.00  0.00    +0.000 A 
ATOM     15  C   UNL     1      -3.010   9.825  16.257  0.00  0.00    +0.000 C 
ATOM     16  C   UNL     1      -1.038  10.140  17.810  0.00  0.00    +0.000 A 
ENDBRANCH   8   9
ENDBRANCH   7   8
ENDBRANCH   5   7
ENDBRANCH   1   2
BRANCH   1  19
ATOM     17  C   UNL     1       3.925   3.317  18.152  0.00  0.00    +0.000 C 
ATOM     18  O   UNL     1       3.691   2.168  17.747  0.00  0.00    +0.000 OA
ATOM     19  N   UNL     1       3.212   3.825  19.250  0.00  0.00    +0.000 N 
BRANCH  17  24
ATOM     20  C   UNL     1       6.895   5.522  17.070  0.00  0.00    +0.000 A 
ATOM     21  C   UNL     1       6.766   5.417  15.682  0.00  0.00    +0.000 A 
ATOM     22  C   UNL     1       5.741   4.662  15.129  0.00  0.00    +0.000 A 
ATOM     23  C   UNL     1       4.874   3.970  15.973  0.00  0.00    +0.000 A 
ATOM     24  C   UNL     1       4.987   4.041  17.380  0.00  0.00    +0.000 A 
ATOM     25  C   UNL     1       5.978   4.874  17.917  0.00  0.00    +0.000 A 
BRANCH  20  27
ATOM     26  C   UNL     1       7.700   7.690  17.645  0.00  0.00    +0.000 C 
ATOM     27  O   UNL     1       7.945   6.306  17.458  0.00  0.00    +0.000 OA
ENDBRANCH  20  27
ENDBRANCH  17  24
BRANCH  19  28
ATOM     28  C   UNL     1       2.189   2.935  19.792  0.00  0.00    +0.000 C 
ATOM     29  C   UNL     1       1.200   3.343  20.855  0.00  0.00    +0.000 C 
ATOM     30  C   UNL     1       0.732   3.141  19.450  0.00  0.00    +0.000 C 
ENDBRANCH  19  28
ENDBRANCH   1  19
TORSDOF 8
ENDMDL
MODEL 2
REMARK VINA RESULT:      -8.3      1.414      2.445
REMARK  Name = 
REMARK  11 active torsions:
REMARK  status: ('A' for Active; 'I' for Inactive)
REMARK    1  A    between atoms: C_1  and  O_2
REMARK    2  A    between atoms: O_2  and  C_3
REMARK    3  A    between atoms: C_7  and  C_8
REMARK    4  A    between atoms: N_10  and  C_11
REMARK    5  A    between atoms: N_10  and  C_27
REMARK    6  A    between atoms: C_11  and  C_12
REMARK    7  A    between atoms: C_15  and  C_16
REMARK    8  A    between atoms: C_16  and  O_17
REMARK    9  A    between atoms: O_17  and  C_18
REMARK   10  A    between atoms: C_20  and  C_21
REMARK   11  A    between atoms: C_23  and  C_24
REMARK                            x       y       z     vdW  Elec       q    Type
REMARK                         _______ _______ _______ _____ _____    ______ ____
ROOT
ATOM      1  C   UNL     1       2.330   4.541  17.906  0.00  0.00    +0.000 C 
ENDROOT
BRANCH   1   2
ATOM      2  C   UNL     1       2.206   5.834  18.684  0.00  0.00    +0.000 A 
ATOM      3  C   UNL     1       2.071   5.941  20.056  0.00  0.00    +0.000 A 
ATOM      4  S   UNL     1       1.938   7.588  20.522  0.00  0.00    +0.000 S 
ATOM      5  C   UNL     1       2.028   8.065  18.869  0.00  0.00    +0.000 A 
ATOM      6  N   UNL     1       2.248   7.067  18.027  0.00  0.00    +0.000 NA
BRANCH   5   7
ATOM      7  C   UNL     1       1.644   9.468  18.442  0.00  0.00    +0.000 C 
BRANCH   7   8
ATOM      8  O   UNL     1       0.473   9.477  17.609  0.00  0.00    +0.000 OA
BRANCH   8   9
ATOM      9  C   UNL     1      -0.579  10.237  18.088  0.00  0.00    +0.000 A 
ATOM     10  C   UNL     1      -1.757  10.215  17.324  0.00  0.00    +0.000 A 
ATOM     11  C   UNL     1      -2.886  10.967  17.707  0.00  0.00    +0.000 A 
ATOM     12  C   UNL     1      -4.135  11.001  16.877  0.00  0.00    +0.000 C 
ATOM     13  C   UNL     1      -2.833  11.731  18.875  0.00  0.00    +0.000 A 
ATOM     14  C   UNL     1      -1.677  11.754  19.660  0.00  0.00    +0.000 A 
ATOM     15  C   UNL     1      -1.641  12.580  20.917  0.00  0.00    +0.000 C 
ATOM     16  C   UNL     1      -0.560  10.996  19.266  0.00  0.00    +0.000 A 
ENDBRANCH   8   9
ENDBRANCH   7   8
ENDBRANCH   5   7
ENDBRANCH   1   2
BRANCH   1  19
ATOM     17  C   UNL     1       4.484   3.526  18.952  0.00  0.00    +0.000 C 
ATOM     18  O   UNL     1       4.920   2.718  19.785  0.00  0.00    +0.000 OA
ATOM     19  N   UNL     1       3.117   3.521  18.628  0.00  0.00    +0.000 N 
BRANCH  17  24
ATOM     20  C   UNL     1       6.959   5.366  16.640  0.00  0.00    +0.000 A 
ATOM     21  C   UNL     1       7.615   6.156  17.587  0.00  0.00    +0.000 A 
ATOM     22  C   UNL     1       7.265   6.079  18.928  0.00  0.00    +0.000 A 
ATOM     23  C   UNL     1       6.217   5.242  19.310  0.00  0.00    +0.000 A 
ATOM     24  C   UNL     1       5.522   4.442  18.375  0.00  0.00    +0.000 A 
ATOM     25  C   UNL     1       5.946   4.475  17.039  0.00  0.00    +0.000 A 
BRANCH  20  27
ATOM     26  C   UNL     1       6.806   4.808  14.327  0.00  0.00    +0.000 C 
ATOM     27  O   UNL     1       7.423   5.549  15.368  0.00  0.00    +0.000 OA
ENDBRANCH  20  27
ENDBRANCH  17  24
BRANCH  19  28
ATOM     28  C   UNL     1       2.326   2.488  19.293  0.00  0.00    +0.000 C 
ATOM     29  C   UNL     1       1.191   2.784  20.241  0.00  0.00    +0.000 C 
ATOM     30  C   UNL     1       0.895   2.235  18.883  0.00  0.00    +0.000 C 
ENDBRANCH  19  28
ENDBRANCH   1  19
TORSDOF 8
ENDMDL
MODEL 3
REMARK VINA RESULT:      -8.2      1.238      1.378
REMARK  Name = 
REMARK  11 active torsions:
REMARK  status: ('A' for Active; 'I' for Inactive)
REMARK    1  A    between atoms: C_1  and  O_2
REMARK    2  A    between atoms: O_2  and  C_3
REMARK    3  A    between atoms: C_7  and  C_8
REMARK    4  A    between atoms: N_10  and  C_11
REMARK    5  A    between atoms: N_10  and  C_27
REMARK    6  A    between atoms: C_11  and  C_12
REMARK    7  A    between atoms: C_15  and  C_16
REMARK    8  A    between atoms: C_16  and  O_17
REMARK    9  A    between atoms: O_17  and  C_18
REMARK   10  A    between atoms: C_20  and  C_21
REMARK   11  A    between atoms: C_23  and  C_24
REMARK                            x       y       z     vdW  Elec       q    Type
REMARK                         _______ _______ _______ _____ _____    ______ ____
ROOT
ATOM      1  C   UNL     1       2.288   4.288  18.264  0.00  0.00    +0.000 C 
ENDROOT
BRANCH   1   2
ATOM      2  C   UNL     1       2.204   5.682  18.849  0.00  0.00    +0.000 A 
ATOM      3  C   UNL     1       1.972   5.989  20.177  0.00  0.00    +0.000 A 
ATOM      4  S   UNL     1       1.931   7.690  20.404  0.00  0.00    +0.000 S 
ATOM      5  C   UNL     1       2.183   7.924  18.716  0.00  0.00    +0.000 A 
ATOM      6  N   UNL     1       2.390   6.806  18.038  0.00  0.00    +0.000 NA
BRANCH   5   7
ATOM      7  C   UNL     1       1.942   9.276  18.073  0.00  0.00    +0.000 C 
BRANCH   7   8
ATOM      8  O   UNL     1       1.335  10.205  18.986  0.00  0.00    +0.000 OA
BRANCH   8   9
ATOM      9  C   UNL     1       0.013  10.511  18.714  0.00  0.00    +0.000 A 
ATOM     10  C   UNL     1      -0.595  11.441  19.572  0.00  0.00    +0.000 A 
ATOM     11  C   UNL     1      -1.944  11.813  19.402  0.00  0.00    +0.000 A 
ATOM     12  C   UNL     1      -2.629  12.764  20.338  0.00  0.00    +0.000 C 
ATOM     13  C   UNL     1      -2.677  11.258  18.351  0.00  0.00    +0.000 A 
ATOM     14  C   UNL     1      -2.087  10.343  17.474  0.00  0.00    +0.000 A 
ATOM     15  C   UNL     1      -2.892   9.760  16.346  0.00  0.00    +0.000 C 
ATOM     16  C   UNL     1      -0.740   9.985  17.656  0.00  0.00    +0.000 A 
ENDBRANCH   8   9
ENDBRANCH   7   8
ENDBRANCH   5   7
ENDBRANCH   1   2
BRANCH   1  19
ATOM     17  C   UNL     1       4.587   3.521  19.206  0.00  0.00    +0.000 C 
ATOM     18  O   UNL     1       5.147   2.852  20.088  0.00  0.00    +0.000 OA
ATOM     19  N   UNL     1       3.198   3.411  19.028  0.00  0.00    +0.000 N 
BRANCH  17  24
ATOM     20  C   UNL     1       7.135   6.176  18.062  0.00  0.00    +0.000 A 
ATOM     21  C   UNL     1       7.029   6.017  16.678  0.00  0.00    +0.000 A 
ATOM     22  C   UNL     1       6.150   5.083  16.146  0.00  0.00    +0.000 A 
ATOM     23  C   UNL     1       5.414   4.273  17.009  0.00  0.00    +0.000 A 
ATOM     24  C   UNL     1       5.510   4.398  18.413  0.00  0.00    +0.000 A 
ATOM     25  C   UNL     1       6.342   5.401  18.928  0.00  0.00    +0.000 A 
BRANCH  20  27
ATOM     26  C   UNL     1       7.954   8.397  17.778  0.00  0.00    +0.000 C 
ATOM     27  O   UNL     1       8.034   7.138  18.428  0.00  0.00    +0.000 OA
ENDBRANCH  20  27
ENDBRANCH  17  24
BRANCH  19  28
ATOM     28  C   UNL     1       2.536   2.441  19.897  0.00  0.00    +0.000 C 
ATOM     29  C   UNL     1       2.235   2.691  21.354  0.00  0.00    +0.000 C 
ATOM     30  C   UNL     1       1.117   2.670  20.362  0.00  0.00    +0.000 C 
ENDBRANCH  19  28
ENDBRANCH   1  19
TORSDOF 8
ENDMDL
MODEL 4
REMARK VINA RESULT:      -8.1      1.492      2.073
REMARK  Name = 
REMARK  11 active torsions:
REMARK  status: ('A' for Active; 'I' for Inactive)
REMARK    1  A    between atoms: C_1  and  O_2
REMARK    2  A    between atoms: O_2  and  C_3
REMARK    3  A    between atoms: C_7  and  C_8
REMARK    4  A    between atoms: N_10  and  C_11
REMARK    5  A    between atoms: N_10  and  C_27
REMARK    6  A    between atoms: C_11  and  C_12
REMARK    7  A    between atoms: C_15  and  C_16
REMARK    8  A    between atoms: C_16  and  O_17
REMARK    9  A    between atoms: O_17  and  C_18
REMARK   10  A    between atoms: C_20  and  C_21
REMARK   11  A    between atoms: C_23  and  C_24
REMARK                            x       y       z     vdW  Elec       q    Type
REMARK                         _______ _______ _______ _____ _____    ______ ____
ROOT
ATOM      1  C   UNL     1       3.304   4.670  19.495  0.00  0.00    +0.000 C 
ENDROOT
BRANCH   1   2
ATOM      2  C   UNL     1       2.606   5.986  19.769  0.00  0.00    +0.000 A 
ATOM      3  C   UNL     1       1.818   6.269  20.869  0.00  0.00    +0.000 A 
ATOM      4  S   UNL     1       1.201   7.868  20.774  0.00  0.00    +0.000 S 
ATOM      5  C   UNL     1       1.985   8.081  19.255  0.00  0.00    +0.000 A 
ATOM      6  N   UNL     1       2.745   7.062  18.888  0.00  0.00    +0.000 NA
BRANCH   5   7
ATOM      7  C   UNL     1       1.618   9.239  18.346  0.00  0.00    +0.000 C 
BRANCH   7   8
ATOM      8  O   UNL     1       1.031  10.330  19.075  0.00  0.00    +0.000 OA
BRANCH   8   9
ATOM      9  C   UNL     1      -0.280  10.617  18.741  0.00  0.00    +0.000 A 
ATOM     10  C   UNL     1      -0.941  11.541  19.565  0.00  0.00    +0.000 A 
ATOM     11  C   UNL     1      -2.285  11.894  19.331  0.00  0.00    +0.000 A 
ATOM     12  C   UNL     1      -3.027  12.837  20.231  0.00  0.00    +0.000 C 
ATOM     13  C   UNL     1      -2.961  11.325  18.249  0.00  0.00    +0.000 A 
ATOM     14  C   UNL     1      -2.318  10.416  17.404  0.00  0.00    +0.000 A 
ATOM     15  C   UNL     1      -3.062   9.818  16.242  0.00  0.00    +0.000 C 
ATOM     16  C   UNL     1      -0.976  10.077  17.650  0.00  0.00    +0.000 A 
ENDBRANCH   8   9
ENDBRANCH   7   8
ENDBRANCH   5   7
ENDBRANCH   1   2
BRANCH   1  19
ATOM     17  C   UNL     1       4.691   4.729  17.295  0.00  0.00    +0.000 C 
ATOM     18  O   UNL     1       4.812   4.240  16.163  0.00  0.00    +0.000 OA
ATOM     19  N   UNL     1       3.542   4.449  18.054  0.00  0.00    +0.000 N 
BRANCH  17  24
ATOM     20  C   UNL     1       7.362   7.489  17.608  0.00  0.00    +0.000 A 
ATOM     21  C   UNL     1       8.143   6.939  18.628  0.00  0.00    +0.000 A 
ATOM     22  C   UNL     1       7.810   5.710  19.181  0.00  0.00    +0.000 A 
ATOM     23  C   UNL     1       6.660   5.057  18.741  0.00  0.00    +0.000 A 
ATOM     24  C   UNL     1       5.839   5.593  17.723  0.00  0.00    +0.000 A 
ATOM     25  C   UNL     1       6.239   6.794  17.123  0.00  0.00    +0.000 A 
BRANCH  20  27
ATOM     26  C   UNL     1       8.440   9.555  18.108  0.00  0.00    +0.000 C 
ATOM     27  O   UNL     1       7.824   8.695  17.163  0.00  0.00    +0.000 OA
ENDBRANCH  20  27
ENDBRANCH  17  24
BRANCH  19  28
ATOM     28  C   UNL     1       2.542   3.620  17.384  0.00  0.00    +0.000 C 
ATOM     29  C   UNL     1       2.302   2.168  17.712  0.00  0.00    +0.000 C 
ATOM     30  C   UNL     1       1.288   3.193  18.108  0.00  0.00    +0.000 C 
ENDBRANCH  19  28
ENDBRANCH   1  19
TORSDOF 8
ENDMDL
MODEL 5
REMARK VINA RESULT:      -7.9      1.905      2.787
REMARK  Name = 
REMARK  11 active torsions:
REMARK  status: ('A' for Active; 'I' for Inactive)
REMARK    1  A    between atoms: C_1  and  O_2
REMARK    2  A    between atoms: O_2  and  C_3
REMARK    3  A    between atoms: C_7  and  C_8
REMARK    4  A    between atoms: N_10  and  C_11
REMARK    5  A    between atoms: N_10  and  C_27
REMARK    6  A    between atoms: C_11  and  C_12
REMARK    7  A    between atoms: C_15  and  C_16
REMARK    8  A    between atoms: C_16  and  O_17
REMARK    9  A    between atoms: O_17  and  C_18
REMARK   10  A    between atoms: C_20  and  C_21
REMARK   11  A    between atoms: C_23  and  C_24
REMARK                            x       y       z     vdW  Elec       q    Type
REMARK                         _______ _______ _______ _____ _____    ______ ____
ROOT
ATOM      1  C   UNL     1       2.390   4.812  17.896  0.00  0.00    +0.000 C 
ENDROOT
BRANCH   1   2
ATOM      2  C   UNL     1       2.209   6.117  18.643  0.00  0.00    +0.000 A 
ATOM      3  C   UNL     1       1.976   6.245  20.000  0.00  0.00    +0.000 A 
ATOM      4  S   UNL     1       1.807   7.899  20.429  0.00  0.00    +0.000 S 
ATOM      5  C   UNL     1       2.013   8.350  18.779  0.00  0.00    +0.000 A 
ATOM      6  N   UNL     1       2.294   7.340  17.971  0.00  0.00    +0.000 NA
BRANCH   5   7
ATOM      7  C   UNL     1       1.658   9.746  18.304  0.00  0.00    +0.000 C 
BRANCH   7   8
ATOM      8  O   UNL     1       0.246  10.001  18.392  0.00  0.00    +0.000 OA
BRANCH   8   9
ATOM      9  C   UNL     1      -0.110  11.025  19.252  0.00  0.00    +0.000 A 
ATOM     10  C   UNL     1      -0.038  12.325  18.728  0.00  0.00    +0.000 A 
ATOM     11  C   UNL     1      -0.359  13.446  19.520  0.00  0.00    +0.000 A 
ATOM     12  C   UNL     1      -0.238  14.848  18.998  0.00  0.00    +0.000 C 
ATOM     13  C   UNL     1      -0.772  13.253  20.840  0.00  0.00    +0.000 A 
ATOM     14  C   UNL     1      -0.867  11.966  21.377  0.00  0.00    +0.000 A 
ATOM     15  C   UNL     1      -1.318  11.779  22.800  0.00  0.00    +0.000 C 
ATOM     16  C   UNL     1      -0.546  10.859  20.573  0.00  0.00    +0.000 A 
ENDBRANCH   8   9
ENDBRANCH   7   8
ENDBRANCH   5   7
ENDBRANCH   1   2
BRANCH   1  19
ATOM     17  C   UNL     1       4.521   3.807  18.995  0.00  0.00    +0.000 C 
ATOM     18  O   UNL     1       4.941   3.039  19.873  0.00  0.00    +0.000 OA
ATOM     19  N   UNL     1       3.153   3.818  18.676  0.00  0.00    +0.000 N 
BRANCH  17  24
ATOM     20  C   UNL     1       6.951   5.523  16.543  0.00  0.00    +0.000 A 
ATOM     21  C   UNL     1       7.732   6.237  17.456  0.00  0.00    +0.000 A 
ATOM     22  C   UNL     1       7.476   6.150  18.817  0.00  0.00    +0.000 A 
ATOM     23  C   UNL     1       6.400   5.382  19.258  0.00  0.00    +0.000 A 
ATOM     24  C   UNL     1       5.580   4.660  18.361  0.00  0.00    +0.000 A 
ATOM     25  C   UNL     1       5.906   4.698  16.999  0.00  0.00    +0.000 A 
BRANCH  20  27
ATOM     26  C   UNL     1       6.872   4.770  14.283  0.00  0.00    +0.000 C 
ATOM     27  O   UNL     1       7.333   5.706  15.244  0.00  0.00    +0.000 OA
ENDBRANCH  20  27
ENDBRANCH  17  24
BRANCH  19  28
ATOM     28  C   UNL     1       2.339   2.847  19.403  0.00  0.00    +0.000 C 
ATOM     29  C   UNL     1       0.859   2.660  19.179  0.00  0.00    +0.000 C 
ATOM     30  C   UNL     1       1.816   1.612  18.710  0.00  0.00    +0.000 C 
ENDBRANCH  19  28
ENDBRANCH   1  19
TORSDOF 8
ENDMDL
MODEL 6
REMARK VINA RESULT:      -7.9      0.882      1.818
REMARK  Name = 
REMARK  11 active torsions:
REMARK  status: ('A' for Active; 'I' for Inactive)
REMARK    1  A    between atoms: C_1  and  O_2
REMARK    2  A    between atoms: O_2  and  C_3
REMARK    3  A    between atoms: C_7  and  C_8
REMARK    4  A    between atoms: N_10  and  C_11
REMARK    5  A    between atoms: N_10  and  C_27
REMARK    6  A    between atoms: C_11  and  C_12
REMARK    7  A    between atoms: C_15  and  C_16
REMARK    8  A    between atoms: C_16  and  O_17
REMARK    9  A    between atoms: O_17  and  C_18
REMARK   10  A    between atoms: C_20  and  C_21
REMARK   11  A    between atoms: C_23  and  C_24
REMARK                            x       y       z     vdW  Elec       q    Type
REMARK                         _______ _______ _______ _____ _____    ______ ____
ROOT
ATOM      1  C   UNL     1       2.946   5.348  19.718  0.00  0.00    +0.000 C 
ENDROOT
BRANCH   1   2
ATOM      2  C   UNL     1       2.524   6.728  19.260  0.00  0.00    +0.000 A 
ATOM      3  C   UNL     1       2.904   7.340  18.080  0.00  0.00    +0.000 A 
ATOM      4  S   UNL     1       2.220   8.909  17.966  0.00  0.00    +0.000 S 
ATOM      5  C   UNL     1       1.486   8.704  19.511  0.00  0.00    +0.000 A 
ATOM      6  N   UNL     1       1.654   7.501  20.036  0.00  0.00    +0.000 NA
BRANCH   5   7
ATOM      7  C   UNL     1       0.920   9.890  20.267  0.00  0.00    +0.000 C 
BRANCH   7   8
ATOM      8  O   UNL     1       0.627  10.994  19.395  0.00  0.00    +0.000 OA
BRANCH   8   9
ATOM      9  C   UNL     1      -0.713  11.157  19.089  0.00  0.00    +0.000 A 
ATOM     10  C   UNL     1      -1.176  10.467  17.958  0.00  0.00    +0.000 A 
ATOM     11  C   UNL     1      -2.518  10.573  17.541  0.00  0.00    +0.000 A 
ATOM     12  C   UNL     1      -3.023   9.888  16.305  0.00  0.00    +0.000 C 
ATOM     13  C   UNL     1      -3.401  11.365  18.278  0.00  0.00    +0.000 A 
ATOM     14  C   UNL     1      -2.966  12.047  19.418  0.00  0.00    +0.000 A 
ATOM     15  C   UNL     1      -3.933  12.892  20.201  0.00  0.00    +0.000 C 
ATOM     16  C   UNL     1      -1.625  11.929  19.822  0.00  0.00    +0.000 A 
ENDBRANCH   8   9
ENDBRANCH   7   8
ENDBRANCH   5   7
ENDBRANCH   1   2
BRANCH   1  19
ATOM     17  C   UNL     1       3.315   3.578  17.849  0.00  0.00    +0.000 C 
ATOM     18  O   UNL     1       2.861   2.549  17.326  0.00  0.00    +0.000 OA
ATOM     19  N   UNL     1       2.533   4.290  18.774  0.00  0.00    +0.000 N 
BRANCH  17  24
ATOM     20  C   UNL     1       7.030   4.591  17.686  0.00  0.00    +0.000 A 
ATOM     21  C   UNL     1       7.164   4.753  16.305  0.00  0.00    +0.000 A 
ATOM     22  C   UNL     1       6.077   4.547  15.466  0.00  0.00    +0.000 A 
ATOM     23  C   UNL     1       4.866   4.128  16.014  0.00  0.00    +0.000 A 
ATOM     24  C   UNL     1       4.701   3.939  17.405  0.00  0.00    +0.000 A 
ATOM     25  C   UNL     1       5.788   4.231  18.240  0.00  0.00    +0.000 A 
BRANCH  20  27
ATOM     26  C   UNL     1       8.140   5.805  19.411  0.00  0.00    +0.000 C 
ATOM     27  O   UNL     1       8.184   4.838  18.374  0.00  0.00    +0.000 OA
ENDBRANCH  20  27
ENDBRANCH  17  24
BRANCH  19  28
ATOM     28  C   UNL     1       1.192   3.756  18.994  0.00  0.00    +0.000 C 
ATOM     29  C   UNL     1       0.918   2.393  19.577  0.00  0.00    +0.000 C 
ATOM     30  C   UNL     1       0.641   3.614  20.393  0.00  0.00    +0.000 C 
ENDBRANCH  19  28
ENDBRANCH   1  19
TORSDOF 8
ENDMDL
MODEL 7
REMARK VINA RESULT:      -7.9      1.369      2.097
REMARK  Name = 
REMARK  11 active torsions:
REMARK  status: ('A' for Active; 'I' for Inactive)
REMARK    1  A    between atoms: C_1  and  O_2
REMARK    2  A    between atoms: O_2  and  C_3
REMARK    3  A    between atoms: C_7  and  C_8
REMARK    4  A    between atoms: N_10  and  C_11
REMARK    5  A    between atoms: N_10  and  C_27
REMARK    6  A    between atoms: C_11  and  C_12
REMARK    7  A    between atoms: C_15  and  C_16
REMARK    8  A    between atoms: C_16  and  O_17
REMARK    9  A    between atoms: O_17  and  C_18
REMARK   10  A    between atoms: C_20  and  C_21
REMARK   11  A    between atoms: C_23  and  C_24
REMARK                            x       y       z     vdW  Elec       q    Type
REMARK                         _______ _______ _______ _____ _____    ______ ____
ROOT
ATOM      1  C   UNL     1       2.286   4.329  18.094  0.00  0.00    +0.000 C 
ENDROOT
BRANCH   1   2
ATOM      2  C   UNL     1       2.201   5.685  18.762  0.00  0.00    +0.000 A 
ATOM      3  C   UNL     1       1.944   5.912  20.102  0.00  0.00    +0.000 A 
ATOM      4  S   UNL     1       1.910   7.596  20.432  0.00  0.00    +0.000 S 
ATOM      5  C   UNL     1       2.199   7.931  18.768  0.00  0.00    +0.000 A 
ATOM      6  N   UNL     1       2.412   6.855  18.026  0.00  0.00    +0.000 NA
BRANCH   5   7
ATOM      7  C   UNL     1       1.982   9.322  18.205  0.00  0.00    +0.000 C 
BRANCH   7   8
ATOM      8  O   UNL     1       0.666   9.478  17.648  0.00  0.00    +0.000 OA
BRANCH   8   9
ATOM      9  C   UNL     1      -0.185  10.287  18.379  0.00  0.00    +0.000 A 
ATOM     10  C   UNL     1      -1.482  10.444  17.867  0.00  0.00    +0.000 A 
ATOM     11  C   UNL     1      -2.428  11.260  18.519  0.00  0.00    +0.000 A 
ATOM     12  C   UNL     1      -3.803  11.485  17.960  0.00  0.00    +0.000 C 
ATOM     13  C   UNL     1      -2.069  11.908  19.703  0.00  0.00    +0.000 A 
ATOM     14  C   UNL     1      -0.789  11.753  20.241  0.00  0.00    +0.000 A 
ATOM     15  C   UNL     1      -0.423  12.455  21.520  0.00  0.00    +0.000 C 
ATOM     16  C   UNL     1       0.142  10.933  19.580  0.00  0.00    +0.000 A 
ENDBRANCH   8   9
ENDBRANCH   7   8
ENDBRANCH   5   7
ENDBRANCH   1   2
BRANCH   1  19
ATOM     17  C   UNL     1       4.541   3.461  19.058  0.00  0.00    +0.000 C 
ATOM     18  O   UNL     1       5.061   2.733  19.916  0.00  0.00    +0.000 OA
ATOM     19  N   UNL     1       3.156   3.391  18.833  0.00  0.00    +0.000 N 
BRANCH  17  24
ATOM     20  C   UNL     1       7.143   6.149  18.130  0.00  0.00    +0.000 A 
ATOM     21  C   UNL     1       7.113   6.028  16.738  0.00  0.00    +0.000 A 
ATOM     22  C   UNL     1       6.268   5.108  16.133  0.00  0.00    +0.000 A 
ATOM     23  C   UNL     1       5.486   4.274  16.931  0.00  0.00    +0.000 A 
ATOM     24  C   UNL     1       5.504   4.360  18.342  0.00  0.00    +0.000 A 
ATOM     25  C   UNL     1       6.305   5.350  18.929  0.00  0.00    +0.000 A 
BRANCH  20  27
ATOM     26  C   UNL     1       8.080   8.323  17.853  0.00  0.00    +0.000 C 
ATOM     27  O   UNL     1       8.017   7.101  18.572  0.00  0.00    +0.000 OA
ENDBRANCH  20  27
ENDBRANCH  17  24
BRANCH  19  28
ATOM     28  C   UNL     1       2.449   2.390  19.628  0.00  0.00    +0.000 C 
ATOM     29  C   UNL     1       1.495   2.728  20.746  0.00  0.00    +0.000 C 
ATOM     30  C   UNL     1       0.962   2.187  19.460  0.00  0.00    +0.000 C 
ENDBRANCH  19  28
ENDBRANCH   1  19
TORSDOF 8
ENDMDL
MODEL 8
REMARK VINA RESULT:      -7.8      1.340      1.597
REMARK  Name = 
REMARK  11 active torsions:
REMARK  status: ('A' for Active; 'I' for Inactive)
REMARK    1  A    between atoms: C_1  and  O_2
REMARK    2  A    between atoms: O_2  and  C_3
REMARK    3  A    between atoms: C_7  and  C_8
REMARK    4  A    between atoms: N_10  and  C_11
REMARK    5  A    between atoms: N_10  and  C_27
REMARK    6  A    between atoms: C_11  and  C_12
REMARK    7  A    between atoms: C_15  and  C_16
REMARK    8  A    between atoms: C_16  and  O_17
REMARK    9  A    between atoms: O_17  and  C_18
REMARK   10  A    between atoms: C_20  and  C_21
REMARK   11  A    between atoms: C_23  and  C_24
REMARK                            x       y       z     vdW  Elec       q    Type
REMARK                         _______ _______ _______ _____ _____    ______ ____
ROOT
ATOM      1  C   UNL     1       3.006   5.387  19.808  0.00  0.00    +0.000 C 
ENDROOT
BRANCH   1   2
ATOM      2  C   UNL     1       2.315   6.726  19.957  0.00  0.00    +0.000 A 
ATOM      3  C   UNL     1       1.579   7.139  21.053  0.00  0.00    +0.000 A 
ATOM      4  S   UNL     1       0.950   8.715  20.797  0.00  0.00    +0.000 S 
ATOM      5  C   UNL     1       1.658   8.745  19.227  0.00  0.00    +0.000 A 
ATOM      6  N   UNL     1       2.405   7.689  18.948  0.00  0.00    +0.000 NA
BRANCH   5   7
ATOM      7  C   UNL     1       1.241   9.786  18.206  0.00  0.00    +0.000 C 
BRANCH   7   8
ATOM      8  O   UNL     1      -0.032   9.480  17.613  0.00  0.00    +0.000 OA
BRANCH   8   9
ATOM      9  C   UNL     1      -1.071  10.307  18.001  0.00  0.00    +0.000 A 
ATOM     10  C   UNL     1      -0.721  11.404  18.803  0.00  0.00    +0.000 A 
ATOM     11  C   UNL     1      -1.700  12.303  19.273  0.00  0.00    +0.000 A 
ATOM     12  C   UNL     1      -1.357  13.451  20.176  0.00  0.00    +0.000 C 
ATOM     13  C   UNL     1      -3.036  12.104  18.916  0.00  0.00    +0.000 A 
ATOM     14  C   UNL     1      -3.405  11.029  18.103  0.00  0.00    +0.000 A 
ATOM     15  C   UNL     1      -4.848  10.834  17.727  0.00  0.00    +0.000 C 
ATOM     16  C   UNL     1      -2.416  10.143  17.641  0.00  0.00    +0.000 A 
ENDBRANCH   8   9
ENDBRANCH   7   8
ENDBRANCH   5   7
ENDBRANCH   1   2
BRANCH   1  19
ATOM     17  C   UNL     1       3.086   4.139  17.528  0.00  0.00    +0.000 C 
ATOM     18  O   UNL     1       2.548   3.263  16.834  0.00  0.00    +0.000 OA
ATOM     19  N   UNL     1       2.450   4.587  18.697  0.00  0.00    +0.000 N 
BRANCH  17  24
ATOM     20  C   UNL     1       6.150   6.255  16.533  0.00  0.00    +0.000 A 
ATOM     21  C   UNL     1       6.846   5.310  15.773  0.00  0.00    +0.000 A 
ATOM     22  C   UNL     1       6.324   4.037  15.590  0.00  0.00    +0.000 A 
ATOM     23  C   UNL     1       5.124   3.697  16.213  0.00  0.00    +0.000 A 
ATOM     24  C   UNL     1       4.404   4.624  17.001  0.00  0.00    +0.000 A 
ATOM     25  C   UNL     1       4.908   5.927  17.106  0.00  0.00    +0.000 A 
BRANCH  20  27
ATOM     26  C   UNL     1       7.719   7.646  17.667  0.00  0.00    +0.000 C 
ATOM     27  O   UNL     1       6.788   7.460  16.612  0.00  0.00    +0.000 OA
ENDBRANCH  20  27
ENDBRANCH  17  24
BRANCH  19  28
ATOM     28  C   UNL     1       1.143   3.991  18.960  0.00  0.00    +0.000 C 
ATOM     29  C   UNL     1       0.900   2.505  19.038  0.00  0.00    +0.000 C 
ATOM     30  C   UNL     1       0.853   3.327  20.285  0.00  0.00    +0.000 C 
ENDBRANCH  19  28
ENDBRANCH   1  19
TORSDOF 8
ENDMDL
MODEL 9
REMARK VINA RESULT:      -7.8      1.826      2.401
REMARK  Name = 
REMARK  11 active torsions:
REMARK  status: ('A' for Active; 'I' for Inactive)
REMARK    1  A    between atoms: C_1  and  O_2
REMARK    2  A    between atoms: O_2  and  C_3
REMARK    3  A    between atoms: C_7  and  C_8
REMARK    4  A    between atoms: N_10  and  C_11
REMARK    5  A    between atoms: N_10  and  C_27
REMARK    6  A    between atoms: C_11  and  C_12
REMARK    7  A    between atoms: C_15  and  C_16
REMARK    8  A    between atoms: C_16  and  O_17
REMARK    9  A    between atoms: O_17  and  C_18
REMARK   10  A    between atoms: C_20  and  C_21
REMARK   11  A    between atoms: C_23  and  C_24
REMARK                            x       y       z     vdW  Elec       q    Type
REMARK                         _______ _______ _______ _____ _____    ______ ____
ROOT
ATOM      1  C   UNL     1       2.371   4.702  17.914  0.00  0.00    +0.000 C 
ENDROOT
BRANCH   1   2
ATOM      2  C   UNL     1       2.226   6.025  18.636  0.00  0.00    +0.000 A 
ATOM      3  C   UNL     1       2.038   6.187  19.996  0.00  0.00    +0.000 A 
ATOM      4  S   UNL     1       1.899   7.852  20.391  0.00  0.00    +0.000 S 
ATOM      5  C   UNL     1       2.056   8.262  18.725  0.00  0.00    +0.000 A 
ATOM      6  N   UNL     1       2.302   7.231  17.933  0.00  0.00    +0.000 NA
BRANCH   5   7
ATOM      7  C   UNL     1       1.699   9.650  18.229  0.00  0.00    +0.000 C 
BRANCH   7   8
ATOM      8  O   UNL     1       0.288   9.907  18.316  0.00  0.00    +0.000 OA
BRANCH   8   9
ATOM      9  C   UNL     1      -0.069  10.914  19.194  0.00  0.00    +0.000 A 
ATOM     10  C   UNL     1      -0.019  12.222  18.688  0.00  0.00    +0.000 A 
ATOM     11  C   UNL     1      -0.344  13.328  19.500  0.00  0.00    +0.000 A 
ATOM     12  C   UNL     1      -0.246  14.738  18.996  0.00  0.00    +0.000 C 
ATOM     13  C   UNL     1      -0.737  13.112  20.822  0.00  0.00    +0.000 A 
ATOM     14  C   UNL     1      -0.811  11.817  21.342  0.00  0.00    +0.000 A 
ATOM     15  C   UNL     1      -1.241  11.605  22.767  0.00  0.00    +0.000 C 
ATOM     16  C   UNL     1      -0.487  10.724  20.519  0.00  0.00    +0.000 A 
ENDBRANCH   8   9
ENDBRANCH   7   8
ENDBRANCH   5   7
ENDBRANCH   1   2
BRANCH   1  19
ATOM     17  C   UNL     1       4.535   3.703  18.956  0.00  0.00    +0.000 C 
ATOM     18  O   UNL     1       4.981   2.954  19.838  0.00  0.00    +0.000 OA
ATOM     19  N   UNL     1       3.156   3.720  18.690  0.00  0.00    +0.000 N 
BRANCH  17  24
ATOM     20  C   UNL     1       7.265   6.269  18.052  0.00  0.00    +0.000 A 
ATOM     21  C   UNL     1       7.353   6.037  16.677  0.00  0.00    +0.000 A 
ATOM     22  C   UNL     1       6.543   5.084  16.073  0.00  0.00    +0.000 A 
ATOM     23  C   UNL     1       5.678   4.329  16.863  0.00  0.00    +0.000 A 
ATOM     24  C   UNL     1       5.576   4.527  18.259  0.00  0.00    +0.000 A 
ATOM     25  C   UNL     1       6.344   5.549  18.834  0.00  0.00    +0.000 A 
BRANCH  20  27
ATOM     26  C   UNL     1       8.068   8.504  17.849  0.00  0.00    +0.000 C 
ATOM     27  O   UNL     1       8.118   7.241  18.492  0.00  0.00    +0.000 OA
ENDBRANCH  20  27
ENDBRANCH  17  24
BRANCH  19  28
ATOM     28  C   UNL     1       2.361   2.777  19.475  0.00  0.00    +0.000 C 
ATOM     29  C   UNL     1       0.853   2.758  19.484  0.00  0.00    +0.000 C 
ATOM     30  C   UNL     1       1.602   1.663  18.796  0.00  0.00    +0.000 C 
ENDBRANCH  19  28
ENDBRANCH   1  19
TORSDOF 8
ENDMDL
