MODEL 1
REMARK VINA RESULT:      -7.4      0.000      0.000
REMARK  Name = 
REMARK  8 active torsions:
REMARK  status: ('A' for Active; 'I' for Inactive)
REMARK    1  A    between atoms: C_1  and  C_2
REMARK    2  A    between atoms: C_5  and  C_6
REMARK    3  A    between atoms: C_6  and  O_8
REMARK    4  A    between atoms: O_8  and  C_9
REMARK    5  A    between atoms: C_9  and  C_10
REMARK    6  A    between atoms: N_12  and  C_13
REMARK    7  A    between atoms: C_13  and  C_14
REMARK    8  A    between atoms: C_14  and  C_15
REMARK                            x       y       z     vdW  Elec       q    Type
REMARK                         _______ _______ _______ _____ _____    ______ ____
ROOT
ATOM      1  C   UNL     1       7.624   6.897  17.712  0.00  0.00    +0.000 C 
ATOM      2  O   UNL     1       8.009   6.401  18.768  0.00  0.00    +0.000 OA
ATOM      3  N   UNL     1       7.757   8.245  17.425  0.00  0.00    +0.000 N 
ATOM      4  H   UNL     1       7.653   8.527  16.451  0.00  0.00    +0.000 HD
ENDROOT
BRANCH   1   5
ATOM      5  C   UNL     1       6.964   6.055  16.616  0.00  0.00    +0.000 C 
BRANCH   5   6
ATOM      6  O   UNL     1       5.931   5.199  17.108  0.00  0.00    +0.000 OA
BRANCH   6   7
ATOM      7  C   UNL     1       4.692   5.744  17.093  0.00  0.00    +0.000 C 
ATOM      8  O   UNL     1       4.431   6.885  16.731  0.00  0.00    +0.000 OA
BRANCH   7  13
ATOM      9  C   UNL     1       0.592   2.289  18.973  0.00  0.00    +0.000 C 
ATOM     10  C   UNL     1       1.689   3.178  18.478  0.00  0.00    +0.000 A 
ATOM     11  C   UNL     1       2.741   2.688  17.703  0.00  0.00    +0.000 A 
ATOM     12  N   UNL     1       3.745   3.471  17.234  0.00  0.00    +0.000 NA
ATOM     13  C   UNL     1       3.659   4.787  17.569  0.00  0.00    +0.000 A 
ATOM     14  C   UNL     1       2.619   5.277  18.345  0.00  0.00    +0.000 A 
ATOM     15  N   UNL     1       1.617   4.490  18.813  0.00  0.00    +0.000 NA
ENDBRANCH   7  13
ENDBRANCH   6   7
ENDBRANCH   5   6
ENDBRANCH   1   5
BRANCH   3  16
ATOM     16  C   UNL     1       8.463   9.107  18.358  0.00  0.00    +0.000 C 
BRANCH  16  17
ATOM     17  C   UNL     1       8.634  10.547  17.867  0.00  0.00    +0.000 C 
BRANCH  17  18
ATOM     18  C   UNL     1       9.800  11.229  18.549  0.00  0.00    +0.000 A 
ATOM     19  C   UNL     1      10.883  11.722  17.804  0.00  0.00    +0.000 A 
ATOM     20  C   UNL     1      11.981  12.299  18.447  0.00  0.00    +0.000 A 
ATOM     21  C   UNL     1      12.012  12.390  19.837  0.00  0.00    +0.000 A 
ATOM     22  C   UNL     1      10.941  11.911  20.585  0.00  0.00    +0.000 A 
ATOM     23  C   UNL     1       9.841  11.333  19.947  0.00  0.00    +0.000 A 
ENDBRANCH  17  18
ENDBRANCH  16  17
ENDBRANCH   3  16
TORSDOF 7
ENDMDL
MODEL 2
REMARK VINA RESULT:      -7.3      1.562      2.168
REMARK  Name = 
REMARK  8 active torsions:
REMARK  status: ('A' for Active; 'I' for Inactive)
REMARK    1  A    between atoms: C_1  and  C_2
REMARK    2  A    between atoms: C_5  and  C_6
REMARK    3  A    between atoms: C_6  and  O_8
REMARK    4  A    between atoms: O_8  and  C_9
REMARK    5  A    between atoms: C_9  and  C_10
REMARK    6  A    between atoms: N_12  and  C_13
REMARK    7  A    between atoms: C_13  and  C_14
REMARK    8  A    between atoms: C_14  and  C_15
REMARK                            x       y       z     vdW  Elec       q    Type
REMARK                         _______ _______ _______ _____ _____    ______ ____
ROOT
ATOM      1  C   UNL     1       7.732   7.376  18.036  0.00  0.00    +0.000 C 
ATOM      2  O   UNL     1       7.219   7.826  17.013  0.00  0.00    +0.000 OA
ATOM      3  N   UNL     1       8.579   8.121  18.839  0.00  0.00    +0.000 N 
ATOM      4  H   UNL     1       8.753   7.773  19.782  0.00  0.00    +0.000 HD
ENDROOT
BRANCH   1   5
ATOM      5  C   UNL     1       7.469   5.944  18.509  0.00  0.00    +0.000 C 
BRANCH   5   6
ATOM      6  O   UNL     1       7.800   4.957  17.532  0.00  0.00    +0.000 OA
BRANCH   6   7
ATOM      7  C   UNL     1       6.745   4.483  16.828  0.00  0.00    +0.000 C 
ATOM      8  O   UNL     1       6.792   4.101  15.665  0.00  0.00    +0.000 OA
BRANCH   7  13
ATOM      9  C   UNL     1       1.853   4.563  19.716  0.00  0.00    +0.000 C 
ATOM     10  C   UNL     1       3.154   4.537  18.979  0.00  0.00    +0.000 A 
ATOM     11  C   UNL     1       4.228   3.755  19.407  0.00  0.00    +0.000 A 
ATOM     12  N   UNL     1       5.417   3.705  18.755  0.00  0.00    +0.000 NA
ATOM     13  C   UNL     1       5.497   4.475  17.637  0.00  0.00    +0.000 A 
ATOM     14  C   UNL     1       4.436   5.260  17.211  0.00  0.00    +0.000 A 
ATOM     15  N   UNL     1       3.248   5.308  17.868  0.00  0.00    +0.000 NA
ENDBRANCH   7  13
ENDBRANCH   6   7
ENDBRANCH   5   6
ENDBRANCH   1   5
BRANCH   3  16
ATOM     16  C   UNL     1       8.809   9.522  18.529  0.00  0.00    +0.000 C 
BRANCH  16  17
ATOM     17  C   UNL     1       9.345  10.340  19.707  0.00  0.00    +0.000 C 
BRANCH  17  18
ATOM     18  C   UNL     1      10.419  11.308  19.263  0.00  0.00    +0.000 A 
ATOM     19  C   UNL     1      11.126  12.079  20.199  0.00  0.00    +0.000 A 
ATOM     20  C   UNL     1      12.077  13.012  19.776  0.00  0.00    +0.000 A 
ATOM     21  C   UNL     1      12.333  13.186  18.417  0.00  0.00    +0.000 A 
ATOM     22  C   UNL     1      11.643  12.421  17.481  0.00  0.00    +0.000 A 
ATOM     23  C   UNL     1      10.691  11.488  17.899  0.00  0.00    +0.000 A 
ENDBRANCH  17  18
ENDBRANCH  16  17
ENDBRANCH   3  16
TORSDOF 7
ENDMDL
MODEL 3
REMARK VINA RESULT:      -7.3      1.261      1.842
REMARK  Name = 
REMARK  8 active torsions:
REMARK  status: ('A' for Active; 'I' for Inactive)
REMARK    1  A    between atoms: C_1  and  C_2
REMARK    2  A    between atoms: C_5  and  C_6
REMARK    3  A    between atoms: C_6  and  O_8
REMARK    4  A    between atoms: O_8  and  C_9
REMARK    5  A    between atoms: C_9  and  C_10
REMARK    6  A    between atoms: N_12  and  C_13
REMARK    7  A    between atoms: C_13  and  C_14
REMARK    8  A    between atoms: C_14  and  C_15
REMARK                            x       y       z     vdW  Elec       q    Type
REMARK                         _______ _______ _______ _____ _____    ______ ____
ROOT
ATOM      1  C   UNL     1       7.066   6.984  17.497  0.00  0.00    +0.000 C 
ATOM      2  O   UNL     1       7.710   6.273  18.266  0.00  0.00    +0.000 OA
ATOM      3  N   UNL     1       7.272   8.348  17.386  0.00  0.00    +0.000 N 
ATOM      4  H   UNL     1       6.889   8.813  16.563  0.00  0.00    +0.000 HD
ENDROOT
BRANCH   1   5
ATOM      5  C   UNL     1       5.976   6.409  16.588  0.00  0.00    +0.000 C 
BRANCH   5   6
ATOM      6  O   UNL     1       4.806   6.000  17.298  0.00  0.00    +0.000 OA
BRANCH   6   7
ATOM      7  C   UNL     1       4.484   4.693  17.152  0.00  0.00    +0.000 C 
ATOM      8  O   UNL     1       4.864   3.976  16.235  0.00  0.00    +0.000 OA
BRANCH   7  13
ATOM      9  C   UNL     1       1.335   2.782  21.477  0.00  0.00    +0.000 C 
ATOM     10  C   UNL     1       2.142   3.287  20.324  0.00  0.00    +0.000 A 
ATOM     11  C   UNL     1       1.593   4.124  19.352  0.00  0.00    +0.000 A 
ATOM     12  N   UNL     1       2.302   4.604  18.298  0.00  0.00    +0.000 NA
ATOM     13  C   UNL     1       3.604   4.212  18.250  0.00  0.00    +0.000 A 
ATOM     14  C   UNL     1       4.152   3.374  19.209  0.00  0.00    +0.000 A 
ATOM     15  N   UNL     1       3.439   2.896  20.261  0.00  0.00    +0.000 NA
ENDBRANCH   7  13
ENDBRANCH   6   7
ENDBRANCH   5   6
ENDBRANCH   1   5
BRANCH   3  16
ATOM     16  C   UNL     1       8.353   8.969  18.133  0.00  0.00    +0.000 C 
BRANCH  16  17
ATOM     17  C   UNL     1       8.561  10.451  17.809  0.00  0.00    +0.000 C 
BRANCH  17  18
ATOM     18  C   UNL     1       9.692  11.041  18.623  0.00  0.00    +0.000 A 
ATOM     19  C   UNL     1       9.560  11.236  20.006  0.00  0.00    +0.000 A 
ATOM     20  C   UNL     1      10.588  11.834  20.740  0.00  0.00    +0.000 A 
ATOM     21  C   UNL     1      11.758  12.243  20.103  0.00  0.00    +0.000 A 
ATOM     22  C   UNL     1      11.903  12.047  18.732  0.00  0.00    +0.000 A 
ATOM     23  C   UNL     1      10.877  11.451  17.995  0.00  0.00    +0.000 A 
ENDBRANCH  17  18
ENDBRANCH  16  17
ENDBRANCH   3  16
TORSDOF 7
ENDMDL
MODEL 4
REMARK VINA RESULT:      -7.3      1.263      1.715
REMARK  Name = 
REMARK  8 active torsions:
REMARK  status: ('A' for Active; 'I' for Inactive)
REMARK    1  A    between atoms: C_1  and  C_2
REMARK    2  A    between atoms: C_5  and  C_6
REMARK    3  A    between atoms: C_6  and  O_8
REMARK    4  A    between atoms: O_8  and  C_9
REMARK    5  A    between atoms: C_9  and  C_10
REMARK    6  A    between atoms: N_12  and  C_13
REMARK    7  A    between atoms: C_13  and  C_14
REMARK    8  A    between atoms: C_14  and  C_15
REMARK                            x       y       z     vdW  Elec       q    Type
REMARK                         _______ _______ _______ _____ _____    ______ ____
ROOT
ATOM      1  C   UNL     1       7.057   6.876  17.292  0.00  0.00    +0.000 C 
ATOM      2  O   UNL     1       7.846   6.121  17.854  0.00  0.00    +0.000 OA
ATOM      3  N   UNL     1       7.172   8.255  17.345  0.00  0.00    +0.000 N 
ATOM      4  H   UNL     1       6.645   8.794  16.658  0.00  0.00    +0.000 HD
ENDROOT
BRANCH   1   5
ATOM      5  C   UNL     1       5.874   6.347  16.477  0.00  0.00    +0.000 C 
BRANCH   5   6
ATOM      6  O   UNL     1       4.786   5.898  17.286  0.00  0.00    +0.000 OA
BRANCH   6   7
ATOM      7  C   UNL     1       4.486   4.584  17.150  0.00  0.00    +0.000 C 
ATOM      8  O   UNL     1       4.787   3.893  16.185  0.00  0.00    +0.000 OA
BRANCH   7  13
ATOM      9  C   UNL     1       1.410   2.676  21.529  0.00  0.00    +0.000 C 
ATOM     10  C   UNL     1       2.242   3.174  20.391  0.00  0.00    +0.000 A 
ATOM     11  C   UNL     1       3.549   2.729  20.183  0.00  0.00    +0.000 A 
ATOM     12  N   UNL     1       4.325   3.157  19.155  0.00  0.00    +0.000 NA
ATOM     13  C   UNL     1       3.738   4.061  18.324  0.00  0.00    +0.000 A 
ATOM     14  C   UNL     1       2.444   4.512  18.530  0.00  0.00    +0.000 A 
ATOM     15  N   UNL     1       1.671   4.081  19.560  0.00  0.00    +0.000 NA
ENDBRANCH   7  13
ENDBRANCH   6   7
ENDBRANCH   5   6
ENDBRANCH   1   5
BRANCH   3  16
ATOM     16  C   UNL     1       8.320   8.851  18.008  0.00  0.00    +0.000 C 
BRANCH  16  17
ATOM     17  C   UNL     1       8.375  10.377  17.905  0.00  0.00    +0.000 C 
BRANCH  17  18
ATOM     18  C   UNL     1       9.580  10.937  18.628  0.00  0.00    +0.000 A 
ATOM     19  C   UNL     1       9.538  11.198  20.007  0.00  0.00    +0.000 A 
ATOM     20  C   UNL     1      10.637  11.767  20.655  0.00  0.00    +0.000 A 
ATOM     21  C   UNL     1      11.789  12.082  19.937  0.00  0.00    +0.000 A 
ATOM     22  C   UNL     1      11.844  11.820  18.571  0.00  0.00    +0.000 A 
ATOM     23  C   UNL     1      10.748  11.252  17.918  0.00  0.00    +0.000 A 
ENDBRANCH  17  18
ENDBRANCH  16  17
ENDBRANCH   3  16
TORSDOF 7
ENDMDL
MODEL 5
REMARK VINA RESULT:      -7.3      4.478      8.033
REMARK  Name = 
REMARK  8 active torsions:
REMARK  status: ('A' for Active; 'I' for Inactive)
REMARK    1  A    between atoms: C_1  and  C_2
REMARK    2  A    between atoms: C_5  and  C_6
REMARK    3  A    between atoms: C_6  and  O_8
REMARK    4  A    between atoms: O_8  and  C_9
REMARK    5  A    between atoms: C_9  and  C_10
REMARK    6  A    between atoms: N_12  and  C_13
REMARK    7  A    between atoms: C_13  and  C_14
REMARK    8  A    between atoms: C_14  and  C_15
REMARK                            x       y       z     vdW  Elec       q    Type
REMARK                         _______ _______ _______ _____ _____    ______ ____
ROOT
ATOM      1  C   UNL     1       5.390   5.429  19.245  0.00  0.00    +0.000 C 
ATOM      2  O   UNL     1       4.890   4.514  19.895  0.00  0.00    +0.000 OA
ATOM      3  N   UNL     1       4.639   6.443  18.676  0.00  0.00    +0.000 N 
ATOM      4  H   UNL     1       5.135   7.283  18.381  0.00  0.00    +0.000 HD
ENDROOT
BRANCH   1   5
ATOM      5  C   UNL     1       6.901   5.525  19.016  0.00  0.00    +0.000 C 
BRANCH   5   6
ATOM      6  O   UNL     1       7.324   4.934  17.787  0.00  0.00    +0.000 OA
BRANCH   6   7
ATOM      7  C   UNL     1       7.345   5.782  16.731  0.00  0.00    +0.000 C 
ATOM      8  O   UNL     1       7.659   6.964  16.787  0.00  0.00    +0.000 OA
BRANCH   7  13
ATOM      9  C   UNL     1       5.567   3.154  12.018  0.00  0.00    +0.000 C 
ATOM     10  C   UNL     1       6.060   3.845  13.249  0.00  0.00    +0.000 A 
ATOM     11  C   UNL     1       7.199   4.652  13.235  0.00  0.00    +0.000 A 
ATOM     12  N   UNL     1       7.666   5.297  14.334  0.00  0.00    +0.000 NA
ATOM     13  C   UNL     1       6.940   5.106  15.469  0.00  0.00    +0.000 A 
ATOM     14  C   UNL     1       5.813   4.300  15.490  0.00  0.00    +0.000 A 
ATOM     15  N   UNL     1       5.350   3.656  14.389  0.00  0.00    +0.000 NA
ENDBRANCH   7  13
ENDBRANCH   6   7
ENDBRANCH   5   6
ENDBRANCH   1   5
BRANCH   3  16
ATOM     16  C   UNL     1       3.207   6.495  18.924  0.00  0.00    +0.000 C 
BRANCH  16  17
ATOM     17  C   UNL     1       2.363   5.825  17.837  0.00  0.00    +0.000 C 
BRANCH  17  18
ATOM     18  C   UNL     1       2.061   4.383  18.182  0.00  0.00    +0.000 A 
ATOM     19  C   UNL     1       1.269   4.058  19.295  0.00  0.00    +0.000 A 
ATOM     20  C   UNL     1       1.043   2.723  19.639  0.00  0.00    +0.000 A 
ATOM     21  C   UNL     1       1.602   1.698  18.877  0.00  0.00    +0.000 A 
ATOM     22  C   UNL     1       2.382   2.009  17.767  0.00  0.00    +0.000 A 
ATOM     23  C   UNL     1       2.612   3.343  17.420  0.00  0.00    +0.000 A 
ENDBRANCH  17  18
ENDBRANCH  16  17
ENDBRANCH   3  16
TORSDOF 7
ENDMDL
MODEL 6
REMARK VINA RESULT:      -7.2      1.656      2.134
REMARK  Name = 
REMARK  8 active torsions:
REMARK  status: ('A' for Active; 'I' for Inactive)
REMARK    1  A    between atoms: C_1  and  C_2
REMARK    2  A    between atoms: C_5  and  C_6
REMARK    3  A    between atoms: C_6  and  O_8
REMARK    4  A    between atoms: O_8  and  C_9
REMARK    5  A    between atoms: C_9  and  C_10
REMARK    6  A    between atoms: N_12  and  C_13
REMARK    7  A    between atoms: C_13  and  C_14
REMARK    8  A    between atoms: C_14  and  C_15
REMARK                            x       y       z     vdW  Elec       q    Type
REMARK                         _______ _______ _______ _____ _____    ______ ____
ROOT
ATOM      1  C   UNL     1       7.784   7.155  18.139  0.00  0.00    +0.000 C 
ATOM      2  O   UNL     1       7.365   7.358  17.001  0.00  0.00    +0.000 OA
ATOM      3  N   UNL     1       8.506   8.098  18.851  0.00  0.00    +0.000 N 
ATOM      4  H   UNL     1       8.592   7.956  19.857  0.00  0.00    +0.000 HD
ENDROOT
BRANCH   1   5
ATOM      5  C   UNL     1       7.535   5.831  18.867  0.00  0.00    +0.000 C 
BRANCH   5   6
ATOM      6  O   UNL     1       7.746   4.685  18.041  0.00  0.00    +0.000 OA
BRANCH   6   7
ATOM      7  C   UNL     1       6.738   4.419  17.177  0.00  0.00    +0.000 C 
ATOM      8  O   UNL     1       6.873   4.253  15.971  0.00  0.00    +0.000 OA
BRANCH   7  13
ATOM      9  C   UNL     1       1.599   4.243  19.593  0.00  0.00    +0.000 C 
ATOM     10  C   UNL     1       2.963   4.284  18.981  0.00  0.00    +0.000 A 
ATOM     11  C   UNL     1       4.031   3.561  19.514  0.00  0.00    +0.000 A 
ATOM     12  N   UNL     1       5.277   3.573  18.976  0.00  0.00    +0.000 NA
ATOM     13  C   UNL     1       5.421   4.346  17.865  0.00  0.00    +0.000 A 
ATOM     14  C   UNL     1       4.365   5.072  17.337  0.00  0.00    +0.000 A 
ATOM     15  N   UNL     1       3.120   5.058  17.879  0.00  0.00    +0.000 NA
ENDBRANCH   7  13
ENDBRANCH   6   7
ENDBRANCH   5   6
ENDBRANCH   1   5
BRANCH   3  16
ATOM     16  C   UNL     1       8.705   9.422  18.285  0.00  0.00    +0.000 C 
BRANCH  16  17
ATOM     17  C   UNL     1       9.332  10.425  19.257  0.00  0.00    +0.000 C 
BRANCH  17  18
ATOM     18  C   UNL     1       9.831  11.657  18.533  0.00  0.00    +0.000 A 
ATOM     19  C   UNL     1      11.060  11.647  17.857  0.00  0.00    +0.000 A 
ATOM     20  C   UNL     1      11.539  12.806  17.240  0.00  0.00    +0.000 A 
ATOM     21  C   UNL     1      10.798  13.985  17.290  0.00  0.00    +0.000 A 
ATOM     22  C   UNL     1       9.574  14.003  17.952  0.00  0.00    +0.000 A 
ATOM     23  C   UNL     1       9.092  12.848  18.571  0.00  0.00    +0.000 A 
ENDBRANCH  17  18
ENDBRANCH  16  17
ENDBRANCH   3  16
TORSDOF 7
ENDMDL
MODEL 7
REMARK VINA RESULT:      -7.2      4.280      7.839
REMARK  Name = 
REMARK  8 active torsions:
REMARK  status: ('A' for Active; 'I' for Inactive)
REMARK    1  A    between atoms: C_1  and  C_2
REMARK    2  A    between atoms: C_5  and  C_6
REMARK    3  A    between atoms: C_6  and  O_8
REMARK    4  A    between atoms: O_8  and  C_9
REMARK    5  A    between atoms: C_9  and  C_10
REMARK    6  A    between atoms: N_12  and  C_13
REMARK    7  A    between atoms: C_13  and  C_14
REMARK    8  A    between atoms: C_14  and  C_15
REMARK                            x       y       z     vdW  Elec       q    Type
REMARK                         _______ _______ _______ _____ _____    ______ ____
ROOT
ATOM      1  C   UNL     1       5.665   4.026  15.505  0.00  0.00    +0.000 C 
ATOM      2  O   UNL     1       4.948   4.108  14.511  0.00  0.00    +0.000 OA
ATOM      3  N   UNL     1       5.213   3.534  16.718  0.00  0.00    +0.000 N 
ATOM      4  H   UNL     1       5.917   3.263  17.403  0.00  0.00    +0.000 HD
ENDROOT
BRANCH   1   5
ATOM      5  C   UNL     1       7.133   4.461  15.480  0.00  0.00    +0.000 C 
BRANCH   5   6
ATOM      6  O   UNL     1       7.597   4.956  16.737  0.00  0.00    +0.000 OA
BRANCH   6   7
ATOM      7  C   UNL     1       7.193   6.215  17.031  0.00  0.00    +0.000 C 
ATOM      8  O   UNL     1       7.799   7.235  16.728  0.00  0.00    +0.000 OA
BRANCH   7  13
ATOM      9  C   UNL     1       2.160   6.354  19.664  0.00  0.00    +0.000 C 
ATOM     10  C   UNL     1       3.497   6.313  18.995  0.00  0.00    +0.000 A 
ATOM     11  C   UNL     1       4.556   5.565  19.510  0.00  0.00    +0.000 A 
ATOM     12  N   UNL     1       5.777   5.503  18.921  0.00  0.00    +0.000 NA
ATOM     13  C   UNL     1       5.905   6.225  17.776  0.00  0.00    +0.000 A 
ATOM     14  C   UNL     1       4.859   6.975  17.263  0.00  0.00    +0.000 A 
ATOM     15  N   UNL     1       3.639   7.036  17.856  0.00  0.00    +0.000 NA
ENDBRANCH   7  13
ENDBRANCH   6   7
ENDBRANCH   5   6
ENDBRANCH   1   5
BRANCH   3  16
ATOM     16  C   UNL     1       3.864   3.001  16.814  0.00  0.00    +0.000 C 
BRANCH  16  17
ATOM     17  C   UNL     1       3.709   1.885  17.850  0.00  0.00    +0.000 C 
BRANCH  17  18
ATOM     18  C   UNL     1       2.857   2.330  19.018  0.00  0.00    +0.000 A 
ATOM     19  C   UNL     1       3.401   2.440  20.307  0.00  0.00    +0.000 A 
ATOM     20  C   UNL     1       2.593   2.797  21.390  0.00  0.00    +0.000 A 
ATOM     21  C   UNL     1       1.235   3.049  21.199  0.00  0.00    +0.000 A 
ATOM     22  C   UNL     1       0.687   2.951  19.923  0.00  0.00    +0.000 A 
ATOM     23  C   UNL     1       1.491   2.593  18.838  0.00  0.00    +0.000 A 
ENDBRANCH  17  18
ENDBRANCH  16  17
ENDBRANCH   3  16
TORSDOF 7
ENDMDL
MODEL 8
REMARK VINA RESULT:      -7.0      2.294      2.864
REMARK  Name = 
REMARK  8 active torsions:
REMARK  status: ('A' for Active; 'I' for Inactive)
REMARK    1  A    between atoms: C_1  and  C_2
REMARK    2  A    between atoms: C_5  and  C_6
REMARK    3  A    between atoms: C_6  and  O_8
REMARK    4  A    between atoms: O_8  and  C_9
REMARK    5  A    between atoms: C_9  and  C_10
REMARK    6  A    between atoms: N_12  and  C_13
REMARK    7  A    between atoms: C_13  and  C_14
REMARK    8  A    between atoms: C_14  and  C_15
REMARK                            x       y       z     vdW  Elec       q    Type
REMARK                         _______ _______ _______ _____ _____    ______ ____
ROOT
ATOM      1  C   UNL     1       7.866   7.040  17.973  0.00  0.00    +0.000 C 
ATOM      2  O   UNL     1       7.552   7.295  16.813  0.00  0.00    +0.000 OA
ATOM      3  N   UNL     1       8.457   7.970  18.812  0.00  0.00    +0.000 N 
ATOM      4  H   UNL     1       8.450   7.768  19.811  0.00  0.00    +0.000 HD
ENDROOT
BRANCH   1   5
ATOM      5  C   UNL     1       7.621   5.661  18.591  0.00  0.00    +0.000 C 
BRANCH   5   6
ATOM      6  O   UNL     1       6.604   4.915  17.922  0.00  0.00    +0.000 OA
BRANCH   6   7
ATOM      7  C   UNL     1       5.522   4.625  18.683  0.00  0.00    +0.000 C 
ATOM      8  O   UNL     1       5.404   3.627  19.383  0.00  0.00    +0.000 OA
BRANCH   7  13
ATOM      9  C   UNL     1       1.558   8.641  18.021  0.00  0.00    +0.000 C 
ATOM     10  C   UNL     1       2.601   7.588  18.222  0.00  0.00    +0.000 A 
ATOM     11  C   UNL     1       2.657   6.820  19.386  0.00  0.00    +0.000 A 
ATOM     12  N   UNL     1       3.586   5.852  19.593  0.00  0.00    +0.000 NA
ATOM     13  C   UNL     1       4.472   5.673  18.577  0.00  0.00    +0.000 A 
ATOM     14  C   UNL     1       4.425   6.438  17.421  0.00  0.00    +0.000 A 
ATOM     15  N   UNL     1       3.495   7.406  17.219  0.00  0.00    +0.000 NA
ENDBRANCH   7  13
ENDBRANCH   6   7
ENDBRANCH   5   6
ENDBRANCH   1   5
BRANCH   3  16
ATOM     16  C   UNL     1       8.636   9.336  18.349  0.00  0.00    +0.000 C 
BRANCH  16  17
ATOM     17  C   UNL     1       9.307  10.256  19.373  0.00  0.00    +0.000 C 
BRANCH  17  18
ATOM     18  C   UNL     1       9.721  11.570  18.747  0.00  0.00    +0.000 A 
ATOM     19  C   UNL     1      10.681  11.611  17.724  0.00  0.00    +0.000 A 
ATOM     20  C   UNL     1      11.098  12.834  17.192  0.00  0.00    +0.000 A 
ATOM     21  C   UNL     1      10.563  14.027  17.672  0.00  0.00    +0.000 A 
ATOM     22  C   UNL     1       9.604  13.997  18.681  0.00  0.00    +0.000 A 
ATOM     23  C   UNL     1       9.185  12.778  19.217  0.00  0.00    +0.000 A 
ENDBRANCH  17  18
ENDBRANCH  16  17
ENDBRANCH   3  16
TORSDOF 7
ENDMDL
MODEL 9
REMARK VINA RESULT:      -7.0      5.109      7.198
REMARK  Name = 
REMARK  8 active torsions:
REMARK  status: ('A' for Active; 'I' for Inactive)
REMARK    1  A    between atoms: C_1  and  C_2
REMARK    2  A    between atoms: C_5  and  C_6
REMARK    3  A    between atoms: C_6  and  O_8
REMARK    4  A    between atoms: O_8  and  C_9
REMARK    5  A    between atoms: C_9  and  C_10
REMARK    6  A    between atoms: N_12  and  C_13
REMARK    7  A    between atoms: C_13  and  C_14
REMARK    8  A    between atoms: C_14  and  C_15
REMARK                            x       y       z     vdW  Elec       q    Type
REMARK                         _______ _______ _______ _____ _____    ______ ____
ROOT
ATOM      1  C   UNL     1       2.893   3.355  20.265  0.00  0.00    +0.000 C 
ATOM      2  O   UNL     1       2.697   3.098  21.450  0.00  0.00    +0.000 OA
ATOM      3  N   UNL     1       2.191   4.335  19.583  0.00  0.00    +0.000 N 
ATOM      4  H   UNL     1       2.581   4.657  18.698  0.00  0.00    +0.000 HD
ENDROOT
BRANCH   1   5
ATOM      5  C   UNL     1       3.945   2.608  19.440  0.00  0.00    +0.000 C 
BRANCH   5   6
ATOM      6  O   UNL     1       5.251   3.176  19.542  0.00  0.00    +0.000 OA
BRANCH   6   7
ATOM      7  C   UNL     1       5.352   4.445  19.080  0.00  0.00    +0.000 C 
ATOM      8  O   UNL     1       5.157   5.453  19.749  0.00  0.00    +0.000 OA
BRANCH   7  13
ATOM      9  C   UNL     1       7.068   4.556  13.665  0.00  0.00    +0.000 C 
ATOM     10  C   UNL     1       6.592   4.536  15.083  0.00  0.00    +0.000 A 
ATOM     11  C   UNL     1       5.244   4.378  15.405  0.00  0.00    +0.000 A 
ATOM     12  N   UNL     1       4.784   4.349  16.682  0.00  0.00    +0.000 NA
ATOM     13  C   UNL     1       5.736   4.484  17.644  0.00  0.00    +0.000 A 
ATOM     14  C   UNL     1       7.076   4.649  17.329  0.00  0.00    +0.000 A 
ATOM     15  N   UNL     1       7.532   4.679  16.050  0.00  0.00    +0.000 NA
ENDBRANCH   7  13
ENDBRANCH   6   7
ENDBRANCH   5   6
ENDBRANCH   1   5
BRANCH   3  16
ATOM     16  C   UNL     1       1.245   5.168  20.306  0.00  0.00    +0.000 C 
BRANCH  16  17
ATOM     17  C   UNL     1       1.865   6.426  20.919  0.00  0.00    +0.000 C 
BRANCH  17  18
ATOM     18  C   UNL     1       1.794   7.599  19.967  0.00  0.00    +0.000 A 
ATOM     19  C   UNL     1       1.070   8.755  20.299  0.00  0.00    +0.000 A 
ATOM     20  C   UNL     1       0.963   9.810  19.389  0.00  0.00    +0.000 A 
ATOM     21  C   UNL     1       1.575   9.724  18.140  0.00  0.00    +0.000 A 
ATOM     22  C   UNL     1       2.301   8.585  17.803  0.00  0.00    +0.000 A 
ATOM     23  C   UNL     1       2.410   7.528  18.709  0.00  0.00    +0.000 A 
ENDBRANCH  17  18
ENDBRANCH  16  17
ENDBRANCH   3  16
TORSDOF 7
ENDMDL
