MODEL 1
REMARK VINA RESULT:      -8.1      0.000      0.000
REMARK  Name = 
REMARK  5 active torsions:
REMARK  status: ('A' for Active; 'I' for Inactive)
REMARK    1  A    between atoms: C_2  and  O_3
REMARK    2  A    between atoms: C_2  and  C_4
REMARK    3  A    between atoms: C_10  and  N_11
REMARK    4  A    between atoms: N_11  and  S_12
REMARK    5  A    between atoms: S_12  and  C_15
REMARK                            x       y       z     vdW  Elec       q    Type
REMARK                         _______ _______ _______ _____ _____    ______ ____
ROOT
ATOM      1  N   UNL     1       2.573   3.851  18.226  0.00  0.00    +0.000 N 
ATOM      2  H   UNL     1       1.832   3.345  17.736  0.00  0.00    +0.000 HD
ENDROOT
BRANCH   1   9
ATOM      3  C   UNL     1       1.779   4.919  20.373  0.00  0.00    +0.000 A 
ATOM      4  C   UNL     1       1.474   6.118  21.047  0.00  0.00    +0.000 A 
ATOM      5  C   UNL     1       1.657   7.348  20.427  0.00  0.00    +0.000 A 
ATOM      6 BR   UNL     1       1.243   8.937  21.361  0.00  0.00    +0.000 Br
ATOM      7  C   UNL     1       2.133   7.409  19.124  0.00  0.00    +0.000 A 
ATOM      8  C   UNL     1       2.437   6.230  18.438  0.00  0.00    +0.000 A 
ATOM      9  C   UNL     1       2.274   4.977  19.048  0.00  0.00    +0.000 A 
BRANCH   3  11
ATOM     10  O   UNL     1       2.106   3.397  22.159  0.00  0.00    +0.000 OA
ATOM     11  C   UNL     1       1.461   3.698  21.161  0.00  0.00    +0.000 C 
BRANCH  11  12
ATOM     12  O   UNL     1       0.502   2.904  20.661  0.00  0.00    +0.000 OA
ATOM     13  H   UNL     1      -0.397   3.035  21.026  0.00  0.00    +0.000 HD
ENDBRANCH  11  12
ENDBRANCH   3  11
ENDBRANCH   1   9
BRANCH   1  14
ATOM     14  S   UNL     1       4.070   3.107  18.264  0.00  0.00    +0.000 S 
ATOM     15  O   UNL     1       4.183   2.580  19.620  0.00  0.00    +0.000 OA
ATOM     16  O   UNL     1       4.117   2.202  17.140  0.00  0.00    +0.000 OA
BRANCH  14  17
ATOM     17  C   UNL     1       5.316   4.316  18.026  0.00  0.00    +0.000 A 
ATOM     18  C   UNL     1       5.937   4.938  19.136  0.00  0.00    +0.000 A 
ATOM     19  C   UNL     1       7.065   5.790  19.032  0.00  0.00    +0.000 A 
ATOM     20  C   UNL     1       7.687   6.090  17.811  0.00  0.00    +0.000 A 
ATOM     21  C   UNL     1       7.122   5.487  16.662  0.00  0.00    +0.000 A 
ATOM     22  N   UNL     1       7.584   5.628  15.411  0.00  0.00    +0.000 NA
ATOM     23  S   UNL     1       6.610   4.698  14.443  0.00  0.00    +0.000 S 
ATOM     24  N   UNL     1       5.522   4.118  15.559  0.00  0.00    +0.000 NA
ATOM     25  C   UNL     1       5.904   4.583  16.759  0.00  0.00    +0.000 A 
ENDBRANCH  14  17
ENDBRANCH   1  14
TORSDOF 5
ENDMDL
MODEL 2
REMARK VINA RESULT:      -8.0      1.465      1.955
REMARK  Name = 
REMARK  5 active torsions:
REMARK  status: ('A' for Active; 'I' for Inactive)
REMARK    1  A    between atoms: C_2  and  O_3
REMARK    2  A    between atoms: C_2  and  C_4
REMARK    3  A    between atoms: C_10  and  N_11
REMARK    4  A    between atoms: N_11  and  S_12
REMARK    5  A    between atoms: S_12  and  C_15
REMARK                            x       y       z     vdW  Elec       q    Type
REMARK                         _______ _______ _______ _____ _____    ______ ____
ROOT
ATOM      1  N   UNL     1       2.658   4.243  17.901  0.00  0.00    +0.000 N 
ATOM      2  H   UNL     1       1.973   3.920  17.215  0.00  0.00    +0.000 HD
ENDROOT
BRANCH   1   9
ATOM      3  C   UNL     1       1.722   5.033  20.110  0.00  0.00    +0.000 A 
ATOM      4  C   UNL     1       1.400   6.138  20.923  0.00  0.00    +0.000 A 
ATOM      5  C   UNL     1       1.673   7.434  20.501  0.00  0.00    +0.000 A 
ATOM      6 BR   UNL     1       1.233   8.892  21.617  0.00  0.00    +0.000 Br
ATOM      7  C   UNL     1       2.258   7.656  19.261  0.00  0.00    +0.000 A 
ATOM      8  C   UNL     1       2.581   6.572  18.439  0.00  0.00    +0.000 A 
ATOM      9  C   UNL     1       2.327   5.255  18.850  0.00  0.00    +0.000 A 
BRANCH   3  11
ATOM     10  O   UNL     1       1.753   3.328  21.755  0.00  0.00    +0.000 OA
ATOM     11  C   UNL     1       1.301   3.729  20.688  0.00  0.00    +0.000 C 
BRANCH  11  12
ATOM     12  O   UNL     1       0.483   2.982  19.931  0.00  0.00    +0.000 OA
ATOM     13  H   UNL     1      -0.273   3.452  19.522  0.00  0.00    +0.000 HD
ENDBRANCH  11  12
ENDBRANCH   3  11
ENDBRANCH   1   9
BRANCH   1  14
ATOM     14  S   UNL     1       4.042   3.315  18.052  0.00  0.00    +0.000 S 
ATOM     15  O   UNL     1       4.528   3.597  19.398  0.00  0.00    +0.000 OA
ATOM     16  O   UNL     1       3.682   1.964  17.691  0.00  0.00    +0.000 OA
BRANCH  14  17
ATOM     17  C   UNL     1       5.235   3.873  16.896  0.00  0.00    +0.000 A 
ATOM     18  C   UNL     1       5.255   3.358  15.577  0.00  0.00    +0.000 A 
ATOM     19  C   UNL     1       6.069   3.880  14.541  0.00  0.00    +0.000 A 
ATOM     20  C   UNL     1       6.929   4.974  14.720  0.00  0.00    +0.000 A 
ATOM     21  C   UNL     1       6.945   5.544  16.016  0.00  0.00    +0.000 A 
ATOM     22  N   UNL     1       7.678   6.606  16.383  0.00  0.00    +0.000 NA
ATOM     23  S   UNL     1       7.314   6.902  17.973  0.00  0.00    +0.000 S 
ATOM     24  N   UNL     1       6.252   5.661  18.287  0.00  0.00    +0.000 NA
ATOM     25  C   UNL     1       6.088   4.984  17.139  0.00  0.00    +0.000 A 
ENDBRANCH  14  17
ENDBRANCH   1  14
TORSDOF 5
ENDMDL
MODEL 3
REMARK VINA RESULT:      -7.7      1.604      2.145
REMARK  Name = 
REMARK  5 active torsions:
REMARK  status: ('A' for Active; 'I' for Inactive)
REMARK    1  A    between atoms: C_2  and  O_3
REMARK    2  A    between atoms: C_2  and  C_4
REMARK    3  A    between atoms: C_10  and  N_11
REMARK    4  A    between atoms: N_11  and  S_12
REMARK    5  A    between atoms: S_12  and  C_15
REMARK                            x       y       z     vdW  Elec       q    Type
REMARK                         _______ _______ _______ _____ _____    ______ ____
ROOT
ATOM      1  N   UNL     1       4.026   3.964  19.177  0.00  0.00    +0.000 N 
ATOM      2  H   UNL     1       4.928   3.753  19.609  0.00  0.00    +0.000 HD
ENDROOT
BRANCH   1   9
ATOM      3  C   UNL     1       2.168   4.754  20.695  0.00  0.00    +0.000 A 
ATOM      4  C   UNL     1       1.356   5.835  21.095  0.00  0.00    +0.000 A 
ATOM      5  C   UNL     1       1.533   7.099  20.544  0.00  0.00    +0.000 A 
ATOM      6 BR   UNL     1       0.430   8.525  21.108  0.00  0.00    +0.000 Br
ATOM      7  C   UNL     1       2.508   7.310  19.579  0.00  0.00    +0.000 A 
ATOM      8  C   UNL     1       3.320   6.249  19.166  0.00  0.00    +0.000 A 
ATOM      9  C   UNL     1       3.169   4.968  19.718  0.00  0.00    +0.000 A 
BRANCH   3  11
ATOM     10  O   UNL     1       2.564   2.889  22.101  0.00  0.00    +0.000 OA
ATOM     11  C   UNL     1       1.798   3.465  21.337  0.00  0.00    +0.000 C 
BRANCH  11  12
ATOM     12  O   UNL     1       0.630   2.927  20.954  0.00  0.00    +0.000 OA
ATOM     13  H   UNL     1      -0.061   3.560  20.669  0.00  0.00    +0.000 HD
ENDBRANCH  11  12
ENDBRANCH   3  11
ENDBRANCH   1   9
BRANCH   1  14
ATOM     14  S   UNL     1       3.766   3.310  17.660  0.00  0.00    +0.000 S 
ATOM     15  O   UNL     1       3.916   1.871  17.850  0.00  0.00    +0.000 OA
ATOM     16  O   UNL     1       2.510   3.840  17.185  0.00  0.00    +0.000 OA
BRANCH  14  17
ATOM     17  C   UNL     1       5.022   3.867  16.573  0.00  0.00    +0.000 A 
ATOM     18  C   UNL     1       4.990   3.524  15.199  0.00  0.00    +0.000 A 
ATOM     19  C   UNL     1       5.865   4.075  14.230  0.00  0.00    +0.000 A 
ATOM     20  C   UNL     1       6.846   5.028  14.538  0.00  0.00    +0.000 A 
ATOM     21  C   UNL     1       6.922   5.424  15.895  0.00  0.00    +0.000 A 
ATOM     22  N   UNL     1       7.771   6.338  16.386  0.00  0.00    +0.000 NA
ATOM     23  S   UNL     1       7.436   6.471  18.004  0.00  0.00    +0.000 S 
ATOM     24  N   UNL     1       6.234   5.333  18.169  0.00  0.00    +0.000 NA
ATOM     25  C   UNL     1       5.998   4.830  16.946  0.00  0.00    +0.000 A 
ENDBRANCH  14  17
ENDBRANCH   1  14
TORSDOF 5
ENDMDL
MODEL 4
REMARK VINA RESULT:      -7.5      3.906      6.449
REMARK  Name = 
REMARK  5 active torsions:
REMARK  status: ('A' for Active; 'I' for Inactive)
REMARK    1  A    between atoms: C_2  and  O_3
REMARK    2  A    between atoms: C_2  and  C_4
REMARK    3  A    between atoms: C_10  and  N_11
REMARK    4  A    between atoms: N_11  and  S_12
REMARK    5  A    between atoms: S_12  and  C_15
REMARK                            x       y       z     vdW  Elec       q    Type
REMARK                         _______ _______ _______ _____ _____    ______ ____
ROOT
ATOM      1  N   UNL     1       4.065   5.796  19.158  0.00  0.00    +0.000 N 
ATOM      2  H   UNL     1       4.699   5.852  19.957  0.00  0.00    +0.000 HD
ENDROOT
BRANCH   1   9
ATOM      3  C   UNL     1       4.611   3.922  17.555  0.00  0.00    +0.000 A 
ATOM      4  C   UNL     1       5.123   3.567  16.291  0.00  0.00    +0.000 A 
ATOM      5  C   UNL     1       5.522   4.545  15.387  0.00  0.00    +0.000 A 
ATOM      6 BR   UNL     1       6.198   4.035  13.698  0.00  0.00    +0.000 Br
ATOM      7  C   UNL     1       5.432   5.888  15.726  0.00  0.00    +0.000 A 
ATOM      8  C   UNL     1       4.932   6.259  16.977  0.00  0.00    +0.000 A 
ATOM      9  C   UNL     1       4.510   5.290  17.901  0.00  0.00    +0.000 A 
BRANCH   3  11
ATOM     10  O   UNL     1       3.394   1.972  18.130  0.00  0.00    +0.000 OA
ATOM     11  C   UNL     1       4.296   2.751  18.417  0.00  0.00    +0.000 C 
BRANCH  11  12
ATOM     12  O   UNL     1       4.984   2.659  19.564  0.00  0.00    +0.000 OA
ATOM     13  H   UNL     1       4.459   2.730  20.388  0.00  0.00    +0.000 HD
ENDBRANCH  11  12
ENDBRANCH   3  11
ENDBRANCH   1   9
BRANCH   1  14
ATOM     14  S   UNL     1       2.441   6.021  19.491  0.00  0.00    +0.000 S 
ATOM     15  O   UNL     1       1.746   5.276  18.446  0.00  0.00    +0.000 OA
ATOM     16  O   UNL     1       2.243   5.662  20.875  0.00  0.00    +0.000 OA
BRANCH  14  17
ATOM     17  C   UNL     1       2.052   7.720  19.322  0.00  0.00    +0.000 A 
ATOM     18  C   UNL     1       2.193   8.370  18.071  0.00  0.00    +0.000 A 
ATOM     19  C   UNL     1       1.737   9.687  17.812  0.00  0.00    +0.000 A 
ATOM     20  C   UNL     1       1.086  10.474  18.773  0.00  0.00    +0.000 A 
ATOM     21  C   UNL     1       0.901   9.876  20.043  0.00  0.00    +0.000 A 
ATOM     22  N   UNL     1       0.281  10.451  21.084  0.00  0.00    +0.000 NA
ATOM     23  S   UNL     1       0.290   9.337  22.311  0.00  0.00    +0.000 S 
ATOM     24  N   UNL     1       1.130   8.092  21.597  0.00  0.00    +0.000 NA
ATOM     25  C   UNL     1       1.398   8.470  20.337  0.00  0.00    +0.000 A 
ENDBRANCH  14  17
ENDBRANCH   1  14
TORSDOF 5
ENDMDL
MODEL 5
REMARK VINA RESULT:      -7.3      2.990      3.872
REMARK  Name = 
REMARK  5 active torsions:
REMARK  status: ('A' for Active; 'I' for Inactive)
REMARK    1  A    between atoms: C_2  and  O_3
REMARK    2  A    between atoms: C_2  and  C_4
REMARK    3  A    between atoms: C_10  and  N_11
REMARK    4  A    between atoms: N_11  and  S_12
REMARK    5  A    between atoms: S_12  and  C_15
REMARK                            x       y       z     vdW  Elec       q    Type
REMARK                         _______ _______ _______ _____ _____    ______ ____
ROOT
ATOM      1  N   UNL     1       3.144   6.422  19.963  0.00  0.00    +0.000 N 
ATOM      2  H   UNL     1       4.129   6.623  20.144  0.00  0.00    +0.000 HD
ENDROOT
BRANCH   1   9
ATOM      3  C   UNL     1       1.888   8.438  19.102  0.00  0.00    +0.000 A 
ATOM      4  C   UNL     1       0.915   9.421  19.372  0.00  0.00    +0.000 A 
ATOM      5  C   UNL     1       0.218   9.419  20.575  0.00  0.00    +0.000 A 
ATOM      6 BR   UNL     1      -1.083  10.749  20.902  0.00  0.00    +0.000 Br
ATOM      7  C   UNL     1       0.483   8.451  21.534  0.00  0.00    +0.000 A 
ATOM      8  C   UNL     1       1.447   7.470  21.285  0.00  0.00    +0.000 A 
ATOM      9  C   UNL     1       2.154   7.444  20.073  0.00  0.00    +0.000 A 
BRANCH   3  11
ATOM     10  O   UNL     1       3.435   7.845  17.408  0.00  0.00    +0.000 OA
ATOM     11  C   UNL     1       2.579   8.630  17.799  0.00  0.00    +0.000 C 
BRANCH  11  12
ATOM     12  O   UNL     1       2.284   9.758  17.134  0.00  0.00    +0.000 OA
ATOM     13  H   UNL     1       1.698   9.657  16.356  0.00  0.00    +0.000 HD
ENDBRANCH  11  12
ENDBRANCH   3  11
ENDBRANCH   1   9
BRANCH   1  14
ATOM     14  S   UNL     1       2.813   4.952  19.238  0.00  0.00    +0.000 S 
ATOM     15  O   UNL     1       2.788   3.997  20.341  0.00  0.00    +0.000 OA
ATOM     16  O   UNL     1       1.632   5.140  18.429  0.00  0.00    +0.000 OA
BRANCH  14  17
ATOM     17  C   UNL     1       4.132   4.534  18.164  0.00  0.00    +0.000 A 
ATOM     18  C   UNL     1       3.872   4.061  16.854  0.00  0.00    +0.000 A 
ATOM     19  C   UNL     1       4.876   3.869  15.873  0.00  0.00    +0.000 A 
ATOM     20  C   UNL     1       6.232   4.143  16.101  0.00  0.00    +0.000 A 
ATOM     21  C   UNL     1       6.558   4.633  17.389  0.00  0.00    +0.000 A 
ATOM     22  N   UNL     1       7.788   4.978  17.795  0.00  0.00    +0.000 NA
ATOM     23  S   UNL     1       7.634   5.524  19.353  0.00  0.00    +0.000 S 
ATOM     24  N   UNL     1       6.005   5.296  19.604  0.00  0.00    +0.000 NA
ATOM     25  C   UNL     1       5.492   4.830  18.455  0.00  0.00    +0.000 A 
ENDBRANCH  14  17
ENDBRANCH   1  14
TORSDOF 5
ENDMDL
MODEL 6
REMARK VINA RESULT:      -7.3      3.652      6.468
REMARK  Name = 
REMARK  5 active torsions:
REMARK  status: ('A' for Active; 'I' for Inactive)
REMARK    1  A    between atoms: C_2  and  O_3
REMARK    2  A    between atoms: C_2  and  C_4
REMARK    3  A    between atoms: C_10  and  N_11
REMARK    4  A    between atoms: N_11  and  S_12
REMARK    5  A    between atoms: S_12  and  C_15
REMARK                            x       y       z     vdW  Elec       q    Type
REMARK                         _______ _______ _______ _____ _____    ______ ____
ROOT
ATOM      1  N   UNL     1       4.664   3.374  17.025  0.00  0.00    +0.000 N 
ATOM      2  H   UNL     1       4.778   2.429  17.396  0.00  0.00    +0.000 HD
ENDROOT
BRANCH   1   9
ATOM      3  C   UNL     1       6.706   4.692  16.335  0.00  0.00    +0.000 A 
ATOM      4  C   UNL     1       7.481   5.186  15.266  0.00  0.00    +0.000 A 
ATOM      5  C   UNL     1       7.141   4.897  13.950  0.00  0.00    +0.000 A 
ATOM      6 BR   UNL     1       8.204   5.572  12.542  0.00  0.00    +0.000 Br
ATOM      7  C   UNL     1       6.022   4.125  13.671  0.00  0.00    +0.000 A 
ATOM      8  C   UNL     1       5.239   3.630  14.717  0.00  0.00    +0.000 A 
ATOM      9  C   UNL     1       5.570   3.896  16.055  0.00  0.00    +0.000 A 
BRANCH   3  11
ATOM     10  O   UNL     1       7.700   6.248  17.818  0.00  0.00    +0.000 OA
ATOM     11  C   UNL     1       7.175   5.152  17.669  0.00  0.00    +0.000 C 
BRANCH  11  12
ATOM     12  O   UNL     1       7.080   4.261  18.669  0.00  0.00    +0.000 OA
ATOM     13  H   UNL     1       6.975   4.634  19.568  0.00  0.00    +0.000 HD
ENDBRANCH  11  12
ENDBRANCH   3  11
ENDBRANCH   1   9
BRANCH   1  14
ATOM     14  S   UNL     1       3.213   4.131  17.370  0.00  0.00    +0.000 S 
ATOM     15  O   UNL     1       3.511   5.556  17.277  0.00  0.00    +0.000 OA
ATOM     16  O   UNL     1       2.221   3.551  16.497  0.00  0.00    +0.000 OA
BRANCH  14  17
ATOM     17  C   UNL     1       2.751   3.761  19.019  0.00  0.00    +0.000 A 
ATOM     18  C   UNL     1       1.479   4.139  19.513  0.00  0.00    +0.000 A 
ATOM     19  C   UNL     1       0.967   3.726  20.768  0.00  0.00    +0.000 A 
ATOM     20  C   UNL     1       1.672   2.887  21.644  0.00  0.00    +0.000 A 
ATOM     21  C   UNL     1       2.948   2.461  21.202  0.00  0.00    +0.000 A 
ATOM     22  N   UNL     1       3.764   1.640  21.878  0.00  0.00    +0.000 NA
ATOM     23  S   UNL     1       5.103   1.419  20.927  0.00  0.00    +0.000 S 
ATOM     24  N   UNL     1       4.735   2.400  19.636  0.00  0.00    +0.000 NA
ATOM     25  C   UNL     1       3.513   2.909  19.864  0.00  0.00    +0.000 A 
ENDBRANCH  14  17
ENDBRANCH   1  14
TORSDOF 5
ENDMDL
MODEL 7
REMARK VINA RESULT:      -7.0      3.737      6.289
REMARK  Name = 
REMARK  5 active torsions:
REMARK  status: ('A' for Active; 'I' for Inactive)
REMARK    1  A    between atoms: C_2  and  O_3
REMARK    2  A    between atoms: C_2  and  C_4
REMARK    3  A    between atoms: C_10  and  N_11
REMARK    4  A    between atoms: N_11  and  S_12
REMARK    5  A    between atoms: S_12  and  C_15
REMARK                            x       y       z     vdW  Elec       q    Type
REMARK                         _______ _______ _______ _____ _____    ______ ____
ROOT
ATOM      1  N   UNL     1       4.338   4.463  19.667  0.00  0.00    +0.000 N 
ATOM      2  H   UNL     1       4.785   4.039  20.483  0.00  0.00    +0.000 HD
ENDROOT
BRANCH   1   9
ATOM      3  C   UNL     1       6.217   4.932  18.045  0.00  0.00    +0.000 A 
ATOM      4  C   UNL     1       6.670   4.845  16.713  0.00  0.00    +0.000 A 
ATOM      5  C   UNL     1       5.887   4.242  15.735  0.00  0.00    +0.000 A 
ATOM      6 BR   UNL     1       6.527   4.138  13.960  0.00  0.00    +0.000 Br
ATOM      7  C   UNL     1       4.639   3.728  16.058  0.00  0.00    +0.000 A 
ATOM      8  C   UNL     1       4.171   3.809  17.372  0.00  0.00    +0.000 A 
ATOM      9  C   UNL     1       4.949   4.400  18.380  0.00  0.00    +0.000 A 
BRANCH   3  11
ATOM     10  O   UNL     1       7.238   5.390  20.133  0.00  0.00    +0.000 OA
ATOM     11  C   UNL     1       7.151   5.663  18.942  0.00  0.00    +0.000 C 
BRANCH  11  12
ATOM     12  O   UNL     1       7.810   6.695  18.393  0.00  0.00    +0.000 OA
ATOM     13  H   UNL     1       8.627   6.472  17.902  0.00  0.00    +0.000 HD
ENDBRANCH  11  12
ENDBRANCH   3  11
ENDBRANCH   1   9
BRANCH   1  14
ATOM     14  S   UNL     1       2.746   4.937  19.863  0.00  0.00    +0.000 S 
ATOM     15  O   UNL     1       1.994   4.080  18.954  0.00  0.00    +0.000 OA
ATOM     16  O   UNL     1       2.468   4.896  21.279  0.00  0.00    +0.000 OA
BRANCH  14  17
ATOM     17  C   UNL     1       2.575   6.600  19.336  0.00  0.00    +0.000 A 
ATOM     18  C   UNL     1       3.059   7.007  18.069  0.00  0.00    +0.000 A 
ATOM     19  C   UNL     1       2.806   8.281  17.501  0.00  0.00    +0.000 A 
ATOM     20  C   UNL     1       2.035   9.263  18.140  0.00  0.00    +0.000 A 
ATOM     21  C   UNL     1       1.510   8.913  19.407  0.00  0.00    +0.000 A 
ATOM     22  N   UNL     1       0.731   9.700  20.163  0.00  0.00    +0.000 NA
ATOM     23  S   UNL     1       0.351   8.824  21.518  0.00  0.00    +0.000 S 
ATOM     24  N   UNL     1       1.204   7.424  21.234  0.00  0.00    +0.000 NA
ATOM     25  C   UNL     1       1.786   7.555  20.032  0.00  0.00    +0.000 A 
ENDBRANCH  14  17
ENDBRANCH   1  14
TORSDOF 5
ENDMDL
MODEL 8
REMARK VINA RESULT:      -7.0      3.649      6.005
REMARK  Name = 
REMARK  5 active torsions:
REMARK  status: ('A' for Active; 'I' for Inactive)
REMARK    1  A    between atoms: C_2  and  O_3
REMARK    2  A    between atoms: C_2  and  C_4
REMARK    3  A    between atoms: C_10  and  N_11
REMARK    4  A    between atoms: N_11  and  S_12
REMARK    5  A    between atoms: S_12  and  C_15
REMARK                            x       y       z     vdW  Elec       q    Type
REMARK                         _______ _______ _______ _____ _____    ______ ____
ROOT
ATOM      1  N   UNL     1       3.752   6.017  19.565  0.00  0.00    +0.000 N 
ATOM      2  H   UNL     1       4.387   6.364  20.287  0.00  0.00    +0.000 HD
ENDROOT
BRANCH   1   9
ATOM      3  C   UNL     1       4.467   4.125  18.052  0.00  0.00    +0.000 A 
ATOM      4  C   UNL     1       5.022   3.759  16.809  0.00  0.00    +0.000 A 
ATOM      5  C   UNL     1       5.353   4.726  15.866  0.00  0.00    +0.000 A 
ATOM      6 BR   UNL     1       6.090   4.200  14.208  0.00  0.00    +0.000 Br
ATOM      7  C   UNL     1       5.152   6.071  16.145  0.00  0.00    +0.000 A 
ATOM      8  C   UNL     1       4.607   6.453  17.374  0.00  0.00    +0.000 A 
ATOM      9  C   UNL     1       4.252   5.495  18.335  0.00  0.00    +0.000 A 
BRANCH   3  11
ATOM     10  O   UNL     1       3.139   2.430  19.039  0.00  0.00    +0.000 OA
ATOM     11  C   UNL     1       4.235   2.971  18.960  0.00  0.00    +0.000 C 
BRANCH  11  12
ATOM     12  O   UNL     1       5.262   2.628  19.754  0.00  0.00    +0.000 OA
ATOM     13  H   UNL     1       5.972   3.295  19.850  0.00  0.00    +0.000 HD
ENDBRANCH  11  12
ENDBRANCH   3  11
ENDBRANCH   1   9
BRANCH   1  14
ATOM     14  S   UNL     1       2.159   5.804  20.028  0.00  0.00    +0.000 S 
ATOM     15  O   UNL     1       1.504   5.256  18.845  0.00  0.00    +0.000 OA
ATOM     16  O   UNL     1       2.177   5.039  21.252  0.00  0.00    +0.000 OA
BRANCH  14  17
ATOM     17  C   UNL     1       1.452   7.366  20.386  0.00  0.00    +0.000 A 
ATOM     18  C   UNL     1       0.910   7.634  21.667  0.00  0.00    +0.000 A 
ATOM     19  C   UNL     1       0.483   8.919  22.088  0.00  0.00    +0.000 A 
ATOM     20  C   UNL     1       0.568  10.058  21.275  0.00  0.00    +0.000 A 
ATOM     21  C   UNL     1       1.114   9.860  19.984  0.00  0.00    +0.000 A 
ATOM     22  N   UNL     1       1.303  10.822  19.069  0.00  0.00    +0.000 NA
ATOM     23  S   UNL     1       2.001  10.092  17.755  0.00  0.00    +0.000 S 
ATOM     24  N   UNL     1       2.045   8.509  18.264  0.00  0.00    +0.000 NA
ATOM     25  C   UNL     1       1.563   8.484  19.516  0.00  0.00    +0.000 A 
ENDBRANCH  14  17
ENDBRANCH   1  14
TORSDOF 5
ENDMDL
MODEL 9
REMARK VINA RESULT:      -7.0      3.000      4.323
REMARK  Name = 
REMARK  5 active torsions:
REMARK  status: ('A' for Active; 'I' for Inactive)
REMARK    1  A    between atoms: C_2  and  O_3
REMARK    2  A    between atoms: C_2  and  C_4
REMARK    3  A    between atoms: C_10  and  N_11
REMARK    4  A    between atoms: N_11  and  S_12
REMARK    5  A    between atoms: S_12  and  C_15
REMARK                            x       y       z     vdW  Elec       q    Type
REMARK                         _______ _______ _______ _____ _____    ______ ____
ROOT
ATOM      1  N   UNL     1       2.526   6.702  20.619  0.00  0.00    +0.000 N 
ATOM      2  H   UNL     1       3.539   6.840  20.633  0.00  0.00    +0.000 HD
ENDROOT
BRANCH   1   9
ATOM      3  C   UNL     1       1.559   8.645  19.327  0.00  0.00    +0.000 A 
ATOM      4  C   UNL     1       0.669   9.738  19.338  0.00  0.00    +0.000 A 
ATOM      5  C   UNL     1      -0.130   9.993  20.446  0.00  0.00    +0.000 A 
ATOM      6 BR   UNL     1      -1.317  11.462  20.424  0.00  0.00    +0.000 Br
ATOM      7  C   UNL     1      -0.050   9.177  21.567  0.00  0.00    +0.000 A 
ATOM      8  C   UNL     1       0.831   8.092  21.577  0.00  0.00    +0.000 A 
ATOM      9  C   UNL     1       1.637   7.807  20.464  0.00  0.00    +0.000 A 
BRANCH   3  11
ATOM     10  O   UNL     1       2.194   9.323  17.148  0.00  0.00    +0.000 OA
ATOM     11  C   UNL     1       2.380   8.561  18.090  0.00  0.00    +0.000 C 
BRANCH  11  12
ATOM     12  O   UNL     1       3.257   7.548  18.030  0.00  0.00    +0.000 OA
ATOM     13  H   UNL     1       4.120   7.700  18.468  0.00  0.00    +0.000 HD
ENDBRANCH  11  12
ENDBRANCH   3  11
ENDBRANCH   1   9
BRANCH   1  14
ATOM     14  S   UNL     1       2.000   5.122  20.467  0.00  0.00    +0.000 S 
ATOM     15  O   UNL     1       2.387   4.484  21.721  0.00  0.00    +0.000 OA
ATOM     16  O   UNL     1       0.606   5.178  20.095  0.00  0.00    +0.000 OA
BRANCH  14  17
ATOM     17  C   UNL     1       2.870   4.352  19.155  0.00  0.00    +0.000 A 
ATOM     18  C   UNL     1       2.181   3.571  18.195  0.00  0.00    +0.000 A 
ATOM     19  C   UNL     1       2.781   3.064  17.016  0.00  0.00    +0.000 A 
ATOM     20  C   UNL     1       4.121   3.301  16.676  0.00  0.00    +0.000 A 
ATOM     21  C   UNL     1       4.862   4.089  17.589  0.00  0.00    +0.000 A 
ATOM     22  N   UNL     1       6.145   4.447  17.434  0.00  0.00    +0.000 NA
ATOM     23  S   UNL     1       6.531   5.390  18.741  0.00  0.00    +0.000 S 
ATOM     24  N   UNL     1       5.104   5.342  19.594  0.00  0.00    +0.000 NA
ATOM     25  C   UNL     1       4.234   4.626  18.865  0.00  0.00    +0.000 A 
ENDBRANCH  14  17
ENDBRANCH   1  14
TORSDOF 5
ENDMDL
