MODEL 1
REMARK VINA RESULT:      -7.3      0.000      0.000
REMARK  Name = 
REMARK  6 active torsions:
REMARK  status: ('A' for Active; 'I' for Inactive)
REMARK    1  A    between atoms: C_2  and  O_3
REMARK    2  A    between atoms: O_3  and  C_4
REMARK    3  A    between atoms: C_4  and  C_5
REMARK    4  A    between atoms: C_14  and  S_15
REMARK    5  A    between atoms: S_15  and  C_18
REMARK    6  A    between atoms: C_18  and  C_19
REMARK                            x       y       z     vdW  Elec       q    Type
REMARK                         _______ _______ _______ _____ _____    ______ ____
ROOT
ATOM      1  O   UNL     1       8.728   7.388  19.163  0.00  0.00    +0.000 OA
ATOM      2  C   UNL     1       8.029   7.496  18.162  0.00  0.00    +0.000 C 
ATOM      3  N   UNL     1       7.089   6.549  17.784  0.00  0.00    +0.000 N 
ATOM      4  C   UNL     1       6.144   6.706  16.683  0.00  0.00    +0.000 C 
ATOM      5  C   UNL     1       4.709   6.641  17.217  0.00  0.00    +0.000 C 
ATOM      6  C   UNL     1       4.446   5.375  18.055  0.00  0.00    +0.000 C 
ATOM      7  C   UNL     1       5.535   5.192  19.119  0.00  0.00    +0.000 C 
ATOM      8  C   UNL     1       6.953   5.328  18.559  0.00  0.00    +0.000 C 
ENDROOT
BRANCH   6   9
ATOM      9  S   UNL     1       4.215   3.914  17.015  0.00  0.00    +0.000 S 
ATOM     10  O   UNL     1       4.521   4.329  15.655  0.00  0.00    +0.000 OA
ATOM     11  O   UNL     1       4.923   2.810  17.625  0.00  0.00    +0.000 OA
BRANCH   9  12
ATOM     12  C   UNL     1       2.449   3.596  17.123  0.00  0.00    +0.000 C 
BRANCH  12  13
ATOM     13  C   UNL     1       2.038   3.477  18.566  0.00  0.00    +0.000 A 
ATOM     14  C   UNL     1       1.526   4.587  19.255  0.00  0.00    +0.000 A 
ATOM     15  C   UNL     1       1.157   4.479  20.597  0.00  0.00    +0.000 A 
ATOM     16  C   UNL     1       1.297   3.263  21.262  0.00  0.00    +0.000 A 
ATOM     17  C   UNL     1       1.800   2.154  20.585  0.00  0.00    +0.000 A 
ATOM     18  C   UNL     1       2.168   2.258  19.243  0.00  0.00    +0.000 A 
ENDBRANCH  12  13
ENDBRANCH   9  12
ENDBRANCH   6   9
BRANCH   2  19
ATOM     19  O   UNL     1       8.062   8.581  17.341  0.00  0.00    +0.000 OA
BRANCH  19  20
ATOM     20  C   UNL     1       7.926   9.861  17.982  0.00  0.00    +0.000 C 
BRANCH  20  21
ATOM     21  C   UNL     1       9.168  10.768  17.985  0.00  0.00    +0.000 C 
ATOM     22  C   UNL     1       8.817  12.234  17.725  0.00  0.00    +0.000 C 
ATOM     23  C   UNL     1      10.072  13.102  17.828  0.00  0.00    +0.000 C 
ATOM     24  C   UNL     1      10.793  12.850  19.150  0.00  0.00    +0.000 C 
ATOM     25  C   UNL     1      11.024  11.361  19.356  0.00  0.00    +0.000 C 
ATOM     26  O   UNL     1       9.789  10.648  19.281  0.00  0.00    +0.000 OA
ENDBRANCH  20  21
ENDBRANCH  19  20
ENDBRANCH   2  19
TORSDOF 6
ENDMDL
MODEL 2
REMARK VINA RESULT:      -7.2      4.798      7.521
REMARK  Name = 
REMARK  6 active torsions:
REMARK  status: ('A' for Active; 'I' for Inactive)
REMARK    1  A    between atoms: C_2  and  O_3
REMARK    2  A    between atoms: O_3  and  C_4
REMARK    3  A    between atoms: C_4  and  C_5
REMARK    4  A    between atoms: C_14  and  S_15
REMARK    5  A    between atoms: S_15  and  C_18
REMARK    6  A    between atoms: C_18  and  C_19
REMARK                            x       y       z     vdW  Elec       q    Type
REMARK                         _______ _______ _______ _____ _____    ______ ____
ROOT
ATOM      1  O   UNL     1       0.600   8.091  21.529  0.00  0.00    +0.000 OA
ATOM      2  C   UNL     1       1.293   8.126  20.519  0.00  0.00    +0.000 C 
ATOM      3  N   UNL     1       1.993   7.029  20.037  0.00  0.00    +0.000 N 
ATOM      4  C   UNL     1       2.712   6.993  18.768  0.00  0.00    +0.000 C 
ATOM      5  C   UNL     1       2.117   5.906  17.865  0.00  0.00    +0.000 C 
ATOM      6  C   UNL     1       2.053   4.531  18.557  0.00  0.00    +0.000 C 
ATOM      7  C   UNL     1       1.397   4.648  19.938  0.00  0.00    +0.000 C 
ATOM      8  C   UNL     1       1.974   5.784  20.785  0.00  0.00    +0.000 C 
ENDROOT
BRANCH   6   9
ATOM      9  S   UNL     1       3.670   3.725  18.604  0.00  0.00    +0.000 S 
ATOM     10  O   UNL     1       4.381   4.302  19.733  0.00  0.00    +0.000 OA
ATOM     11  O   UNL     1       3.464   2.296  18.515  0.00  0.00    +0.000 OA
BRANCH   9  12
ATOM     12  C   UNL     1       4.464   4.287  17.091  0.00  0.00    +0.000 C 
BRANCH  12  13
ATOM     13  C   UNL     1       5.632   5.176  17.427  0.00  0.00    +0.000 A 
ATOM     14  C   UNL     1       6.690   4.695  18.215  0.00  0.00    +0.000 A 
ATOM     15  C   UNL     1       7.766   5.523  18.536  0.00  0.00    +0.000 A 
ATOM     16  C   UNL     1       7.794   6.838  18.075  0.00  0.00    +0.000 A 
ATOM     17  C   UNL     1       6.751   7.323  17.288  0.00  0.00    +0.000 A 
ATOM     18  C   UNL     1       5.675   6.496  16.964  0.00  0.00    +0.000 A 
ENDBRANCH  12  13
ENDBRANCH   9  12
ENDBRANCH   6   9
BRANCH   2  19
ATOM     19  O   UNL     1       1.410   9.229  19.731  0.00  0.00    +0.000 OA
BRANCH  19  20
ATOM     20  C   UNL     1       0.701  10.400  20.176  0.00  0.00    +0.000 C 
BRANCH  20  21
ATOM     21  C   UNL     1      -0.347  10.981  19.213  0.00  0.00    +0.000 C 
ATOM     22  C   UNL     1      -0.803   9.961  18.169  0.00  0.00    +0.000 C 
ATOM     23  C   UNL     1      -1.908  10.559  17.296  0.00  0.00    +0.000 C 
ATOM     24  C   UNL     1      -3.032  11.122  18.162  0.00  0.00    +0.000 C 
ATOM     25  C   UNL     1      -2.471  12.059  19.221  0.00  0.00    +0.000 C 
ATOM     26  O   UNL     1      -1.480  11.394  20.003  0.00  0.00    +0.000 OA
ENDBRANCH  20  21
ENDBRANCH  19  20
ENDBRANCH   2  19
TORSDOF 6
ENDMDL
MODEL 3
REMARK VINA RESULT:      -7.2      1.218      1.814
REMARK  Name = 
REMARK  6 active torsions:
REMARK  status: ('A' for Active; 'I' for Inactive)
REMARK    1  A    between atoms: C_2  and  O_3
REMARK    2  A    between atoms: O_3  and  C_4
REMARK    3  A    between atoms: C_4  and  C_5
REMARK    4  A    between atoms: C_14  and  S_15
REMARK    5  A    between atoms: S_15  and  C_18
REMARK    6  A    between atoms: C_18  and  C_19
REMARK                            x       y       z     vdW  Elec       q    Type
REMARK                         _______ _______ _______ _____ _____    ______ ____
ROOT
ATOM      1  O   UNL     1       7.281   9.424  17.094  0.00  0.00    +0.000 OA
ATOM      2  C   UNL     1       7.641   8.492  17.804  0.00  0.00    +0.000 C 
ATOM      3  N   UNL     1       6.959   7.286  17.882  0.00  0.00    +0.000 N 
ATOM      4  C   UNL     1       7.431   6.109  18.603  0.00  0.00    +0.000 C 
ATOM      5  C   UNL     1       7.611   4.940  17.628  0.00  0.00    +0.000 C 
ATOM      6  C   UNL     1       6.345   4.665  16.795  0.00  0.00    +0.000 C 
ATOM      7  C   UNL     1       5.823   5.957  16.157  0.00  0.00    +0.000 C 
ATOM      8  C   UNL     1       5.717   7.118  17.148  0.00  0.00    +0.000 C 
ENDROOT
BRANCH   6   9
ATOM      9  S   UNL     1       5.088   3.784  17.749  0.00  0.00    +0.000 S 
ATOM     10  O   UNL     1       4.806   2.558  17.020  0.00  0.00    +0.000 OA
ATOM     11  O   UNL     1       5.519   3.738  19.129  0.00  0.00    +0.000 OA
BRANCH   9  12
ATOM     12  C   UNL     1       3.646   4.852  17.632  0.00  0.00    +0.000 C 
BRANCH  12  13
ATOM     13  C   UNL     1       2.563   4.353  18.551  0.00  0.00    +0.000 A 
ATOM     14  C   UNL     1       2.345   4.966  19.794  0.00  0.00    +0.000 A 
ATOM     15  C   UNL     1       1.349   4.494  20.650  0.00  0.00    +0.000 A 
ATOM     16  C   UNL     1       0.564   3.406  20.273  0.00  0.00    +0.000 A 
ATOM     17  C   UNL     1       0.771   2.794  19.039  0.00  0.00    +0.000 A 
ATOM     18  C   UNL     1       1.764   3.264  18.180  0.00  0.00    +0.000 A 
ENDBRANCH  12  13
ENDBRANCH   9  12
ENDBRANCH   6   9
BRANCH   2  19
ATOM     19  O   UNL     1       8.777   8.519  18.552  0.00  0.00    +0.000 OA
BRANCH  19  20
ATOM     20  C   UNL     1       9.050   9.754  19.239  0.00  0.00    +0.000 C 
BRANCH  20  21
ATOM     21  C   UNL     1      10.055  10.707  18.574  0.00  0.00    +0.000 C 
ATOM     22  C   UNL     1       9.379  11.948  17.988  0.00  0.00    +0.000 C 
ATOM     23  C   UNL     1      10.430  12.903  17.421  0.00  0.00    +0.000 C 
ATOM     24  C   UNL     1      11.504  13.202  18.464  0.00  0.00    +0.000 C 
ATOM     25  C   UNL     1      12.058  11.909  19.045  0.00  0.00    +0.000 C 
ATOM     26  O   UNL     1      11.003  11.111  19.583  0.00  0.00    +0.000 OA
ENDBRANCH  20  21
ENDBRANCH  19  20
ENDBRANCH   2  19
TORSDOF 6
ENDMDL
MODEL 4
REMARK VINA RESULT:      -7.1      7.336     10.283
REMARK  Name = 
REMARK  6 active torsions:
REMARK  status: ('A' for Active; 'I' for Inactive)
REMARK    1  A    between atoms: C_2  and  O_3
REMARK    2  A    between atoms: O_3  and  C_4
REMARK    3  A    between atoms: C_4  and  C_5
REMARK    4  A    between atoms: C_14  and  S_15
REMARK    5  A    between atoms: S_15  and  C_18
REMARK    6  A    between atoms: C_18  and  C_19
REMARK                            x       y       z     vdW  Elec       q    Type
REMARK                         _______ _______ _______ _____ _____    ______ ____
ROOT
ATOM      1  O   UNL     1       2.181   8.641  17.400  0.00  0.00    +0.000 OA
ATOM      2  C   UNL     1       2.161   8.398  18.601  0.00  0.00    +0.000 C 
ATOM      3  N   UNL     1       1.551   9.223  19.535  0.00  0.00    +0.000 N 
ATOM      4  C   UNL     1       1.385   8.900  20.948  0.00  0.00    +0.000 C 
ATOM      5  C   UNL     1      -0.107   8.864  21.301  0.00  0.00    +0.000 C 
ATOM      6  C   UNL     1      -0.843  10.153  20.890  0.00  0.00    +0.000 C 
ATOM      7  C   UNL     1      -0.537  10.513  19.431  0.00  0.00    +0.000 C 
ATOM      8  C   UNL     1       0.957  10.476  19.102  0.00  0.00    +0.000 C 
ENDROOT
BRANCH   6   9
ATOM      9  S   UNL     1      -0.518  11.510  22.040  0.00  0.00    +0.000 S 
ATOM     10  O   UNL     1      -0.553  10.932  23.374  0.00  0.00    +0.000 OA
ATOM     11  O   UNL     1       0.652  12.224  21.577  0.00  0.00    +0.000 OA
BRANCH   9  12
ATOM     12  C   UNL     1      -1.954  12.576  21.850  0.00  0.00    +0.000 C 
BRANCH  12  13
ATOM     13  C   UNL     1      -2.036  13.534  23.007  0.00  0.00    +0.000 A 
ATOM     14  C   UNL     1      -0.992  14.439  23.259  0.00  0.00    +0.000 A 
ATOM     15  C   UNL     1      -1.064  15.319  24.339  0.00  0.00    +0.000 A 
ATOM     16  C   UNL     1      -2.176  15.303  25.178  0.00  0.00    +0.000 A 
ATOM     17  C   UNL     1      -3.220  14.412  24.934  0.00  0.00    +0.000 A 
ATOM     18  C   UNL     1      -3.152  13.533  23.853  0.00  0.00    +0.000 A 
ENDBRANCH  12  13
ENDBRANCH   9  12
ENDBRANCH   6   9
BRANCH   2  19
ATOM     19  O   UNL     1       2.690   7.268  19.143  0.00  0.00    +0.000 OA
BRANCH  19  20
ATOM     20  C   UNL     1       2.773   6.128  18.269  0.00  0.00    +0.000 C 
BRANCH  20  21
ATOM     21  C   UNL     1       2.473   4.756  18.893  0.00  0.00    +0.000 C 
ATOM     22  C   UNL     1       1.557   4.860  20.113  0.00  0.00    +0.000 C 
ATOM     23  C   UNL     1       1.217   3.465  20.639  0.00  0.00    +0.000 C 
ATOM     24  C   UNL     1       0.675   2.584  19.516  0.00  0.00    +0.000 C 
ATOM     25  C   UNL     1       1.613   2.609  18.319  0.00  0.00    +0.000 C 
ATOM     26  O   UNL     1       1.832   3.951  17.883  0.00  0.00    +0.000 OA
ENDBRANCH  20  21
ENDBRANCH  19  20
ENDBRANCH   2  19
TORSDOF 6
ENDMDL
MODEL 5
REMARK VINA RESULT:      -7.1      7.173     10.020
REMARK  Name = 
REMARK  6 active torsions:
REMARK  status: ('A' for Active; 'I' for Inactive)
REMARK    1  A    between atoms: C_2  and  O_3
REMARK    2  A    between atoms: O_3  and  C_4
REMARK    3  A    between atoms: C_4  and  C_5
REMARK    4  A    between atoms: C_14  and  S_15
REMARK    5  A    between atoms: S_15  and  C_18
REMARK    6  A    between atoms: C_18  and  C_19
REMARK                            x       y       z     vdW  Elec       q    Type
REMARK                         _______ _______ _______ _____ _____    ______ ____
ROOT
ATOM      1  O   UNL     1       2.271   8.508  17.293  0.00  0.00    +0.000 OA
ATOM      2  C   UNL     1       2.208   8.247  18.489  0.00  0.00    +0.000 C 
ATOM      3  N   UNL     1       1.633   9.095  19.424  0.00  0.00    +0.000 N 
ATOM      4  C   UNL     1       1.414   8.762  20.827  0.00  0.00    +0.000 C 
ATOM      5  C   UNL     1      -0.084   8.818  21.147  0.00  0.00    +0.000 C 
ATOM      6  C   UNL     1      -0.725  10.160  20.744  0.00  0.00    +0.000 C 
ATOM      7  C   UNL     1      -0.364  10.522  19.298  0.00  0.00    +0.000 C 
ATOM      8  C   UNL     1       1.132  10.391  19.000  0.00  0.00    +0.000 C 
ENDROOT
BRANCH   6   9
ATOM      9  S   UNL     1      -0.338  11.474  21.924  0.00  0.00    +0.000 S 
ATOM     10  O   UNL     1      -0.604  10.927  23.245  0.00  0.00    +0.000 OA
ATOM     11  O   UNL     1       0.968  12.005  21.596  0.00  0.00    +0.000 OA
BRANCH   9  12
ATOM     12  C   UNL     1      -1.575  12.731  21.574  0.00  0.00    +0.000 C 
BRANCH  12  13
ATOM     13  C   UNL     1      -1.984  13.414  22.851  0.00  0.00    +0.000 A 
ATOM     14  C   UNL     1      -3.225  13.133  23.444  0.00  0.00    +0.000 A 
ATOM     15  C   UNL     1      -3.608  13.775  24.622  0.00  0.00    +0.000 A 
ATOM     16  C   UNL     1      -2.758  14.705  25.216  0.00  0.00    +0.000 A 
ATOM     17  C   UNL     1      -1.523  14.988  24.638  0.00  0.00    +0.000 A 
ATOM     18  C   UNL     1      -1.135  14.345  23.462  0.00  0.00    +0.000 A 
ENDBRANCH  12  13
ENDBRANCH   9  12
ENDBRANCH   6   9
BRANCH   2  19
ATOM     19  O   UNL     1       2.650   7.076  19.023  0.00  0.00    +0.000 OA
BRANCH  19  20
ATOM     20  C   UNL     1       2.729   5.961  18.117  0.00  0.00    +0.000 C 
BRANCH  20  21
ATOM     21  C   UNL     1       2.649   4.558  18.740  0.00  0.00    +0.000 C 
ATOM     22  C   UNL     1       1.671   3.647  17.997  0.00  0.00    +0.000 C 
ATOM     23  C   UNL     1       1.698   2.241  18.600  0.00  0.00    +0.000 C 
ATOM     24  C   UNL     1       3.128   1.711  18.666  0.00  0.00    +0.000 C 
ATOM     25  C   UNL     1       4.039   2.721  19.348  0.00  0.00    +0.000 C 
ATOM     26  O   UNL     1       3.971   3.984  18.686  0.00  0.00    +0.000 OA
ENDBRANCH  20  21
ENDBRANCH  19  20
ENDBRANCH   2  19
TORSDOF 6
ENDMDL
MODEL 6
REMARK VINA RESULT:      -7.1      6.888      9.938
REMARK  Name = 
REMARK  6 active torsions:
REMARK  status: ('A' for Active; 'I' for Inactive)
REMARK    1  A    between atoms: C_2  and  O_3
REMARK    2  A    between atoms: O_3  and  C_4
REMARK    3  A    between atoms: C_4  and  C_5
REMARK    4  A    between atoms: C_14  and  S_15
REMARK    5  A    between atoms: S_15  and  C_18
REMARK    6  A    between atoms: C_18  and  C_19
REMARK                            x       y       z     vdW  Elec       q    Type
REMARK                         _______ _______ _______ _____ _____    ______ ____
ROOT
ATOM      1  O   UNL     1       2.416   7.640  17.629  0.00  0.00    +0.000 OA
ATOM      2  C   UNL     1       2.195   7.843  18.818  0.00  0.00    +0.000 C 
ATOM      3  N   UNL     1       1.558   8.980  19.291  0.00  0.00    +0.000 N 
ATOM      4  C   UNL     1       1.153   9.192  20.676  0.00  0.00    +0.000 C 
ATOM      5  C   UNL     1      -0.368   9.372  20.752  0.00  0.00    +0.000 C 
ATOM      6  C   UNL     1      -0.880  10.472  19.803  0.00  0.00    +0.000 C 
ATOM      7  C   UNL     1      -0.328  10.270  18.387  0.00  0.00    +0.000 C 
ATOM      8  C   UNL     1       1.183  10.030  18.359  0.00  0.00    +0.000 C 
ENDROOT
BRANCH   6   9
ATOM      9  S   UNL     1      -0.567  12.128  20.459  0.00  0.00    +0.000 S 
ATOM     10  O   UNL     1       0.715  12.546  19.915  0.00  0.00    +0.000 OA
ATOM     11  O   UNL     1      -1.754  12.928  20.248  0.00  0.00    +0.000 OA
BRANCH   9  12
ATOM     12  C   UNL     1      -0.367  11.849  22.224  0.00  0.00    +0.000 C 
BRANCH  12  13
ATOM     13  C   UNL     1      -1.447  12.574  22.982  0.00  0.00    +0.000 A 
ATOM     14  C   UNL     1      -2.682  11.954  23.228  0.00  0.00    +0.000 A 
ATOM     15  C   UNL     1      -3.688  12.631  23.920  0.00  0.00    +0.000 A 
ATOM     16  C   UNL     1      -3.469  13.931  24.370  0.00  0.00    +0.000 A 
ATOM     17  C   UNL     1      -2.244  14.553  24.135  0.00  0.00    +0.000 A 
ATOM     18  C   UNL     1      -1.237  13.878  23.446  0.00  0.00    +0.000 A 
ENDBRANCH  12  13
ENDBRANCH   9  12
ENDBRANCH   6   9
BRANCH   2  19
ATOM     19  O   UNL     1       2.504   6.950  19.797  0.00  0.00    +0.000 OA
BRANCH  19  20
ATOM     20  C   UNL     1       3.385   5.877  19.418  0.00  0.00    +0.000 C 
BRANCH  20  21
ATOM     21  C   UNL     1       2.822   4.451  19.526  0.00  0.00    +0.000 C 
ATOM     22  C   UNL     1       1.436   4.421  20.172  0.00  0.00    +0.000 C 
ATOM     23  C   UNL     1       0.885   2.994  20.173  0.00  0.00    +0.000 C 
ATOM     24  C   UNL     1       0.941   2.395  18.770  0.00  0.00    +0.000 C 
ATOM     25  C   UNL     1       2.336   2.545  18.181  0.00  0.00    +0.000 C 
ATOM     26  O   UNL     1       2.738   3.915  18.190  0.00  0.00    +0.000 OA
ENDBRANCH  20  21
ENDBRANCH  19  20
ENDBRANCH   2  19
TORSDOF 6
ENDMDL
MODEL 7
REMARK VINA RESULT:      -7.0      6.897      9.721
REMARK  Name = 
REMARK  6 active torsions:
REMARK  status: ('A' for Active; 'I' for Inactive)
REMARK    1  A    between atoms: C_2  and  O_3
REMARK    2  A    between atoms: O_3  and  C_4
REMARK    3  A    between atoms: C_4  and  C_5
REMARK    4  A    between atoms: C_14  and  S_15
REMARK    5  A    between atoms: S_15  and  C_18
REMARK    6  A    between atoms: C_18  and  C_19
REMARK                            x       y       z     vdW  Elec       q    Type
REMARK                         _______ _______ _______ _____ _____    ______ ____
ROOT
ATOM      1  O   UNL     1       2.566   7.716  17.599  0.00  0.00    +0.000 OA
ATOM      2  C   UNL     1       2.300   7.799  18.793  0.00  0.00    +0.000 C 
ATOM      3  N   UNL     1       1.643   8.884  19.354  0.00  0.00    +0.000 N 
ATOM      4  C   UNL     1       1.187   8.957  20.738  0.00  0.00    +0.000 C 
ATOM      5  C   UNL     1      -0.336   9.130  20.775  0.00  0.00    +0.000 C 
ATOM      6  C   UNL     1      -0.816  10.319  19.923  0.00  0.00    +0.000 C 
ATOM      7  C   UNL     1      -0.211  10.259  18.515  0.00  0.00    +0.000 C 
ATOM      8  C   UNL     1       1.300  10.021  18.518  0.00  0.00    +0.000 C 
ENDROOT
BRANCH   6   9
ATOM      9  S   UNL     1      -0.532  11.901  20.751  0.00  0.00    +0.000 S 
ATOM     10  O   UNL     1       0.863  12.239  20.517  0.00  0.00    +0.000 OA
ATOM     11  O   UNL     1      -1.586  12.811  20.361  0.00  0.00    +0.000 OA
BRANCH   9  12
ATOM     12  C   UNL     1      -0.730  11.504  22.494  0.00  0.00    +0.000 C 
BRANCH  12  13
ATOM     13  C   UNL     1      -1.671  12.487  23.138  0.00  0.00    +0.000 A 
ATOM     14  C   UNL     1      -1.234  13.779  23.470  0.00  0.00    +0.000 A 
ATOM     15  C   UNL     1      -2.103  14.685  24.079  0.00  0.00    +0.000 A 
ATOM     16  C   UNL     1      -3.414  14.310  24.362  0.00  0.00    +0.000 A 
ATOM     17  C   UNL     1      -3.859  13.031  24.032  0.00  0.00    +0.000 A 
ATOM     18  C   UNL     1      -2.993  12.123  23.422  0.00  0.00    +0.000 A 
ENDBRANCH  12  13
ENDBRANCH   9  12
ENDBRANCH   6   9
BRANCH   2  19
ATOM     19  O   UNL     1       2.576   6.812  19.690  0.00  0.00    +0.000 OA
BRANCH  19  20
ATOM     20  C   UNL     1       3.584   5.864  19.294  0.00  0.00    +0.000 C 
BRANCH  20  21
ATOM     21  C   UNL     1       3.154   4.390  19.222  0.00  0.00    +0.000 C 
ATOM     22  C   UNL     1       2.568   4.023  17.858  0.00  0.00    +0.000 C 
ATOM     23  C   UNL     1       2.242   2.529  17.808  0.00  0.00    +0.000 C 
ATOM     24  C   UNL     1       3.457   1.700  18.218  0.00  0.00    +0.000 C 
ATOM     25  C   UNL     1       4.017   2.192  19.544  0.00  0.00    +0.000 C 
ATOM     26  O   UNL     1       4.324   3.585  19.471  0.00  0.00    +0.000 OA
ENDBRANCH  20  21
ENDBRANCH  19  20
ENDBRANCH   2  19
TORSDOF 6
ENDMDL
MODEL 8
REMARK VINA RESULT:      -6.9      6.058      9.918
REMARK  Name = 
REMARK  6 active torsions:
REMARK  status: ('A' for Active; 'I' for Inactive)
REMARK    1  A    between atoms: C_2  and  O_3
REMARK    2  A    between atoms: O_3  and  C_4
REMARK    3  A    between atoms: C_4  and  C_5
REMARK    4  A    between atoms: C_14  and  S_15
REMARK    5  A    between atoms: S_15  and  C_18
REMARK    6  A    between atoms: C_18  and  C_19
REMARK                            x       y       z     vdW  Elec       q    Type
REMARK                         _______ _______ _______ _____ _____    ______ ____
ROOT
ATOM      1  O   UNL     1       2.498   7.403  17.673  0.00  0.00    +0.000 OA
ATOM      2  C   UNL     1       2.262   7.681  18.843  0.00  0.00    +0.000 C 
ATOM      3  N   UNL     1       1.635   8.854  19.236  0.00  0.00    +0.000 N 
ATOM      4  C   UNL     1       1.213   9.156  20.600  0.00  0.00    +0.000 C 
ATOM      5  C   UNL     1      -0.306   9.361  20.641  0.00  0.00    +0.000 C 
ATOM      6  C   UNL     1      -0.788  10.407  19.619  0.00  0.00    +0.000 C 
ATOM      7  C   UNL     1      -0.218  10.111  18.227  0.00  0.00    +0.000 C 
ATOM      8  C   UNL     1       1.289   9.849  18.236  0.00  0.00    +0.000 C 
ENDROOT
BRANCH   6   9
ATOM      9  S   UNL     1      -0.461  12.095  20.177  0.00  0.00    +0.000 S 
ATOM     10  O   UNL     1      -1.658  12.533  20.878  0.00  0.00    +0.000 OA
ATOM     11  O   UNL     1       0.826  12.111  20.836  0.00  0.00    +0.000 OA
BRANCH   9  12
ATOM     12  C   UNL     1      -0.335  13.028  18.644  0.00  0.00    +0.000 C 
BRANCH  12  13
ATOM     13  C   UNL     1       0.877  13.920  18.687  0.00  0.00    +0.000 A 
ATOM     14  C   UNL     1       0.797  15.204  19.248  0.00  0.00    +0.000 A 
ATOM     15  C   UNL     1       1.918  16.035  19.276  0.00  0.00    +0.000 A 
ATOM     16  C   UNL     1       3.127  15.592  18.745  0.00  0.00    +0.000 A 
ATOM     17  C   UNL     1       3.218  14.316  18.191  0.00  0.00    +0.000 A 
ATOM     18  C   UNL     1       2.100  13.483  18.163  0.00  0.00    +0.000 A 
ENDBRANCH  12  13
ENDBRANCH   9  12
ENDBRANCH   6   9
BRANCH   2  19
ATOM     19  O   UNL     1       2.544   6.846  19.881  0.00  0.00    +0.000 OA
BRANCH  19  20
ATOM     20  C   UNL     1       3.451   5.766  19.592  0.00  0.00    +0.000 C 
BRANCH  20  21
ATOM     21  C   UNL     1       2.857   4.348  19.591  0.00  0.00    +0.000 C 
ATOM     22  C   UNL     1       1.549   4.265  20.380  0.00  0.00    +0.000 C 
ATOM     23  C   UNL     1       0.955   2.860  20.271  0.00  0.00    +0.000 C 
ATOM     24  C   UNL     1       0.838   2.437  18.809  0.00  0.00    +0.000 C 
ATOM     25  C   UNL     1       2.164   2.632  18.090  0.00  0.00    +0.000 C 
ATOM     26  O   UNL     1       2.609   3.983  18.218  0.00  0.00    +0.000 OA
ENDBRANCH  20  21
ENDBRANCH  19  20
ENDBRANCH   2  19
TORSDOF 6
ENDMDL
MODEL 9
REMARK VINA RESULT:      -6.9      4.941      7.621
REMARK  Name = 
REMARK  6 active torsions:
REMARK  status: ('A' for Active; 'I' for Inactive)
REMARK    1  A    between atoms: C_2  and  O_3
REMARK    2  A    between atoms: O_3  and  C_4
REMARK    3  A    between atoms: C_4  and  C_5
REMARK    4  A    between atoms: C_14  and  S_15
REMARK    5  A    between atoms: S_15  and  C_18
REMARK    6  A    between atoms: C_18  and  C_19
REMARK                            x       y       z     vdW  Elec       q    Type
REMARK                         _______ _______ _______ _____ _____    ______ ____
ROOT
ATOM      1  O   UNL     1       0.421   8.636  21.234  0.00  0.00    +0.000 OA
ATOM      2  C   UNL     1       1.161   8.501  20.265  0.00  0.00    +0.000 C 
ATOM      3  N   UNL     1       1.904   7.354  20.028  0.00  0.00    +0.000 N 
ATOM      4  C   UNL     1       2.683   7.101  18.821  0.00  0.00    +0.000 C 
ATOM      5  C   UNL     1       2.153   5.849  18.113  0.00  0.00    +0.000 C 
ATOM      6  C   UNL     1       2.083   4.627  19.047  0.00  0.00    +0.000 C 
ATOM      7  C   UNL     1       1.360   4.980  20.352  0.00  0.00    +0.000 C 
ATOM      8  C   UNL     1       1.874   6.270  20.995  0.00  0.00    +0.000 C 
ENDROOT
BRANCH   6   9
ATOM      9  S   UNL     1       3.712   3.888  19.314  0.00  0.00    +0.000 S 
ATOM     10  O   UNL     1       4.637   4.996  19.494  0.00  0.00    +0.000 OA
ATOM     11  O   UNL     1       3.582   2.864  20.327  0.00  0.00    +0.000 OA
BRANCH   9  12
ATOM     12  C   UNL     1       4.078   3.099  17.740  0.00  0.00    +0.000 C 
BRANCH  12  13
ATOM     13  C   UNL     1       5.098   3.910  16.987  0.00  0.00    +0.000 A 
ATOM     14  C   UNL     1       6.379   4.119  17.521  0.00  0.00    +0.000 A 
ATOM     15  C   UNL     1       7.320   4.881  16.827  0.00  0.00    +0.000 A 
ATOM     16  C   UNL     1       6.989   5.443  15.596  0.00  0.00    +0.000 A 
ATOM     17  C   UNL     1       5.721   5.238  15.055  0.00  0.00    +0.000 A 
ATOM     18  C   UNL     1       4.780   4.475  15.745  0.00  0.00    +0.000 A 
ENDBRANCH  12  13
ENDBRANCH   9  12
ENDBRANCH   6   9
BRANCH   2  19
ATOM     19  O   UNL     1       1.293   9.441  19.290  0.00  0.00    +0.000 OA
BRANCH  19  20
ATOM     20  C   UNL     1       0.617  10.690  19.523  0.00  0.00    +0.000 C 
BRANCH  20  21
ATOM     21  C   UNL     1      -0.580  11.006  18.612  0.00  0.00    +0.000 C 
ATOM     22  C   UNL     1      -0.912   9.851  17.667  0.00  0.00    +0.000 C 
ATOM     23  C   UNL     1      -2.163  10.180  16.850  0.00  0.00    +0.000 C 
ATOM     24  C   UNL     1      -3.310  10.595  17.767  0.00  0.00    +0.000 C 
ATOM     25  C   UNL     1      -2.860  11.690  18.723  0.00  0.00    +0.000 C 
ATOM     26  O   UNL     1      -1.715  11.268  19.463  0.00  0.00    +0.000 OA
ENDBRANCH  20  21
ENDBRANCH  19  20
ENDBRANCH   2  19
TORSDOF 6
ENDMDL
