MODEL 1
REMARK VINA RESULT:      -6.8      0.000      0.000
REMARK  Name = 
REMARK  12 active torsions:
REMARK  status: ('A' for Active; 'I' for Inactive)
REMARK    1  A    between atoms: C_4  and  O_5
REMARK    2  A    between atoms: O_5  and  C_6
REMARK    3  A    between atoms: C_6  and  C_8
REMARK    4  A    between atoms: C_8  and  C_9
REMARK    5  A    between atoms: C_8  and  O_10
REMARK    6  A    between atoms: C_8  and  C_11
REMARK    7  A    between atoms: C_11  and  C_12
REMARK    8  A    between atoms: C_19  and  C_20
REMARK    9  A    between atoms: C_24  and  O_25
REMARK   10  A    between atoms: C_26  and  C_27
REMARK   11  A    between atoms: C_32  and  O_33
REMARK   12  A    between atoms: C_34  and  O_35
REMARK                            x       y       z     vdW  Elec       q    Type
REMARK                         _______ _______ _______ _____ _____    ______ ____
ROOT
ATOM      1  C   UNL     1      -3.408  11.914  18.681  0.00  0.00    +0.000 C 
ATOM      2  C   UNL     1      -2.341  11.906  19.491  0.00  0.00    +0.000 C 
ATOM      3  C   UNL     1      -2.074  12.837  20.657  0.00  0.00    +0.000 C 
ATOM      4  C   UNL     1      -3.231  13.666  21.248  0.00  0.00    +0.000 C 
ATOM      5  C   UNL     1      -2.785  14.953  21.909  0.00  0.00    +0.000 C 
ATOM      6  O   UNL     1      -3.370  15.474  22.848  0.00  0.00    +0.000 OA
ATOM      7  O   UNL     1      -1.852  15.621  21.205  0.00  0.00    +0.000 OA
ATOM      8  C   UNL     1      -0.598  15.018  20.810  0.00  0.00    +0.000 C 
ATOM      9  C   UNL     1      -0.161  15.952  19.640  0.00  0.00    +0.000 C 
ATOM     10  C   UNL     1       1.155  15.641  18.894  0.00  0.00    +0.000 C 
ATOM     11  C   UNL     1       2.409  16.513  19.116  0.00  0.00    +0.000 C 
ATOM     12  C   UNL     1       2.313  17.751  19.965  0.00  0.00    +0.000 C 
ATOM     13  C   UNL     1       3.627  16.108  18.682  0.00  0.00    +0.000 C 
ATOM     14  C   UNL     1       3.819  14.746  18.077  0.00  0.00    +0.000 C 
ATOM     15  O   UNL     1       4.962  14.297  17.937  0.00  0.00    +0.000 OA
ATOM     16  C   UNL     1       2.528  13.913  17.819  0.00  0.00    +0.000 C 
ATOM     17  C   UNL     1       1.534  14.127  19.018  0.00  0.00    +0.000 C 
ATOM     18  C   UNL     1       2.390  13.955  20.328  0.00  0.00    +0.000 C 
ATOM     19  C   UNL     1       0.099  13.255  19.073  0.00  0.00    +0.000 C 
ATOM     20  C   UNL     1      -0.642  13.500  20.467  0.00  0.00    +0.000 C 
ATOM     21  C   UNL     1       0.261  12.514  21.330  0.00  0.00    +0.000 C 
ATOM     22  O   UNL     1       0.895  11.588  20.393  0.00  0.00    +0.000 OA
ATOM     23  C   UNL     1       0.188  11.706  19.137  0.00  0.00    +0.000 C 
ATOM     24  C   UNL     1      -1.188  10.924  19.344  0.00  0.00    +0.000 C 
ENDROOT
BRANCH  16  25
ATOM     25  O   UNL     1       2.806  12.553  17.578  0.00  0.00    +0.000 OA
ATOM     26  H   UNL     1       3.107  12.150  18.414  0.00  0.00    +0.000 HD
ENDBRANCH  16  25
BRANCH  23  27
ATOM     27  O   UNL     1       0.863  11.115  18.058  0.00  0.00    +0.000 OA
ATOM     28  H   UNL     1       1.387  10.359  18.377  0.00  0.00    +0.000 HD
ENDBRANCH  23  27
BRANCH  24  29
ATOM     29  O   UNL     1      -1.509   9.920  18.379  0.00  0.00    +0.000 OA
ATOM     30  H   UNL     1      -0.738   9.315  18.360  0.00  0.00    +0.000 HD
ENDBRANCH  24  29
BRANCH   4  31
ATOM     31  O   UNL     1      -4.087  12.841  22.113  0.00  0.00    +0.000 OA
BRANCH  31  32
ATOM     32  C   UNL     1      -5.411  13.177  22.230  0.00  0.00    +0.000 C 
ATOM     33  O   UNL     1      -6.119  13.497  21.278  0.00  0.00    +0.000 OA
BRANCH  32  34
ATOM     34  C   UNL     1      -5.909  13.219  23.709  0.00  0.00    +0.000 C 
ATOM     35  C   UNL     1      -5.015  12.369  24.594  0.00  0.00    +0.000 C 
BRANCH  34  36
ATOM     36  O   UNL     1      -5.751  14.572  24.207  0.00  0.00    +0.000 OA
ATOM     37  H   UNL     1      -6.617  15.018  24.125  0.00  0.00    +0.000 HD
ENDBRANCH  34  36
BRANCH  34  38
ATOM     38  C   UNL     1      -7.407  12.892  23.906  0.00  0.00    +0.000 C 
ATOM     39  C   UNL     1      -7.916  11.645  23.201  0.00  0.00    +0.000 C 
ENDBRANCH  34  38
ENDBRANCH  32  34
ENDBRANCH  31  32
ENDBRANCH   4  31
TORSDOF 8
ENDMDL
MODEL 2
REMARK VINA RESULT:      -6.8      1.007      1.404
REMARK  Name = 
REMARK  12 active torsions:
REMARK  status: ('A' for Active; 'I' for Inactive)
REMARK    1  A    between atoms: C_4  and  O_5
REMARK    2  A    between atoms: O_5  and  C_6
REMARK    3  A    between atoms: C_6  and  C_8
REMARK    4  A    between atoms: C_8  and  C_9
REMARK    5  A    between atoms: C_8  and  O_10
REMARK    6  A    between atoms: C_8  and  C_11
REMARK    7  A    between atoms: C_11  and  C_12
REMARK    8  A    between atoms: C_19  and  C_20
REMARK    9  A    between atoms: C_24  and  O_25
REMARK   10  A    between atoms: C_26  and  C_27
REMARK   11  A    between atoms: C_32  and  O_33
REMARK   12  A    between atoms: C_34  and  O_35
REMARK                            x       y       z     vdW  Elec       q    Type
REMARK                         _______ _______ _______ _____ _____    ______ ____
ROOT
ATOM      1  C   UNL     1      -3.294  11.514  18.028  0.00  0.00    +0.000 C 
ATOM      2  C   UNL     1      -2.346  11.594  18.972  0.00  0.00    +0.000 C 
ATOM      3  C   UNL     1      -2.300  12.563  20.137  0.00  0.00    +0.000 C 
ATOM      4  C   UNL     1      -3.577  13.322  20.546  0.00  0.00    +0.000 C 
ATOM      5  C   UNL     1      -3.308  14.649  21.225  0.00  0.00    +0.000 C 
ATOM      6  O   UNL     1      -4.047  15.146  22.063  0.00  0.00    +0.000 OA
ATOM      7  O   UNL     1      -2.335  15.366  20.632  0.00  0.00    +0.000 OA
ATOM      8  C   UNL     1      -1.003  14.842  20.424  0.00  0.00    +0.000 C 
ATOM      9  C   UNL     1      -0.474  15.781  19.296  0.00  0.00    +0.000 C 
ATOM     10  C   UNL     1       0.947  15.547  18.740  0.00  0.00    +0.000 C 
ATOM     11  C   UNL     1       2.101  16.506  19.103  0.00  0.00    +0.000 C 
ATOM     12  C   UNL     1       1.811  17.751  19.897  0.00  0.00    +0.000 C 
ATOM     13  C   UNL     1       3.389  16.177  18.846  0.00  0.00    +0.000 C 
ATOM     14  C   UNL     1       3.749  14.821  18.309  0.00  0.00    +0.000 C 
ATOM     15  O   UNL     1       4.927  14.448  18.335  0.00  0.00    +0.000 OA
ATOM     16  C   UNL     1       2.562  13.897  17.906  0.00  0.00    +0.000 C 
ATOM     17  C   UNL     1       1.404  14.065  18.956  0.00  0.00    +0.000 C 
ATOM     18  C   UNL     1       2.085  13.976  20.372  0.00  0.00    +0.000 C 
ATOM     19  C   UNL     1       0.034  13.098  18.845  0.00  0.00    +0.000 C 
ATOM     20  C   UNL     1      -0.902  13.318  20.120  0.00  0.00    +0.000 C 
ATOM     21  C   UNL     1      -0.061  12.412  21.123  0.00  0.00    +0.000 C 
ATOM     22  O   UNL     1       0.752  11.515  20.304  0.00  0.00    +0.000 OA
ATOM     23  C   UNL     1       0.214  11.560  18.963  0.00  0.00    +0.000 C 
ATOM     24  C   UNL     1      -1.123  10.690  19.007  0.00  0.00    +0.000 C 
ENDROOT
BRANCH  16  25
ATOM     25  O   UNL     1       2.957  12.555  17.742  0.00  0.00    +0.000 OA
ATOM     26  H   UNL     1       3.772  12.539  17.205  0.00  0.00    +0.000 HD
ENDBRANCH  16  25
BRANCH  23  27
ATOM     27  O   UNL     1       1.065  10.996  18.000  0.00  0.00    +0.000 OA
ATOM     28  H   UNL     1       1.432  11.700  17.437  0.00  0.00    +0.000 HD
ENDBRANCH  23  27
BRANCH  24  29
ATOM     29  O   UNL     1      -1.245   9.649  18.037  0.00  0.00    +0.000 OA
ATOM     30  H   UNL     1      -0.607   8.957  18.309  0.00  0.00    +0.000 HD
ENDBRANCH  24  29
BRANCH   4  31
ATOM     31  O   UNL     1      -4.486  12.457  21.313  0.00  0.00    +0.000 OA
BRANCH  31  32
ATOM     32  C   UNL     1      -5.755  12.259  20.834  0.00  0.00    +0.000 C 
ATOM     33  O   UNL     1      -6.008  12.013  19.656  0.00  0.00    +0.000 OA
BRANCH  32  34
ATOM     34  C   UNL     1      -6.864  12.483  21.910  0.00  0.00    +0.000 C 
ATOM     35  C   UNL     1      -7.916  13.447  21.394  0.00  0.00    +0.000 C 
BRANCH  34  36
ATOM     36  O   UNL     1      -7.570  11.231  22.107  0.00  0.00    +0.000 OA
ATOM     37  H   UNL     1      -8.524  11.411  21.994  0.00  0.00    +0.000 HD
ENDBRANCH  34  36
BRANCH  34  38
ATOM     38  C   UNL     1      -6.347  12.877  23.312  0.00  0.00    +0.000 C 
ATOM     39  C   UNL     1      -6.843  14.207  23.857  0.00  0.00    +0.000 C 
ENDBRANCH  34  38
ENDBRANCH  32  34
ENDBRANCH  31  32
ENDBRANCH   4  31
TORSDOF 8
ENDMDL
MODEL 3
REMARK VINA RESULT:      -6.8      0.696      1.028
REMARK  Name = 
REMARK  12 active torsions:
REMARK  status: ('A' for Active; 'I' for Inactive)
REMARK    1  A    between atoms: C_4  and  O_5
REMARK    2  A    between atoms: O_5  and  C_6
REMARK    3  A    between atoms: C_6  and  C_8
REMARK    4  A    between atoms: C_8  and  C_9
REMARK    5  A    between atoms: C_8  and  O_10
REMARK    6  A    between atoms: C_8  and  C_11
REMARK    7  A    between atoms: C_11  and  C_12
REMARK    8  A    between atoms: C_19  and  C_20
REMARK    9  A    between atoms: C_24  and  O_25
REMARK   10  A    between atoms: C_26  and  C_27
REMARK   11  A    between atoms: C_32  and  O_33
REMARK   12  A    between atoms: C_34  and  O_35
REMARK                            x       y       z     vdW  Elec       q    Type
REMARK                         _______ _______ _______ _____ _____    ______ ____
ROOT
ATOM      1  C   UNL     1      -3.393  11.943  18.863  0.00  0.00    +0.000 C 
ATOM      2  C   UNL     1      -2.291  11.885  19.624  0.00  0.00    +0.000 C 
ATOM      3  C   UNL     1      -1.969  12.746  20.829  0.00  0.00    +0.000 C 
ATOM      4  C   UNL     1      -3.096  13.541  21.518  0.00  0.00    +0.000 C 
ATOM      5  C   UNL     1      -2.616  14.787  22.233  0.00  0.00    +0.000 C 
ATOM      6  O   UNL     1      -3.157  15.253  23.225  0.00  0.00    +0.000 OA
ATOM      7  O   UNL     1      -1.712  15.493  21.528  0.00  0.00    +0.000 OA
ATOM      8  C   UNL     1      -0.480  14.912  21.044  0.00  0.00    +0.000 C 
ATOM      9  C   UNL     1      -0.090  15.912  19.912  0.00  0.00    +0.000 C 
ATOM     10  C   UNL     1       1.190  15.643  19.092  0.00  0.00    +0.000 C 
ATOM     11  C   UNL     1       2.457  16.499  19.309  0.00  0.00    +0.000 C 
ATOM     12  C   UNL     1       2.403  17.686  20.233  0.00  0.00    +0.000 C 
ATOM     13  C   UNL     1       3.652  16.118  18.799  0.00  0.00    +0.000 C 
ATOM     14  C   UNL     1       3.811  14.794  18.107  0.00  0.00    +0.000 C 
ATOM     15  O   UNL     1       4.945  14.352  17.892  0.00  0.00    +0.000 OA
ATOM     16  C   UNL     1       2.507  13.980  17.858  0.00  0.00    +0.000 C 
ATOM     17  C   UNL     1       1.568  14.124  19.110  0.00  0.00    +0.000 C 
ATOM     18  C   UNL     1       2.480  13.875  20.369  0.00  0.00    +0.000 C 
ATOM     19  C   UNL     1       0.133  13.253  19.178  0.00  0.00    +0.000 C 
ATOM     20  C   UNL     1      -0.545  13.417  20.615  0.00  0.00    +0.000 C 
ATOM     21  C   UNL     1       0.391  12.380  21.379  0.00  0.00    +0.000 C 
ATOM     22  O   UNL     1       0.979  11.510  20.362  0.00  0.00    +0.000 OA
ATOM     23  C   UNL     1       0.219  11.702  19.148  0.00  0.00    +0.000 C 
ATOM     24  C   UNL     1      -1.151  10.912  19.369  0.00  0.00    +0.000 C 
ENDROOT
BRANCH  16  25
ATOM     25  O   UNL     1       2.769  12.636  17.527  0.00  0.00    +0.000 OA
ATOM     26  H   UNL     1       3.143  12.610  16.625  0.00  0.00    +0.000 HD
ENDBRANCH  16  25
BRANCH  23  27
ATOM     27  O   UNL     1       0.843  11.174  18.008  0.00  0.00    +0.000 OA
ATOM     28  H   UNL     1       1.778  11.443  17.995  0.00  0.00    +0.000 HD
ENDBRANCH  23  27
BRANCH  24  29
ATOM     29  O   UNL     1      -1.517   9.967  18.363  0.00  0.00    +0.000 OA
ATOM     30  H   UNL     1      -1.753   9.146  18.844  0.00  0.00    +0.000 HD
ENDBRANCH  24  29
BRANCH   4  31
ATOM     31  O   UNL     1      -3.917  12.668  22.371  0.00  0.00    +0.000 OA
BRANCH  31  32
ATOM     32  C   UNL     1      -5.266  12.612  22.138  0.00  0.00    +0.000 C 
ATOM     33  O   UNL     1      -5.766  12.073  21.153  0.00  0.00    +0.000 OA
BRANCH  32  34
ATOM     34  C   UNL     1      -6.109  13.397  23.192  0.00  0.00    +0.000 C 
ATOM     35  C   UNL     1      -7.237  12.530  23.722  0.00  0.00    +0.000 C 
BRANCH  34  36
ATOM     36  O   UNL     1      -5.268  13.661  24.345  0.00  0.00    +0.000 OA
ATOM     37  H   UNL     1      -5.850  13.694  25.130  0.00  0.00    +0.000 HD
ENDBRANCH  34  36
BRANCH  34  38
ATOM     38  C   UNL     1      -6.606  14.786  22.732  0.00  0.00    +0.000 C 
ATOM     39  C   UNL     1      -6.524  15.900  23.764  0.00  0.00    +0.000 C 
ENDBRANCH  34  38
ENDBRANCH  32  34
ENDBRANCH  31  32
ENDBRANCH   4  31
TORSDOF 8
ENDMDL
MODEL 4
REMARK VINA RESULT:      -6.8      2.551      4.797
REMARK  Name = 
REMARK  12 active torsions:
REMARK  status: ('A' for Active; 'I' for Inactive)
REMARK    1  A    between atoms: C_4  and  O_5
REMARK    2  A    between atoms: O_5  and  C_6
REMARK    3  A    between atoms: C_6  and  C_8
REMARK    4  A    between atoms: C_8  and  C_9
REMARK    5  A    between atoms: C_8  and  O_10
REMARK    6  A    between atoms: C_8  and  C_11
REMARK    7  A    between atoms: C_11  and  C_12
REMARK    8  A    between atoms: C_19  and  C_20
REMARK    9  A    between atoms: C_24  and  O_25
REMARK   10  A    between atoms: C_26  and  C_27
REMARK   11  A    between atoms: C_32  and  O_33
REMARK   12  A    between atoms: C_34  and  O_35
REMARK                            x       y       z     vdW  Elec       q    Type
REMARK                         _______ _______ _______ _____ _____    ______ ____
ROOT
ATOM      1  C   UNL     1      -0.054  15.690  21.356  0.00  0.00    +0.000 C 
ATOM      2  C   UNL     1      -0.639  14.784  20.561  0.00  0.00    +0.000 C 
ATOM      3  C   UNL     1      -1.589  13.680  20.981  0.00  0.00    +0.000 C 
ATOM      4  C   UNL     1      -2.267  13.746  22.364  0.00  0.00    +0.000 C 
ATOM      5  C   UNL     1      -2.642  12.391  22.926  0.00  0.00    +0.000 C 
ATOM      6  O   UNL     1      -3.592  12.203  23.673  0.00  0.00    +0.000 OA
ATOM      7  O   UNL     1      -1.686  11.458  22.758  0.00  0.00    +0.000 OA
ATOM      8  C   UNL     1      -1.149  11.123  21.457  0.00  0.00    +0.000 C 
ATOM      9  C   UNL     1       0.204  10.450  21.845  0.00  0.00    +0.000 C 
ATOM     10  C   UNL     1       1.135   9.952  20.720  0.00  0.00    +0.000 C 
ATOM     11  C   UNL     1       1.281   8.442  20.431  0.00  0.00    +0.000 C 
ATOM     12  C   UNL     1       0.613   7.444  21.337  0.00  0.00    +0.000 C 
ATOM     13  C   UNL     1       1.878   8.002  19.297  0.00  0.00    +0.000 C 
ATOM     14  C   UNL     1       2.310   8.965  18.228  0.00  0.00    +0.000 C 
ATOM     15  O   UNL     1       2.600   8.537  17.105  0.00  0.00    +0.000 OA
ATOM     16  C   UNL     1       2.197  10.480  18.571  0.00  0.00    +0.000 C 
ATOM     17  C   UNL     1       0.873  10.722  19.382  0.00  0.00    +0.000 C 
ATOM     18  C   UNL     1      -0.261   9.956  18.604  0.00  0.00    +0.000 C 
ATOM     19  C   UNL     1       0.422  12.289  19.789  0.00  0.00    +0.000 C 
ATOM     20  C   UNL     1      -1.038  12.293  20.436  0.00  0.00    +0.000 C 
ATOM     21  C   UNL     1      -1.844  12.168  19.069  0.00  0.00    +0.000 C 
ATOM     22  O   UNL     1      -0.944  12.605  18.003  0.00  0.00    +0.000 OA
ATOM     23  C   UNL     1       0.158  13.295  18.636  0.00  0.00    +0.000 C 
ATOM     24  C   UNL     1      -0.415  14.724  19.058  0.00  0.00    +0.000 C 
ENDROOT
BRANCH  16  25
ATOM     25  O   UNL     1       2.292  11.298  17.427  0.00  0.00    +0.000 OA
ATOM     26  H   UNL     1       2.140  10.741  16.639  0.00  0.00    +0.000 HD
ENDBRANCH  16  25
BRANCH  23  27
ATOM     27  O   UNL     1       1.251  13.504  17.781  0.00  0.00    +0.000 OA
ATOM     28  H   UNL     1       1.483  12.668  17.338  0.00  0.00    +0.000 HD
ENDBRANCH  23  27
BRANCH  24  29
ATOM     29  O   UNL     1       0.318  15.867  18.617  0.00  0.00    +0.000 OA
ATOM     30  H   UNL     1       1.130  15.515  18.196  0.00  0.00    +0.000 HD
ENDBRANCH  24  29
BRANCH   4  31
ATOM     31  O   UNL     1      -3.387  14.699  22.361  0.00  0.00    +0.000 OA
BRANCH  31  32
ATOM     32  C   UNL     1      -3.279  15.833  23.123  0.00  0.00    +0.000 C 
ATOM     33  O   UNL     1      -2.751  16.870  22.728  0.00  0.00    +0.000 OA
BRANCH  32  34
ATOM     34  C   UNL     1      -3.797  15.649  24.584  0.00  0.00    +0.000 C 
ATOM     35  C   UNL     1      -4.418  16.938  25.093  0.00  0.00    +0.000 C 
BRANCH  34  36
ATOM     36  O   UNL     1      -4.887  14.691  24.566  0.00  0.00    +0.000 OA
ATOM     37  H   UNL     1      -4.644  13.982  23.938  0.00  0.00    +0.000 HD
ENDBRANCH  34  36
BRANCH  34  38
ATOM     38  C   UNL     1      -2.767  15.065  25.577  0.00  0.00    +0.000 C 
ATOM     39  C   UNL     1      -1.587  15.962  25.919  0.00  0.00    +0.000 C 
ENDBRANCH  34  38
ENDBRANCH  32  34
ENDBRANCH  31  32
ENDBRANCH   4  31
TORSDOF 8
ENDMDL
MODEL 5
REMARK VINA RESULT:      -6.5      2.235      4.464
REMARK  Name = 
REMARK  12 active torsions:
REMARK  status: ('A' for Active; 'I' for Inactive)
REMARK    1  A    between atoms: C_4  and  O_5
REMARK    2  A    between atoms: O_5  and  C_6
REMARK    3  A    between atoms: C_6  and  C_8
REMARK    4  A    between atoms: C_8  and  C_9
REMARK    5  A    between atoms: C_8  and  O_10
REMARK    6  A    between atoms: C_8  and  C_11
REMARK    7  A    between atoms: C_11  and  C_12
REMARK    8  A    between atoms: C_19  and  C_20
REMARK    9  A    between atoms: C_24  and  O_25
REMARK   10  A    between atoms: C_26  and  C_27
REMARK   11  A    between atoms: C_32  and  O_33
REMARK   12  A    between atoms: C_34  and  O_35
REMARK                            x       y       z     vdW  Elec       q    Type
REMARK                         _______ _______ _______ _____ _____    ______ ____
ROOT
ATOM      1  C   UNL     1      -0.203  15.534  21.603  0.00  0.00    +0.000 C 
ATOM      2  C   UNL     1      -0.783  14.624  20.809  0.00  0.00    +0.000 C 
ATOM      3  C   UNL     1      -1.671  13.473  21.238  0.00  0.00    +0.000 C 
ATOM      4  C   UNL     1      -2.293  13.478  22.649  0.00  0.00    +0.000 C 
ATOM      5  C   UNL     1      -2.590  12.095  23.190  0.00  0.00    +0.000 C 
ATOM      6  O   UNL     1      -3.500  11.851  23.969  0.00  0.00    +0.000 OA
ATOM      7  O   UNL     1      -1.605  11.207  22.959  0.00  0.00    +0.000 OA
ATOM      8  C   UNL     1      -1.110  10.925  21.630  0.00  0.00    +0.000 C 
ATOM      9  C   UNL     1       0.283  10.299  21.946  0.00  0.00    +0.000 C 
ATOM     10  C   UNL     1       1.187   9.866  20.771  0.00  0.00    +0.000 C 
ATOM     11  C   UNL     1       1.381   8.371  20.438  0.00  0.00    +0.000 C 
ATOM     12  C   UNL     1       0.791   7.325  21.344  0.00  0.00    +0.000 C 
ATOM     13  C   UNL     1       1.946   7.984  19.270  0.00  0.00    +0.000 C 
ATOM     14  C   UNL     1       2.296   8.988  18.209  0.00  0.00    +0.000 C 
ATOM     15  O   UNL     1       2.556   8.600  17.064  0.00  0.00    +0.000 OA
ATOM     16  C   UNL     1       2.137  10.489  18.595  0.00  0.00    +0.000 C 
ATOM     17  C   UNL     1       0.839  10.658  19.465  0.00  0.00    +0.000 C 
ATOM     18  C   UNL     1      -0.295   9.865  18.714  0.00  0.00    +0.000 C 
ATOM     19  C   UNL     1       0.344  12.194  19.930  0.00  0.00    +0.000 C 
ATOM     20  C   UNL     1      -1.088  12.123  20.636  0.00  0.00    +0.000 C 
ATOM     21  C   UNL     1      -1.944  11.999  19.299  0.00  0.00    +0.000 C 
ATOM     22  O   UNL     1      -1.107  12.497  18.210  0.00  0.00    +0.000 OA
ATOM     23  C   UNL     1      -0.008  13.216  18.815  0.00  0.00    +0.000 C 
ATOM     24  C   UNL     1      -0.620  14.610  19.297  0.00  0.00    +0.000 C 
ENDROOT
BRANCH  16  25
ATOM     25  O   UNL     1       2.152  11.337  17.470  0.00  0.00    +0.000 OA
ATOM     26  H   UNL     1       1.670  10.894  16.746  0.00  0.00    +0.000 HD
ENDBRANCH  16  25
BRANCH  23  27
ATOM     27  O   UNL     1       1.040  13.490  17.922  0.00  0.00    +0.000 OA
ATOM     28  H   UNL     1       0.943  12.937  17.128  0.00  0.00    +0.000 HD
ENDBRANCH  23  27
BRANCH  24  29
ATOM     29  O   UNL     1       0.049  15.793  18.856  0.00  0.00    +0.000 OA
ATOM     30  H   UNL     1       0.981  15.692  19.143  0.00  0.00    +0.000 HD
ENDBRANCH  24  29
BRANCH   4  31
ATOM     31  O   UNL     1      -3.449  14.384  22.716  0.00  0.00    +0.000 OA
BRANCH  31  32
ATOM     32  C   UNL     1      -4.395  14.306  21.727  0.00  0.00    +0.000 C 
ATOM     33  O   UNL     1      -4.214  14.701  20.578  0.00  0.00    +0.000 OA
BRANCH  32  34
ATOM     34  C   UNL     1      -5.770  13.762  22.230  0.00  0.00    +0.000 C 
ATOM     35  C   UNL     1      -6.888  14.217  21.309  0.00  0.00    +0.000 C 
BRANCH  34  36
ATOM     36  O   UNL     1      -5.759  12.316  22.117  0.00  0.00    +0.000 OA
ATOM     37  H   UNL     1      -5.105  12.080  21.430  0.00  0.00    +0.000 HD
ENDBRANCH  34  36
BRANCH  34  38
ATOM     38  C   UNL     1      -6.085  14.047  23.716  0.00  0.00    +0.000 C 
ATOM     39  C   UNL     1      -7.534  13.867  24.138  0.00  0.00    +0.000 C 
ENDBRANCH  34  38
ENDBRANCH  32  34
ENDBRANCH  31  32
ENDBRANCH   4  31
TORSDOF 8
ENDMDL
MODEL 6
REMARK VINA RESULT:      -6.5      2.436      4.704
REMARK  Name = 
REMARK  12 active torsions:
REMARK  status: ('A' for Active; 'I' for Inactive)
REMARK    1  A    between atoms: C_4  and  O_5
REMARK    2  A    between atoms: O_5  and  C_6
REMARK    3  A    between atoms: C_6  and  C_8
REMARK    4  A    between atoms: C_8  and  C_9
REMARK    5  A    between atoms: C_8  and  O_10
REMARK    6  A    between atoms: C_8  and  C_11
REMARK    7  A    between atoms: C_11  and  C_12
REMARK    8  A    between atoms: C_19  and  C_20
REMARK    9  A    between atoms: C_24  and  O_25
REMARK   10  A    between atoms: C_26  and  C_27
REMARK   11  A    between atoms: C_32  and  O_33
REMARK   12  A    between atoms: C_34  and  O_35
REMARK                            x       y       z     vdW  Elec       q    Type
REMARK                         _______ _______ _______ _____ _____    ______ ____
ROOT
ATOM      1  C   UNL     1      -0.008  15.734  21.312  0.00  0.00    +0.000 C 
ATOM      2  C   UNL     1      -0.601  14.829  20.522  0.00  0.00    +0.000 C 
ATOM      3  C   UNL     1      -1.567  13.740  20.947  0.00  0.00    +0.000 C 
ATOM      4  C   UNL     1      -2.249  13.826  22.326  0.00  0.00    +0.000 C 
ATOM      5  C   UNL     1      -2.644  12.480  22.897  0.00  0.00    +0.000 C 
ATOM      6  O   UNL     1      -3.599  12.311  23.641  0.00  0.00    +0.000 OA
ATOM      7  O   UNL     1      -1.699  11.534  22.740  0.00  0.00    +0.000 OA
ATOM      8  C   UNL     1      -1.161  11.182  21.445  0.00  0.00    +0.000 C 
ATOM      9  C   UNL     1       0.181  10.495  21.844  0.00  0.00    +0.000 C 
ATOM     10  C   UNL     1       1.111   9.976  20.726  0.00  0.00    +0.000 C 
ATOM     11  C   UNL     1       1.238   8.462  20.450  0.00  0.00    +0.000 C 
ATOM     12  C   UNL     1       0.554   7.479  21.361  0.00  0.00    +0.000 C 
ATOM     13  C   UNL     1       1.834   8.006  19.322  0.00  0.00    +0.000 C 
ATOM     14  C   UNL     1       2.283   8.954  18.247  0.00  0.00    +0.000 C 
ATOM     15  O   UNL     1       2.571   8.514  17.128  0.00  0.00    +0.000 OA
ATOM     16  C   UNL     1       2.188  10.473  18.577  0.00  0.00    +0.000 C 
ATOM     17  C   UNL     1       0.864  10.739  19.381  0.00  0.00    +0.000 C 
ATOM     18  C   UNL     1      -0.277   9.981  18.605  0.00  0.00    +0.000 C 
ATOM     19  C   UNL     1       0.431  12.314  19.773  0.00  0.00    +0.000 C 
ATOM     20  C   UNL     1      -1.031  12.342  20.415  0.00  0.00    +0.000 C 
ATOM     21  C   UNL     1      -1.834  12.217  19.045  0.00  0.00    +0.000 C 
ATOM     22  O   UNL     1      -0.923  12.633  17.980  0.00  0.00    +0.000 OA
ATOM     23  C   UNL     1       0.185  13.315  18.611  0.00  0.00    +0.000 C 
ATOM     24  C   UNL     1      -0.372  14.754  19.020  0.00  0.00    +0.000 C 
ENDROOT
BRANCH  16  25
ATOM     25  O   UNL     1       2.297  11.280  17.427  0.00  0.00    +0.000 OA
ATOM     26  H   UNL     1       1.989  10.763  16.659  0.00  0.00    +0.000 HD
ENDBRANCH  16  25
BRANCH  23  27
ATOM     27  O   UNL     1       1.284  13.503  17.759  0.00  0.00    +0.000 OA
ATOM     28  H   UNL     1       1.228  14.382  17.345  0.00  0.00    +0.000 HD
ENDBRANCH  23  27
BRANCH  24  29
ATOM     29  O   UNL     1       0.378  15.884  18.573  0.00  0.00    +0.000 OA
ATOM     30  H   UNL     1       0.127  16.015  17.634  0.00  0.00    +0.000 HD
ENDBRANCH  24  29
BRANCH   4  31
ATOM     31  O   UNL     1      -3.357  14.793  22.311  0.00  0.00    +0.000 OA
BRANCH  31  32
ATOM     32  C   UNL     1      -3.319  15.840  23.194  0.00  0.00    +0.000 C 
ATOM     33  O   UNL     1      -2.479  16.736  23.153  0.00  0.00    +0.000 OA
BRANCH  32  34
ATOM     34  C   UNL     1      -4.385  15.730  24.330  0.00  0.00    +0.000 C 
ATOM     35  C   UNL     1      -5.666  15.113  23.796  0.00  0.00    +0.000 C 
BRANCH  34  36
ATOM     36  O   UNL     1      -3.902  14.789  25.322  0.00  0.00    +0.000 OA
ATOM     37  H   UNL     1      -3.490  14.043  24.842  0.00  0.00    +0.000 HD
ENDBRANCH  34  36
BRANCH  34  38
ATOM     38  C   UNL     1      -4.649  17.038  25.111  0.00  0.00    +0.000 C 
ATOM     39  C   UNL     1      -5.551  18.053  24.429  0.00  0.00    +0.000 C 
ENDBRANCH  34  38
ENDBRANCH  32  34
ENDBRANCH  31  32
ENDBRANCH   4  31
TORSDOF 8
ENDMDL
MODEL 7
REMARK VINA RESULT:      -6.5      1.206      1.502
REMARK  Name = 
REMARK  12 active torsions:
REMARK  status: ('A' for Active; 'I' for Inactive)
REMARK    1  A    between atoms: C_4  and  O_5
REMARK    2  A    between atoms: O_5  and  C_6
REMARK    3  A    between atoms: C_6  and  C_8
REMARK    4  A    between atoms: C_8  and  C_9
REMARK    5  A    between atoms: C_8  and  O_10
REMARK    6  A    between atoms: C_8  and  C_11
REMARK    7  A    between atoms: C_11  and  C_12
REMARK    8  A    between atoms: C_19  and  C_20
REMARK    9  A    between atoms: C_24  and  O_25
REMARK   10  A    between atoms: C_26  and  C_27
REMARK   11  A    between atoms: C_32  and  O_33
REMARK   12  A    between atoms: C_34  and  O_35
REMARK                            x       y       z     vdW  Elec       q    Type
REMARK                         _______ _______ _______ _____ _____    ______ ____
ROOT
ATOM      1  C   UNL     1      -3.182  11.508  17.602  0.00  0.00    +0.000 C 
ATOM      2  C   UNL     1      -2.307  11.552  18.616  0.00  0.00    +0.000 C 
ATOM      3  C   UNL     1      -2.359  12.463  19.826  0.00  0.00    +0.000 C 
ATOM      4  C   UNL     1      -3.674  13.189  20.175  0.00  0.00    +0.000 C 
ATOM      5  C   UNL     1      -3.473  14.484  20.934  0.00  0.00    +0.000 C 
ATOM      6  O   UNL     1      -4.278  14.933  21.738  0.00  0.00    +0.000 OA
ATOM      7  O   UNL     1      -2.469  15.238  20.450  0.00  0.00    +0.000 OA
ATOM      8  C   UNL     1      -1.118  14.739  20.316  0.00  0.00    +0.000 C 
ATOM      9  C   UNL     1      -0.521  15.737  19.277  0.00  0.00    +0.000 C 
ATOM     10  C   UNL     1       0.940  15.544  18.817  0.00  0.00    +0.000 C 
ATOM     11  C   UNL     1       2.052  16.496  19.309  0.00  0.00    +0.000 C 
ATOM     12  C   UNL     1       1.688  17.698  20.138  0.00  0.00    +0.000 C 
ATOM     13  C   UNL     1       3.360  16.192  19.132  0.00  0.00    +0.000 C 
ATOM     14  C   UNL     1       3.776  14.868  18.559  0.00  0.00    +0.000 C 
ATOM     15  O   UNL     1       4.954  14.506  18.655  0.00  0.00    +0.000 OA
ATOM     16  C   UNL     1       2.634  13.953  18.025  0.00  0.00    +0.000 C 
ATOM     17  C   UNL     1       1.401  14.058  18.994  0.00  0.00    +0.000 C 
ATOM     18  C   UNL     1       1.977  13.908  20.451  0.00  0.00    +0.000 C 
ATOM     19  C   UNL     1       0.056  13.084  18.737  0.00  0.00    +0.000 C 
ATOM     20  C   UNL     1      -0.974  13.233  19.948  0.00  0.00    +0.000 C 
ATOM     21  C   UNL     1      -0.197  12.288  20.966  0.00  0.00    +0.000 C 
ATOM     22  O   UNL     1       0.686  11.439  20.168  0.00  0.00    +0.000 OA
ATOM     23  C   UNL     1       0.247  11.544  18.794  0.00  0.00    +0.000 C 
ATOM     24  C   UNL     1      -1.078  10.660  18.698  0.00  0.00    +0.000 C 
ENDROOT
BRANCH  16  25
ATOM     25  O   UNL     1       3.058  12.624  17.828  0.00  0.00    +0.000 OA
ATOM     26  H   UNL     1       3.671  12.387  18.550  0.00  0.00    +0.000 HD
ENDBRANCH  16  25
BRANCH  23  27
ATOM     27  O   UNL     1       1.174  11.036  17.871  0.00  0.00    +0.000 OA
ATOM     28  H   UNL     1       0.761  10.320  17.357  0.00  0.00    +0.000 HD
ENDBRANCH  23  27
BRANCH  24  29
ATOM     29  O   UNL     1      -1.115   9.665  17.673  0.00  0.00    +0.000 OA
ATOM     30  H   UNL     1      -0.285   9.153  17.771  0.00  0.00    +0.000 HD
ENDBRANCH  24  29
BRANCH   4  31
ATOM     31  O   UNL     1      -4.624  12.279  20.831  0.00  0.00    +0.000 OA
BRANCH  31  32
ATOM     32  C   UNL     1      -5.886  12.169  20.307  0.00  0.00    +0.000 C 
ATOM     33  O   UNL     1      -6.122  12.111  19.103  0.00  0.00    +0.000 OA
BRANCH  32  34
ATOM     34  C   UNL     1      -7.011  12.233  21.388  0.00  0.00    +0.000 C 
ATOM     35  C   UNL     1      -6.430  12.625  22.735  0.00  0.00    +0.000 C 
BRANCH  34  36
ATOM     36  O   UNL     1      -7.917  13.313  21.043  0.00  0.00    +0.000 OA
ATOM     37  H   UNL     1      -7.419  13.948  20.491  0.00  0.00    +0.000 HD
ENDBRANCH  34  36
BRANCH  34  38
ATOM     38  C   UNL     1      -7.904  10.975  21.482  0.00  0.00    +0.000 C 
ATOM     39  C   UNL     1      -7.543   9.829  20.549  0.00  0.00    +0.000 C 
ENDBRANCH  34  38
ENDBRANCH  32  34
ENDBRANCH  31  32
ENDBRANCH   4  31
TORSDOF 8
ENDMDL
MODEL 8
REMARK VINA RESULT:      -6.4      9.372     12.565
REMARK  Name = 
REMARK  12 active torsions:
REMARK  status: ('A' for Active; 'I' for Inactive)
REMARK    1  A    between atoms: C_4  and  O_5
REMARK    2  A    between atoms: O_5  and  C_6
REMARK    3  A    between atoms: C_6  and  C_8
REMARK    4  A    between atoms: C_8  and  C_9
REMARK    5  A    between atoms: C_8  and  O_10
REMARK    6  A    between atoms: C_8  and  C_11
REMARK    7  A    between atoms: C_11  and  C_12
REMARK    8  A    between atoms: C_19  and  C_20
REMARK    9  A    between atoms: C_24  and  O_25
REMARK   10  A    between atoms: C_26  and  C_27
REMARK   11  A    between atoms: C_32  and  O_33
REMARK   12  A    between atoms: C_34  and  O_35
REMARK                            x       y       z     vdW  Elec       q    Type
REMARK                         _______ _______ _______ _____ _____    ______ ____
ROOT
ATOM      1  C   UNL     1      11.186  12.400  20.953  0.00  0.00    +0.000 C 
ATOM      2  C   UNL     1       9.929  12.798  21.194  0.00  0.00    +0.000 C 
ATOM      3  C   UNL     1       9.404  14.220  21.176  0.00  0.00    +0.000 C 
ATOM      4  C   UNL     1      10.232  15.328  20.495  0.00  0.00    +0.000 C 
ATOM      5  C   UNL     1       9.982  16.711  21.057  0.00  0.00    +0.000 C 
ATOM      6  O   UNL     1      10.078  17.739  20.402  0.00  0.00    +0.000 OA
ATOM      7  O   UNL     1       9.914  16.738  22.401  0.00  0.00    +0.000 OA
ATOM      8  C   UNL     1       8.983  15.921  23.148  0.00  0.00    +0.000 C 
ATOM      9  C   UNL     1       9.641  15.915  24.562  0.00  0.00    +0.000 C 
ATOM     10  C   UNL     1       8.964  15.111  25.693  0.00  0.00    +0.000 C 
ATOM     11  C   UNL     1       8.207  15.835  26.827  0.00  0.00    +0.000 C 
ATOM     12  C   UNL     1       8.241  17.337  26.903  0.00  0.00    +0.000 C 
ATOM     13  C   UNL     1       7.396  15.154  27.671  0.00  0.00    +0.000 C 
ATOM     14  C   UNL     1       7.111  13.694  27.459  0.00  0.00    +0.000 C 
ATOM     15  O   UNL     1       6.174  13.162  28.066  0.00  0.00    +0.000 OA
ATOM     16  C   UNL     1       7.928  12.982  26.341  0.00  0.00    +0.000 C 
ATOM     17  C   UNL     1       8.076  13.957  25.117  0.00  0.00    +0.000 C 
ATOM     18  C   UNL     1       6.640  14.547  24.854  0.00  0.00    +0.000 C 
ATOM     19  C   UNL     1       8.812  13.417  23.707  0.00  0.00    +0.000 C 
ATOM     20  C   UNL     1       8.673  14.515  22.555  0.00  0.00    +0.000 C 
ATOM     21  C   UNL     1       7.164  14.184  22.169  0.00  0.00    +0.000 C 
ATOM     22  O   UNL     1       6.887  12.833  22.653  0.00  0.00    +0.000 OA
ATOM     23  C   UNL     1       8.162  12.222  22.956  0.00  0.00    +0.000 C 
ATOM     24  C   UNL     1       8.802  11.839  21.544  0.00  0.00    +0.000 C 
ENDROOT
BRANCH  16  25
ATOM     25  O   UNL     1       7.375  11.738  25.981  0.00  0.00    +0.000 OA
ATOM     26  H   UNL     1       6.501  11.897  25.575  0.00  0.00    +0.000 HD
ENDBRANCH  16  25
BRANCH  23  27
ATOM     27  O   UNL     1       8.053  11.046  23.714  0.00  0.00    +0.000 OA
ATOM     28  H   UNL     1       7.182  10.639  23.559  0.00  0.00    +0.000 HD
ENDBRANCH  23  27
BRANCH  24  29
ATOM     29  O   UNL     1       9.228  10.486  21.377  0.00  0.00    +0.000 OA
ATOM     30  H   UNL     1       9.645  10.233  22.227  0.00  0.00    +0.000 HD
ENDBRANCH  24  29
BRANCH   4  31
ATOM     31  O   UNL     1      10.097  15.268  19.032  0.00  0.00    +0.000 OA
BRANCH  31  32
ATOM     32  C   UNL     1      11.128  14.733  18.304  0.00  0.00    +0.000 C 
ATOM     33  O   UNL     1      12.282  15.153  18.346  0.00  0.00    +0.000 OA
BRANCH  32  34
ATOM     34  C   UNL     1      10.675  13.601  17.329  0.00  0.00    +0.000 C 
ATOM     35  C   UNL     1       9.165  13.438  17.372  0.00  0.00    +0.000 C 
BRANCH  34  36
ATOM     36  O   UNL     1      10.966  14.022  15.972  0.00  0.00    +0.000 OA
ATOM     37  H   UNL     1      11.715  14.649  16.014  0.00  0.00    +0.000 HD
ENDBRANCH  34  36
BRANCH  34  38
ATOM     38  C   UNL     1      11.412  12.254  17.499  0.00  0.00    +0.000 C 
ATOM     39  C   UNL     1      10.540  11.050  17.815  0.00  0.00    +0.000 C 
ENDBRANCH  34  38
ENDBRANCH  32  34
ENDBRANCH  31  32
ENDBRANCH   4  31
TORSDOF 8
ENDMDL
MODEL 9
REMARK VINA RESULT:      -6.4      2.255      4.383
REMARK  Name = 
REMARK  12 active torsions:
REMARK  status: ('A' for Active; 'I' for Inactive)
REMARK    1  A    between atoms: C_4  and  O_5
REMARK    2  A    between atoms: O_5  and  C_6
REMARK    3  A    between atoms: C_6  and  C_8
REMARK    4  A    between atoms: C_8  and  C_9
REMARK    5  A    between atoms: C_8  and  O_10
REMARK    6  A    between atoms: C_8  and  C_11
REMARK    7  A    between atoms: C_11  and  C_12
REMARK    8  A    between atoms: C_19  and  C_20
REMARK    9  A    between atoms: C_24  and  O_25
REMARK   10  A    between atoms: C_26  and  C_27
REMARK   11  A    between atoms: C_32  and  O_33
REMARK   12  A    between atoms: C_34  and  O_35
REMARK                            x       y       z     vdW  Elec       q    Type
REMARK                         _______ _______ _______ _____ _____    ______ ____
ROOT
ATOM      1  C   UNL     1      -0.794  15.882  22.196  0.00  0.00    +0.000 C 
ATOM      2  C   UNL     1      -1.343  15.003  21.347  0.00  0.00    +0.000 C 
ATOM      3  C   UNL     1      -2.191  13.798  21.704  0.00  0.00    +0.000 C 
ATOM      4  C   UNL     1      -2.814  13.697  23.111  0.00  0.00    +0.000 C 
ATOM      5  C   UNL     1      -3.065  12.275  23.567  0.00  0.00    +0.000 C 
ATOM      6  O   UNL     1      -3.967  11.954  24.328  0.00  0.00    +0.000 OA
ATOM      7  O   UNL     1      -2.051  11.436  23.286  0.00  0.00    +0.000 OA
ATOM      8  C   UNL     1      -1.545  11.252  21.944  0.00  0.00    +0.000 C 
ATOM      9  C   UNL     1      -0.131  10.655  22.225  0.00  0.00    +0.000 C 
ATOM     10  C   UNL     1       0.787  10.324  21.029  0.00  0.00    +0.000 C 
ATOM     11  C   UNL     1       1.031   8.859  20.607  0.00  0.00    +0.000 C 
ATOM     12  C   UNL     1       0.477   7.741  21.447  0.00  0.00    +0.000 C 
ATOM     13  C   UNL     1       1.611   8.563  19.419  0.00  0.00    +0.000 C 
ATOM     14  C   UNL     1       1.927   9.640  18.422  0.00  0.00    +0.000 C 
ATOM     15  O   UNL     1       2.201   9.331  17.257  0.00  0.00    +0.000 OA
ATOM     16  C   UNL     1       1.717  11.109  18.897  0.00  0.00    +0.000 C 
ATOM     17  C   UNL     1       0.414  11.181  19.773  0.00  0.00    +0.000 C 
ATOM     18  C   UNL     1      -0.692  10.397  18.972  0.00  0.00    +0.000 C 
ATOM     19  C   UNL     1      -0.134  12.669  20.327  0.00  0.00    +0.000 C 
ATOM     20  C   UNL     1      -1.563  12.508  21.023  0.00  0.00    +0.000 C 
ATOM     21  C   UNL     1      -2.413  12.435  19.680  0.00  0.00    +0.000 C 
ATOM     22  O   UNL     1      -1.592  13.026  18.625  0.00  0.00    +0.000 OA
ATOM     23  C   UNL     1      -0.519  13.744  19.275  0.00  0.00    +0.000 C 
ATOM     24  C   UNL     1      -1.178  15.085  19.838  0.00  0.00    +0.000 C 
ENDROOT
BRANCH  16  25
ATOM     25  O   UNL     1       1.704  12.023  17.826  0.00  0.00    +0.000 OA
ATOM     26  H   UNL     1       1.112  12.763  18.061  0.00  0.00    +0.000 HD
ENDBRANCH  16  25
BRANCH  23  27
ATOM     27  O   UNL     1       0.519  14.106  18.403  0.00  0.00    +0.000 OA
ATOM     28  H   UNL     1       0.414  13.635  17.558  0.00  0.00    +0.000 HD
ENDBRANCH  23  27
BRANCH  24  29
ATOM     29  O   UNL     1      -0.549  16.314  19.471  0.00  0.00    +0.000 OA
ATOM     30  H   UNL     1      -1.279  16.935  19.267  0.00  0.00    +0.000 HD
ENDBRANCH  24  29
BRANCH   4  31
ATOM     31  O   UNL     1      -4.001  14.558  23.229  0.00  0.00    +0.000 OA
BRANCH  31  32
ATOM     32  C   UNL     1      -5.093  14.270  22.453  0.00  0.00    +0.000 C 
ATOM     33  O   UNL     1      -5.051  14.164  21.229  0.00  0.00    +0.000 OA
BRANCH  32  34
ATOM     34  C   UNL     1      -6.425  14.196  23.264  0.00  0.00    +0.000 C 
ATOM     35  C   UNL     1      -7.386  13.215  22.617  0.00  0.00    +0.000 C 
BRANCH  34  36
ATOM     36  O   UNL     1      -6.136  13.631  24.568  0.00  0.00    +0.000 OA
ATOM     37  H   UNL     1      -5.261  13.966  24.846  0.00  0.00    +0.000 HD
ENDBRANCH  34  36
BRANCH  34  38
ATOM     38  C   UNL     1      -7.092  15.559  23.557  0.00  0.00    +0.000 C 
ATOM     39  C   UNL     1      -7.829  16.206  22.394  0.00  0.00    +0.000 C 
ENDBRANCH  34  38
ENDBRANCH  32  34
ENDBRANCH  31  32
ENDBRANCH   4  31
TORSDOF 8
ENDMDL
