MODEL 1
REMARK VINA RESULT:      -7.5      0.000      0.000
REMARK  Name = 
REMARK  9 active torsions:
REMARK  status: ('A' for Active; 'I' for Inactive)
REMARK    1  A    between atoms: C_1  and  C_2
REMARK    2  A    between atoms: C_2  and  O_3
REMARK    3  A    between atoms: O_3  and  C_4
REMARK    4  A    between atoms: C_8  and  C_9
REMARK    5  A    between atoms: N_11  and  C_12
REMARK    6  A    between atoms: C_12  and  N_14
REMARK    7  A    between atoms: N_14  and  C_15
REMARK    8  A    between atoms: C_21  and  C_22
REMARK    9  A    between atoms: C_22  and  O_24
REMARK                            x       y       z     vdW  Elec       q    Type
REMARK                         _______ _______ _______ _____ _____    ______ ____
ROOT
ATOM      1  C   UNL     1       3.417   3.801  17.766  0.00  0.00    +0.000 C 
ATOM      2  S   UNL     1       2.398   2.483  17.769  0.00  0.00    +0.000 S 
ENDROOT
BRANCH   1   5
ATOM      3  C   UNL     1       3.290   5.977  18.975  0.00  0.00    +0.000 C 
ATOM      4  O   UNL     1       3.928   5.672  19.973  0.00  0.00    +0.000 OA
ATOM      5  N   UNL     1       3.060   5.142  17.891  0.00  0.00    +0.000 N 
ATOM      6  H   UNL     1       2.361   5.456  17.234  0.00  0.00    +0.000 HD
BRANCH   3  11
ATOM      7  C   UNL     1       1.164   8.986  19.961  0.00  0.00    +0.000 A 
ATOM      8  C   UNL     1       1.205   9.713  18.765  0.00  0.00    +0.000 A 
ATOM      9  C   UNL     1       1.932   9.242  17.673  0.00  0.00    +0.000 A 
ATOM     10  C   UNL     1       2.613   8.031  17.770  0.00  0.00    +0.000 A 
ATOM     11  C   UNL     1       2.576   7.290  18.960  0.00  0.00    +0.000 A 
ATOM     12  C   UNL     1       1.858   7.775  20.064  0.00  0.00    +0.000 A 
BRANCH   7  13
ATOM     13  O   UNL     1       0.393   9.562  20.933  0.00  0.00    +0.000 OA
BRANCH  13  15
ATOM     14  C   UNL     1      -0.414   9.825  23.163  0.00  0.00    +0.000 C 
ATOM     15  C   UNL     1       0.371   8.937  22.214  0.00  0.00    +0.000 C 
ENDBRANCH  13  15
ENDBRANCH   7  13
ENDBRANCH   3  11
ENDBRANCH   1   5
BRANCH   1  16
ATOM     16  N   UNL     1       4.784   3.571  17.699  0.00  0.00    +0.000 N 
ATOM     17  H   UNL     1       5.092   2.740  18.211  0.00  0.00    +0.000 HD
BRANCH  16  18
ATOM     18  C   UNL     1       5.632   3.991  16.639  0.00  0.00    +0.000 A 
ATOM     19  C   UNL     1       5.395   3.493  15.345  0.00  0.00    +0.000 A 
ATOM     20  C   UNL     1       6.122   3.948  14.249  0.00  0.00    +0.000 A 
ATOM     21  C   UNL     1       7.120   4.894  14.441  0.00  0.00    +0.000 A 
ATOM     22 CL   UNL     1       7.975   5.507  13.084  0.00  0.00    +0.000 Cl
ATOM     23  C   UNL     1       7.427   5.340  15.725  0.00  0.00    +0.000 A 
ATOM     24  C   UNL     1       6.707   4.875  16.842  0.00  0.00    +0.000 A 
BRANCH  24  25
ATOM     25  C   UNL     1       7.152   5.402  18.161  0.00  0.00    +0.000 C 
ATOM     26  O   UNL     1       6.972   4.786  19.199  0.00  0.00    +0.000 OA
BRANCH  25  27
ATOM     27  O   UNL     1       7.793   6.586  18.128  0.00  0.00    +0.000 OA
ATOM     28  H   UNL     1       7.394   7.261  17.546  0.00  0.00    +0.000 HD
ENDBRANCH  25  27
ENDBRANCH  24  25
ENDBRANCH  16  18
ENDBRANCH   1  16
TORSDOF 8
ENDMDL
MODEL 2
REMARK VINA RESULT:      -7.3      1.650      2.502
REMARK  Name = 
REMARK  9 active torsions:
REMARK  status: ('A' for Active; 'I' for Inactive)
REMARK    1  A    between atoms: C_1  and  C_2
REMARK    2  A    between atoms: C_2  and  O_3
REMARK    3  A    between atoms: O_3  and  C_4
REMARK    4  A    between atoms: C_8  and  C_9
REMARK    5  A    between atoms: N_11  and  C_12
REMARK    6  A    between atoms: C_12  and  N_14
REMARK    7  A    between atoms: N_14  and  C_15
REMARK    8  A    between atoms: C_21  and  C_22
REMARK    9  A    between atoms: C_22  and  O_24
REMARK                            x       y       z     vdW  Elec       q    Type
REMARK                         _______ _______ _______ _____ _____    ______ ____
ROOT
ATOM      1  C   UNL     1       3.673   4.596  19.811  0.00  0.00    +0.000 C 
ATOM      2  S   UNL     1       3.285   2.988  20.001  0.00  0.00    +0.000 S 
ENDROOT
BRANCH   1   5
ATOM      3  C   UNL     1       2.596   6.723  19.082  0.00  0.00    +0.000 C 
ATOM      4  O   UNL     1       3.045   6.778  17.946  0.00  0.00    +0.000 OA
ATOM      5  N   UNL     1       2.830   5.693  19.982  0.00  0.00    +0.000 N 
ATOM      6  H   UNL     1       2.561   5.873  20.938  0.00  0.00    +0.000 HD
BRANCH   3  11
ATOM      7  C   UNL     1       0.843  10.097  19.381  0.00  0.00    +0.000 A 
ATOM      8  C   UNL     1       0.564  10.103  20.753  0.00  0.00    +0.000 A 
ATOM      9  C   UNL     1       0.919   9.020  21.554  0.00  0.00    +0.000 A 
ATOM     10  C   UNL     1       1.566   7.926  20.986  0.00  0.00    +0.000 A 
ATOM     11  C   UNL     1       1.856   7.908  19.613  0.00  0.00    +0.000 A 
ATOM     12  C   UNL     1       1.482   8.993  18.806  0.00  0.00    +0.000 A 
BRANCH   7  13
ATOM     13  O   UNL     1       0.458  11.238  18.733  0.00  0.00    +0.000 OA
BRANCH  13  15
ATOM     14  C   UNL     1      -1.600  10.490  17.783  0.00  0.00    +0.000 C 
ATOM     15  C   UNL     1      -0.938  11.525  18.675  0.00  0.00    +0.000 C 
ENDBRANCH  13  15
ENDBRANCH   7  13
ENDBRANCH   3  11
ENDBRANCH   1   5
BRANCH   1  16
ATOM     16  N   UNL     1       4.990   4.921  19.516  0.00  0.00    +0.000 N 
ATOM     17  H   UNL     1       5.633   4.812  20.304  0.00  0.00    +0.000 HD
BRANCH  16  18
ATOM     18  C   UNL     1       5.579   4.847  18.224  0.00  0.00    +0.000 A 
ATOM     19  C   UNL     1       4.901   4.146  17.211  0.00  0.00    +0.000 A 
ATOM     20  C   UNL     1       5.373   4.127  15.902  0.00  0.00    +0.000 A 
ATOM     21  C   UNL     1       6.552   4.793  15.595  0.00  0.00    +0.000 A 
ATOM     22 CL   UNL     1       7.104   4.829  13.970  0.00  0.00    +0.000 Cl
ATOM     23  C   UNL     1       7.283   5.425  16.600  0.00  0.00    +0.000 A 
ATOM     24  C   UNL     1       6.821   5.437  17.929  0.00  0.00    +0.000 A 
BRANCH  24  25
ATOM     25  C   UNL     1       7.708   6.117  18.914  0.00  0.00    +0.000 C 
ATOM     26  O   UNL     1       8.283   7.161  18.654  0.00  0.00    +0.000 OA
BRANCH  25  27
ATOM     27  O   UNL     1       7.808   5.519  20.117  0.00  0.00    +0.000 OA
ATOM     28  H   UNL     1       6.959   5.296  20.543  0.00  0.00    +0.000 HD
ENDBRANCH  25  27
ENDBRANCH  24  25
ENDBRANCH  16  18
ENDBRANCH   1  16
TORSDOF 8
ENDMDL
MODEL 3
REMARK VINA RESULT:      -7.2      3.421      7.724
REMARK  Name = 
REMARK  9 active torsions:
REMARK  status: ('A' for Active; 'I' for Inactive)
REMARK    1  A    between atoms: C_1  and  C_2
REMARK    2  A    between atoms: C_2  and  O_3
REMARK    3  A    between atoms: O_3  and  C_4
REMARK    4  A    between atoms: C_8  and  C_9
REMARK    5  A    between atoms: N_11  and  C_12
REMARK    6  A    between atoms: C_12  and  N_14
REMARK    7  A    between atoms: N_14  and  C_15
REMARK    8  A    between atoms: C_21  and  C_22
REMARK    9  A    between atoms: C_22  and  O_24
REMARK                            x       y       z     vdW  Elec       q    Type
REMARK                         _______ _______ _______ _____ _____    ______ ____
ROOT
ATOM      1  C   UNL     1       3.925   3.066  18.069  0.00  0.00    +0.000 C 
ATOM      2  S   UNL     1       4.326   2.137  19.393  0.00  0.00    +0.000 S 
ENDROOT
BRANCH   1   5
ATOM      3  C   UNL     1       5.531   4.208  16.542  0.00  0.00    +0.000 C 
ATOM      4  O   UNL     1       5.882   5.114  17.286  0.00  0.00    +0.000 OA
ATOM      5  N   UNL     1       4.644   3.197  16.883  0.00  0.00    +0.000 N 
ATOM      6  H   UNL     1       4.298   2.637  16.116  0.00  0.00    +0.000 HD
BRANCH   3  11
ATOM      7  C   UNL     1       5.751   3.646  12.776  0.00  0.00    +0.000 A 
ATOM      8  C   UNL     1       6.937   4.336  12.498  0.00  0.00    +0.000 A 
ATOM      9  C   UNL     1       7.633   4.988  13.514  0.00  0.00    +0.000 A 
ATOM     10  C   UNL     1       7.149   4.944  14.818  0.00  0.00    +0.000 A 
ATOM     11  C   UNL     1       5.963   4.254  15.112  0.00  0.00    +0.000 A 
ATOM     12  C   UNL     1       5.256   3.612  14.085  0.00  0.00    +0.000 A 
BRANCH   7  13
ATOM     13  O   UNL     1       5.196   3.037  11.684  0.00  0.00    +0.000 OA
BRANCH  13  15
ATOM     14  C   UNL     1       3.546   3.813  10.144  0.00  0.00    +0.000 C 
ATOM     15  C   UNL     1       3.789   3.172  11.499  0.00  0.00    +0.000 C 
ENDBRANCH  13  15
ENDBRANCH   7  13
ENDBRANCH   3  11
ENDBRANCH   1   5
BRANCH   1  16
ATOM     16  N   UNL     1       2.715   3.746  18.089  0.00  0.00    +0.000 N 
ATOM     17  H   UNL     1       1.903   3.160  17.881  0.00  0.00    +0.000 HD
BRANCH  16  18
ATOM     18  C   UNL     1       2.450   4.919  18.849  0.00  0.00    +0.000 A 
ATOM     19  C   UNL     1       2.782   6.170  18.300  0.00  0.00    +0.000 A 
ATOM     20  C   UNL     1       2.452   7.357  18.947  0.00  0.00    +0.000 A 
ATOM     21  C   UNL     1       1.803   7.303  20.173  0.00  0.00    +0.000 A 
ATOM     22 CL   UNL     1       1.333   8.763  20.946  0.00  0.00    +0.000 Cl
ATOM     23  C   UNL     1       1.538   6.074  20.775  0.00  0.00    +0.000 A 
ATOM     24  C   UNL     1       1.882   4.868  20.134  0.00  0.00    +0.000 A 
BRANCH  24  25
ATOM     25  C   UNL     1       1.575   3.625  20.893  0.00  0.00    +0.000 C 
ATOM     26  O   UNL     1       0.859   2.748  20.438  0.00  0.00    +0.000 OA
BRANCH  25  27
ATOM     27  O   UNL     1       2.164   3.519  22.100  0.00  0.00    +0.000 OA
ATOM     28  H   UNL     1       1.558   3.544  22.864  0.00  0.00    +0.000 HD
ENDBRANCH  25  27
ENDBRANCH  24  25
ENDBRANCH  16  18
ENDBRANCH   1  16
TORSDOF 8
ENDMDL
MODEL 4
REMARK VINA RESULT:      -7.2      1.477      1.840
REMARK  Name = 
REMARK  9 active torsions:
REMARK  status: ('A' for Active; 'I' for Inactive)
REMARK    1  A    between atoms: C_1  and  C_2
REMARK    2  A    between atoms: C_2  and  O_3
REMARK    3  A    between atoms: O_3  and  C_4
REMARK    4  A    between atoms: C_8  and  C_9
REMARK    5  A    between atoms: N_11  and  C_12
REMARK    6  A    between atoms: C_12  and  N_14
REMARK    7  A    between atoms: N_14  and  C_15
REMARK    8  A    between atoms: C_21  and  C_22
REMARK    9  A    between atoms: C_22  and  O_24
REMARK                            x       y       z     vdW  Elec       q    Type
REMARK                         _______ _______ _______ _____ _____    ______ ____
ROOT
ATOM      1  C   UNL     1       3.749   4.912  19.818  0.00  0.00    +0.000 C 
ATOM      2  S   UNL     1       3.243   3.352  20.109  0.00  0.00    +0.000 S 
ENDROOT
BRANCH   1   5
ATOM      3  C   UNL     1       2.416   6.812  18.910  0.00  0.00    +0.000 C 
ATOM      4  O   UNL     1       2.412   6.490  17.730  0.00  0.00    +0.000 OA
ATOM      5  N   UNL     1       2.996   6.079  19.935  0.00  0.00    +0.000 N 
ATOM      6  H   UNL     1       3.093   6.557  20.819  0.00  0.00    +0.000 HD
BRANCH   3  11
ATOM      7  C   UNL     1       1.025   9.776  20.867  0.00  0.00    +0.000 A 
ATOM      8  C   UNL     1       0.816  10.681  19.819  0.00  0.00    +0.000 A 
ATOM      9  C   UNL     1       1.146  10.338  18.509  0.00  0.00    +0.000 A 
ATOM     10  C   UNL     1       1.677   9.079  18.241  0.00  0.00    +0.000 A 
ATOM     11  C   UNL     1       1.888   8.161  19.280  0.00  0.00    +0.000 A 
ATOM     12  C   UNL     1       1.571   8.516  20.600  0.00  0.00    +0.000 A 
BRANCH   7  13
ATOM     13  O   UNL     1       0.631  10.245  22.090  0.00  0.00    +0.000 OA
BRANCH  13  15
ATOM     14  C   UNL     1      -1.376  11.001  23.137  0.00  0.00    +0.000 C 
ATOM     15  C   UNL     1      -0.302  11.323  22.114  0.00  0.00    +0.000 C 
ENDBRANCH  13  15
ENDBRANCH   7  13
ENDBRANCH   3  11
ENDBRANCH   1   5
BRANCH   1  16
ATOM     16  N   UNL     1       5.081   5.116  19.484  0.00  0.00    +0.000 N 
ATOM     17  H   UNL     1       5.735   4.938  20.251  0.00  0.00    +0.000 HD
BRANCH  16  18
ATOM     18  C   UNL     1       5.622   5.002  18.174  0.00  0.00    +0.000 A 
ATOM     19  C   UNL     1       4.877   4.323  17.192  0.00  0.00    +0.000 A 
ATOM     20  C   UNL     1       5.302   4.270  15.869  0.00  0.00    +0.000 A 
ATOM     21  C   UNL     1       6.499   4.877  15.515  0.00  0.00    +0.000 A 
ATOM     22 CL   UNL     1       6.997   4.871  13.872  0.00  0.00    +0.000 Cl
ATOM     23  C   UNL     1       7.293   5.483  16.487  0.00  0.00    +0.000 A 
ATOM     24  C   UNL     1       6.879   5.530  17.831  0.00  0.00    +0.000 A 
BRANCH  24  25
ATOM     25  C   UNL     1       7.829   6.177  18.777  0.00  0.00    +0.000 C 
ATOM     26  O   UNL     1       8.302   7.281  18.565  0.00  0.00    +0.000 OA
BRANCH  25  27
ATOM     27  O   UNL     1       8.107   5.476  19.893  0.00  0.00    +0.000 OA
ATOM     28  H   UNL     1       7.784   4.555  19.899  0.00  0.00    +0.000 HD
ENDBRANCH  25  27
ENDBRANCH  24  25
ENDBRANCH  16  18
ENDBRANCH   1  16
TORSDOF 8
ENDMDL
MODEL 5
REMARK VINA RESULT:      -7.2      3.398      7.824
REMARK  Name = 
REMARK  9 active torsions:
REMARK  status: ('A' for Active; 'I' for Inactive)
REMARK    1  A    between atoms: C_1  and  C_2
REMARK    2  A    between atoms: C_2  and  O_3
REMARK    3  A    between atoms: O_3  and  C_4
REMARK    4  A    between atoms: C_8  and  C_9
REMARK    5  A    between atoms: N_11  and  C_12
REMARK    6  A    between atoms: C_12  and  N_14
REMARK    7  A    between atoms: N_14  and  C_15
REMARK    8  A    between atoms: C_21  and  C_22
REMARK    9  A    between atoms: C_22  and  O_24
REMARK                            x       y       z     vdW  Elec       q    Type
REMARK                         _______ _______ _______ _____ _____    ______ ____
ROOT
ATOM      1  C   UNL     1       2.464   5.472  19.726  0.00  0.00    +0.000 C 
ATOM      2  S   UNL     1       1.164   4.602  20.297  0.00  0.00    +0.000 S 
ENDROOT
BRANCH   1   5
ATOM      3  C   UNL     1       4.730   5.043  18.780  0.00  0.00    +0.000 C 
ATOM      4  O   UNL     1       5.393   5.234  19.791  0.00  0.00    +0.000 OA
ATOM      5  N   UNL     1       3.346   5.102  18.712  0.00  0.00    +0.000 N 
ATOM      6  H   UNL     1       2.950   5.117  17.783  0.00  0.00    +0.000 HD
BRANCH   3  11
ATOM      7  C   UNL     1       5.519   4.441  15.097  0.00  0.00    +0.000 A 
ATOM      8  C   UNL     1       6.918   4.473  15.141  0.00  0.00    +0.000 A 
ATOM      9  C   UNL     1       7.584   4.711  16.342  0.00  0.00    +0.000 A 
ATOM     10  C   UNL     1       6.851   4.907  17.509  0.00  0.00    +0.000 A 
ATOM     11  C   UNL     1       5.449   4.873  17.480  0.00  0.00    +0.000 A 
ATOM     12  C   UNL     1       4.780   4.651  16.267  0.00  0.00    +0.000 A 
BRANCH   7  13
ATOM     13  O   UNL     1       5.010   4.174  13.855  0.00  0.00    +0.000 OA
BRANCH  13  15
ATOM     14  C   UNL     1       5.049   3.175  11.689  0.00  0.00    +0.000 C 
ATOM     15  C   UNL     1       5.869   3.535  12.915  0.00  0.00    +0.000 C 
ENDBRANCH  13  15
ENDBRANCH   7  13
ENDBRANCH   3  11
ENDBRANCH   1   5
BRANCH   1  16
ATOM     16  N   UNL     1       2.685   6.739  20.249  0.00  0.00    +0.000 N 
ATOM     17  H   UNL     1       3.658   7.049  20.191  0.00  0.00    +0.000 HD
BRANCH  16  18
ATOM     18  C   UNL     1       1.712   7.772  20.326  0.00  0.00    +0.000 A 
ATOM     19  C   UNL     1       0.856   7.813  21.442  0.00  0.00    +0.000 A 
ATOM     20  C   UNL     1      -0.044   8.858  21.626  0.00  0.00    +0.000 A 
ATOM     21  C   UNL     1      -0.117   9.868  20.676  0.00  0.00    +0.000 A 
ATOM     22 CL   UNL     1      -1.178  11.193  20.930  0.00  0.00    +0.000 Cl
ATOM     23  C   UNL     1       0.662   9.804  19.522  0.00  0.00    +0.000 A 
ATOM     24  C   UNL     1       1.566   8.743  19.320  0.00  0.00    +0.000 A 
BRANCH  24  25
ATOM     25  C   UNL     1       2.317   8.772  18.034  0.00  0.00    +0.000 C 
ATOM     26  O   UNL     1       3.188   7.959  17.775  0.00  0.00    +0.000 OA
BRANCH  25  27
ATOM     27  O   UNL     1       1.949   9.735  17.167  0.00  0.00    +0.000 OA
ATOM     28  H   UNL     1       1.249  10.337  17.485  0.00  0.00    +0.000 HD
ENDBRANCH  25  27
ENDBRANCH  24  25
ENDBRANCH  16  18
ENDBRANCH   1  16
TORSDOF 8
ENDMDL
MODEL 6
REMARK VINA RESULT:      -7.1      1.033      1.231
REMARK  Name = 
REMARK  9 active torsions:
REMARK  status: ('A' for Active; 'I' for Inactive)
REMARK    1  A    between atoms: C_1  and  C_2
REMARK    2  A    between atoms: C_2  and  O_3
REMARK    3  A    between atoms: O_3  and  C_4
REMARK    4  A    between atoms: C_8  and  C_9
REMARK    5  A    between atoms: N_11  and  C_12
REMARK    6  A    between atoms: C_12  and  N_14
REMARK    7  A    between atoms: N_14  and  C_15
REMARK    8  A    between atoms: C_21  and  C_22
REMARK    9  A    between atoms: C_22  and  O_24
REMARK                            x       y       z     vdW  Elec       q    Type
REMARK                         _______ _______ _______ _____ _____    ______ ____
ROOT
ATOM      1  C   UNL     1       4.045   3.669  18.882  0.00  0.00    +0.000 C 
ATOM      2  S   UNL     1       3.533   2.085  18.930  0.00  0.00    +0.000 S 
ENDROOT
BRANCH   1   5
ATOM      3  C   UNL     1       3.162   5.904  18.220  0.00  0.00    +0.000 C 
ATOM      4  O   UNL     1       3.685   5.991  17.117  0.00  0.00    +0.000 OA
ATOM      5  N   UNL     1       3.268   4.811  19.068  0.00  0.00    +0.000 N 
ATOM      6  H   UNL     1       2.952   4.957  20.016  0.00  0.00    +0.000 HD
BRANCH   3  11
ATOM      7  C   UNL     1       1.402   8.344  20.566  0.00  0.00    +0.000 A 
ATOM      8  C   UNL     1       1.095   9.368  19.662  0.00  0.00    +0.000 A 
ATOM      9  C   UNL     1       1.477   9.274  18.325  0.00  0.00    +0.000 A 
ATOM     10  C   UNL     1       2.160   8.144  17.883  0.00  0.00    +0.000 A 
ATOM     11  C   UNL     1       2.471   7.107  18.776  0.00  0.00    +0.000 A 
ATOM     12  C   UNL     1       2.100   7.213  20.125  0.00  0.00    +0.000 A 
BRANCH   7  13
ATOM     13  O   UNL     1       0.942   8.568  21.834  0.00  0.00    +0.000 OA
BRANCH  13  15
ATOM     14  C   UNL     1      -0.569   9.821  23.191  0.00  0.00    +0.000 C 
ATOM     15  C   UNL     1       0.550   9.897  22.168  0.00  0.00    +0.000 C 
ENDBRANCH  13  15
ENDBRANCH   7  13
ENDBRANCH   3  11
ENDBRANCH   1   5
BRANCH   1  16
ATOM     16  N   UNL     1       5.400   3.915  18.705  0.00  0.00    +0.000 N 
ATOM     17  H   UNL     1       5.998   3.475  19.408  0.00  0.00    +0.000 HD
BRANCH  16  18
ATOM     18  C   UNL     1       6.021   4.204  17.459  0.00  0.00    +0.000 A 
ATOM     19  C   UNL     1       5.615   3.487  16.319  0.00  0.00    +0.000 A 
ATOM     20  C   UNL     1       6.109   3.797  15.055  0.00  0.00    +0.000 A 
ATOM     21  C   UNL     1       7.040   4.818  14.921  0.00  0.00    +0.000 A 
ATOM     22 CL   UNL     1       7.603   5.248  13.357  0.00  0.00    +0.000 Cl
ATOM     23  C   UNL     1       7.518   5.485  16.047  0.00  0.00    +0.000 A 
ATOM     24  C   UNL     1       7.035   5.169  17.331  0.00  0.00    +0.000 A 
BRANCH  24  25
ATOM     25  C   UNL     1       7.647   5.931  18.455  0.00  0.00    +0.000 C 
ATOM     26  O   UNL     1       7.964   7.104  18.345  0.00  0.00    +0.000 OA
BRANCH  25  27
ATOM     27  O   UNL     1       7.797   5.249  19.607  0.00  0.00    +0.000 OA
ATOM     28  H   UNL     1       8.716   5.011  19.834  0.00  0.00    +0.000 HD
ENDBRANCH  25  27
ENDBRANCH  24  25
ENDBRANCH  16  18
ENDBRANCH   1  16
TORSDOF 8
ENDMDL
MODEL 7
REMARK VINA RESULT:      -7.1      2.297      2.932
REMARK  Name = 
REMARK  9 active torsions:
REMARK  status: ('A' for Active; 'I' for Inactive)
REMARK    1  A    between atoms: C_1  and  C_2
REMARK    2  A    between atoms: C_2  and  O_3
REMARK    3  A    between atoms: O_3  and  C_4
REMARK    4  A    between atoms: C_8  and  C_9
REMARK    5  A    between atoms: N_11  and  C_12
REMARK    6  A    between atoms: C_12  and  N_14
REMARK    7  A    between atoms: N_14  and  C_15
REMARK    8  A    between atoms: C_21  and  C_22
REMARK    9  A    between atoms: C_22  and  O_24
REMARK                            x       y       z     vdW  Elec       q    Type
REMARK                         _______ _______ _______ _____ _____    ______ ____
ROOT
ATOM      1  C   UNL     1       4.761   3.673  19.077  0.00  0.00    +0.000 C 
ATOM      2  S   UNL     1       4.527   2.099  19.572  0.00  0.00    +0.000 S 
ENDROOT
BRANCH   1   5
ATOM      3  C   UNL     1       2.921   5.294  18.629  0.00  0.00    +0.000 C 
ATOM      4  O   UNL     1       2.476   4.793  17.605  0.00  0.00    +0.000 OA
ATOM      5  N   UNL     1       3.968   4.778  19.379  0.00  0.00    +0.000 N 
ATOM      6  H   UNL     1       4.353   5.394  20.081  0.00  0.00    +0.000 HD
BRANCH   3  11
ATOM      7  C   UNL     1       1.468   8.180  20.657  0.00  0.00    +0.000 A 
ATOM      8  C   UNL     1       1.384   9.158  19.658  0.00  0.00    +0.000 A 
ATOM      9  C   UNL     1       1.816   8.887  18.361  0.00  0.00    +0.000 A 
ATOM     10  C   UNL     1       2.325   7.628  18.054  0.00  0.00    +0.000 A 
ATOM     11  C   UNL     1       2.410   6.636  19.043  0.00  0.00    +0.000 A 
ATOM     12  C   UNL     1       1.991   6.918  20.352  0.00  0.00    +0.000 A 
BRANCH   7  13
ATOM     13  O   UNL     1       0.984   8.585  21.870  0.00  0.00    +0.000 OA
BRANCH  13  15
ATOM     14  C   UNL     1      -0.595  10.024  22.933  0.00  0.00    +0.000 C 
ATOM     15  C   UNL     1       0.606   9.952  22.006  0.00  0.00    +0.000 C 
ENDBRANCH  13  15
ENDBRANCH   7  13
ENDBRANCH   3  11
ENDBRANCH   1   5
BRANCH   1  16
ATOM     16  N   UNL     1       5.897   3.963  18.334  0.00  0.00    +0.000 N 
ATOM     17  H   UNL     1       6.032   3.354  17.523  0.00  0.00    +0.000 HD
BRANCH  16  18
ATOM     18  C   UNL     1       6.516   5.240  18.255  0.00  0.00    +0.000 A 
ATOM     19  C   UNL     1       7.371   5.643  19.296  0.00  0.00    +0.000 A 
ATOM     20  C   UNL     1       8.088   6.833  19.226  0.00  0.00    +0.000 A 
ATOM     21  C   UNL     1       7.937   7.653  18.116  0.00  0.00    +0.000 A 
ATOM     22 CL   UNL     1       8.868   9.090  17.993  0.00  0.00    +0.000 Cl
ATOM     23  C   UNL     1       7.033   7.314  17.111  0.00  0.00    +0.000 A 
ATOM     24  C   UNL     1       6.292   6.119  17.180  0.00  0.00    +0.000 A 
BRANCH  24  25
ATOM     25  C   UNL     1       5.338   5.886  16.061  0.00  0.00    +0.000 C 
ATOM     26  O   UNL     1       4.920   6.799  15.367  0.00  0.00    +0.000 OA
BRANCH  25  27
ATOM     27  O   UNL     1       4.993   4.602  15.847  0.00  0.00    +0.000 OA
ATOM     28  H   UNL     1       5.533   4.130  15.185  0.00  0.00    +0.000 HD
ENDBRANCH  25  27
ENDBRANCH  24  25
ENDBRANCH  16  18
ENDBRANCH   1  16
TORSDOF 8
ENDMDL
MODEL 8
REMARK VINA RESULT:      -7.1      1.841      2.658
REMARK  Name = 
REMARK  9 active torsions:
REMARK  status: ('A' for Active; 'I' for Inactive)
REMARK    1  A    between atoms: C_1  and  C_2
REMARK    2  A    between atoms: C_2  and  O_3
REMARK    3  A    between atoms: O_3  and  C_4
REMARK    4  A    between atoms: C_8  and  C_9
REMARK    5  A    between atoms: N_11  and  C_12
REMARK    6  A    between atoms: C_12  and  N_14
REMARK    7  A    between atoms: N_14  and  C_15
REMARK    8  A    between atoms: C_21  and  C_22
REMARK    9  A    between atoms: C_22  and  O_24
REMARK                            x       y       z     vdW  Elec       q    Type
REMARK                         _______ _______ _______ _____ _____    ______ ____
ROOT
ATOM      1  C   UNL     1       3.442   5.003  19.839  0.00  0.00    +0.000 C 
ATOM      2  S   UNL     1       3.105   3.379  19.988  0.00  0.00    +0.000 S 
ENDROOT
BRANCH   1   5
ATOM      3  C   UNL     1       2.363   7.181  19.287  0.00  0.00    +0.000 C 
ATOM      4  O   UNL     1       2.848   7.353  18.177  0.00  0.00    +0.000 OA
ATOM      5  N   UNL     1       2.581   6.069  20.089  0.00  0.00    +0.000 N 
ATOM      6  H   UNL     1       2.278   6.152  21.048  0.00  0.00    +0.000 HD
BRANCH   3  11
ATOM      7  C   UNL     1       0.522  10.475  19.845  0.00  0.00    +0.000 A 
ATOM      8  C   UNL     1       0.241  10.365  21.212  0.00  0.00    +0.000 A 
ATOM      9  C   UNL     1       0.622   9.231  21.927  0.00  0.00    +0.000 A 
ATOM     10  C   UNL     1       1.298   8.203  21.276  0.00  0.00    +0.000 A 
ATOM     11  C   UNL     1       1.591   8.301  19.907  0.00  0.00    +0.000 A 
ATOM     12  C   UNL     1       1.191   9.437  19.187  0.00  0.00    +0.000 A 
BRANCH   7  13
ATOM     13  O   UNL     1       0.108  11.653  19.287  0.00  0.00    +0.000 OA
BRANCH  13  15
ATOM     14  C   UNL     1       1.483  13.583  19.574  0.00  0.00    +0.000 C 
ATOM     15  C   UNL     1       0.254  12.838  20.066  0.00  0.00    +0.000 C 
ENDBRANCH  13  15
ENDBRANCH   7  13
ENDBRANCH   3  11
ENDBRANCH   1   5
BRANCH   1  16
ATOM     16  N   UNL     1       4.735   5.374  19.494  0.00  0.00    +0.000 N 
ATOM     17  H   UNL     1       5.375   5.445  20.289  0.00  0.00    +0.000 HD
BRANCH  16  18
ATOM     18  C   UNL     1       5.344   5.133  18.232  0.00  0.00    +0.000 A 
ATOM     19  C   UNL     1       4.592   4.495  17.229  0.00  0.00    +0.000 A 
ATOM     20  C   UNL     1       5.096   4.327  15.943  0.00  0.00    +0.000 A 
ATOM     21  C   UNL     1       6.377   4.776  15.651  0.00  0.00    +0.000 A 
ATOM     22 CL   UNL     1       6.978   4.630  14.049  0.00  0.00    +0.000 Cl
ATOM     23  C   UNL     1       7.170   5.336  16.650  0.00  0.00    +0.000 A 
ATOM     24  C   UNL     1       6.674   5.497  17.958  0.00  0.00    +0.000 A 
BRANCH  24  25
ATOM     25  C   UNL     1       7.629   6.079  18.942  0.00  0.00    +0.000 C 
ATOM     26  O   UNL     1       8.294   7.070  18.690  0.00  0.00    +0.000 OA
BRANCH  25  27
ATOM     27  O   UNL     1       7.686   5.457  20.135  0.00  0.00    +0.000 OA
ATOM     28  H   UNL     1       7.244   4.587  20.174  0.00  0.00    +0.000 HD
ENDBRANCH  25  27
ENDBRANCH  24  25
ENDBRANCH  16  18
ENDBRANCH   1  16
TORSDOF 8
ENDMDL
MODEL 9
REMARK VINA RESULT:      -7.0      1.072      1.383
REMARK  Name = 
REMARK  9 active torsions:
REMARK  status: ('A' for Active; 'I' for Inactive)
REMARK    1  A    between atoms: C_1  and  C_2
REMARK    2  A    between atoms: C_2  and  O_3
REMARK    3  A    between atoms: O_3  and  C_4
REMARK    4  A    between atoms: C_8  and  C_9
REMARK    5  A    between atoms: N_11  and  C_12
REMARK    6  A    between atoms: C_12  and  N_14
REMARK    7  A    between atoms: N_14  and  C_15
REMARK    8  A    between atoms: C_21  and  C_22
REMARK    9  A    between atoms: C_22  and  O_24
REMARK                            x       y       z     vdW  Elec       q    Type
REMARK                         _______ _______ _______ _____ _____    ______ ____
ROOT
ATOM      1  C   UNL     1       3.125   4.510  18.398  0.00  0.00    +0.000 C 
ATOM      2  S   UNL     1       2.038   3.310  18.006  0.00  0.00    +0.000 S 
ENDROOT
BRANCH   1   5
ATOM      3  C   UNL     1       2.256   6.183  20.029  0.00  0.00    +0.000 C 
ATOM      4  O   UNL     1       1.983   5.423  20.947  0.00  0.00    +0.000 OA
ATOM      5  N   UNL     1       2.834   5.804  18.826  0.00  0.00    +0.000 N 
ATOM      6  H   UNL     1       2.821   6.498  18.092  0.00  0.00    +0.000 HD
BRANCH   3  11
ATOM      7  C   UNL     1       1.036   9.541  21.365  0.00  0.00    +0.000 A 
ATOM      8  C   UNL     1       0.898  10.244  20.162  0.00  0.00    +0.000 A 
ATOM      9  C   UNL     1       1.220   9.642  18.947  0.00  0.00    +0.000 A 
ATOM     10  C   UNL     1       1.672   8.325  18.931  0.00  0.00    +0.000 A 
ATOM     11  C   UNL     1       1.812   7.607  20.128  0.00  0.00    +0.000 A 
ATOM     12  C   UNL     1       1.503   8.222  21.351  0.00  0.00    +0.000 A 
BRANCH   7  13
ATOM     13  O   UNL     1       0.660  10.255  22.470  0.00  0.00    +0.000 OA
BRANCH  13  15
ATOM     14  C   UNL     1      -1.408  11.348  22.945  0.00  0.00    +0.000 C 
ATOM     15  C   UNL     1      -0.651  10.032  22.983  0.00  0.00    +0.000 C 
ENDBRANCH  13  15
ENDBRANCH   7  13
ENDBRANCH   3  11
ENDBRANCH   1   5
BRANCH   1  16
ATOM     16  N   UNL     1       4.478   4.202  18.370  0.00  0.00    +0.000 N 
ATOM     17  H   UNL     1       4.747   3.446  19.005  0.00  0.00    +0.000 HD
BRANCH  16  18
ATOM     18  C   UNL     1       5.340   4.409  17.258  0.00  0.00    +0.000 A 
ATOM     19  C   UNL     1       4.996   3.836  16.020  0.00  0.00    +0.000 A 
ATOM     20  C   UNL     1       5.740   4.090  14.872  0.00  0.00    +0.000 A 
ATOM     21  C   UNL     1       6.861   4.905  14.957  0.00  0.00    +0.000 A 
ATOM     22 CL   UNL     1       7.746   5.274  13.533  0.00  0.00    +0.000 Cl
ATOM     23  C   UNL     1       7.268   5.415  16.188  0.00  0.00    +0.000 A 
ATOM     24  C   UNL     1       6.529   5.152  17.357  0.00  0.00    +0.000 A 
BRANCH  24  25
ATOM     25  C   UNL     1       7.084   5.727  18.614  0.00  0.00    +0.000 C 
ATOM     26  O   UNL     1       7.805   6.712  18.611  0.00  0.00    +0.000 OA
BRANCH  25  27
ATOM     27  O   UNL     1       6.713   5.108  19.751  0.00  0.00    +0.000 OA
ATOM     28  H   UNL     1       5.764   4.890  19.816  0.00  0.00    +0.000 HD
ENDBRANCH  25  27
ENDBRANCH  24  25
ENDBRANCH  16  18
ENDBRANCH   1  16
TORSDOF 8
ENDMDL
