MODEL 1
REMARK VINA RESULT:      -7.9      0.000      0.000
REMARK  Name = 
REMARK  7 active torsions:
REMARK  status: ('A' for Active; 'I' for Inactive)
REMARK    1  A    between atoms: C_1  and  C_2
REMARK    2  A    between atoms: C_4  and  C_5
REMARK    3  A    between atoms: C_10  and  C_11
REMARK    4  A    between atoms: C_11  and  N_12
REMARK    5  A    between atoms: C_16  and  O_17
REMARK    6  A    between atoms: C_16  and  C_18
REMARK    7  A    between atoms: C_18  and  O_19
REMARK                            x       y       z     vdW  Elec       q    Type
REMARK                         _______ _______ _______ _____ _____    ______ ____
ROOT
ATOM      1  C   UNL     1       5.041   2.741  11.076  0.00  0.00    +0.000 C 
ATOM      2  C   UNL     1       5.684   3.415  12.256  0.00  0.00    +0.000 A 
ATOM      3  C   UNL     1       6.758   4.285  12.057  0.00  0.00    +0.000 A 
ATOM      4  C   UNL     1       7.396   4.904  13.135  0.00  0.00    +0.000 A 
ATOM      5  C   UNL     1       8.467   5.930  12.887  0.00  0.00    +0.000 C 
ATOM      6  C   UNL     1       6.929   4.633  14.429  0.00  0.00    +0.000 A 
ATOM      7  N   UNL     1       7.596   5.177  15.527  0.00  0.00    +0.000 N 
ATOM      8  C   UNL     1       7.133   5.129  16.802  0.00  0.00    +0.000 A 
ATOM      9  O   UNL     1       7.799   5.618  17.711  0.00  0.00    +0.000 OA
ATOM     10  C   UNL     1       5.783   4.512  17.034  0.00  0.00    +0.000 A 
ATOM     11  C   UNL     1       5.204   3.825  16.025  0.00  0.00    +0.000 A 
ATOM     12  C   UNL     1       5.788   3.847  14.661  0.00  0.00    +0.000 A 
ATOM     13  C   UNL     1       5.186   3.207  13.566  0.00  0.00    +0.000 A 
ATOM     14  H   UNL     1       8.489   5.633  15.414  0.00  0.00    +0.000 HD
ENDROOT
BRANCH  10  15
ATOM     15  C   UNL     1       5.283   4.862  18.425  0.00  0.00    +0.000 C 
BRANCH  15  16
ATOM     16  N   UNL     1       4.111   5.740  18.629  0.00  0.00    +0.000 NA
ATOM     17  C   UNL     1       3.082   5.560  17.598  0.00  0.00    +0.000 C 
ATOM     18  C   UNL     1       2.280   4.251  17.664  0.00  0.00    +0.000 C 
ATOM     19  C   UNL     1       1.795   3.859  19.062  0.00  0.00    +0.000 C 
ATOM     20  C   UNL     1       2.830   4.095  20.171  0.00  0.00    +0.000 C 
ATOM     21  C   UNL     1       3.498   5.490  19.975  0.00  0.00    +0.000 C 
BRANCH  20  22
ATOM     22  O   UNL     1       3.850   3.080  20.138  0.00  0.00    +0.000 OA
ATOM     23  H   UNL     1       3.666   2.423  20.830  0.00  0.00    +0.000 HD
ENDBRANCH  20  22
BRANCH  20  24
ATOM     24  C   UNL     1       2.139   3.946  21.546  0.00  0.00    +0.000 C 
BRANCH  24  25
ATOM     25  O   UNL     1       2.103   2.587  21.972  0.00  0.00    +0.000 OA
ATOM     26  H   UNL     1       1.163   2.324  21.966  0.00  0.00    +0.000 HD
ENDBRANCH  24  25
ENDBRANCH  20  24
ENDBRANCH  15  16
ENDBRANCH  10  15
TORSDOF 5
ENDMDL
MODEL 2
REMARK VINA RESULT:      -7.8      4.448      8.035
REMARK  Name = 
REMARK  7 active torsions:
REMARK  status: ('A' for Active; 'I' for Inactive)
REMARK    1  A    between atoms: C_1  and  C_2
REMARK    2  A    between atoms: C_4  and  C_5
REMARK    3  A    between atoms: C_10  and  C_11
REMARK    4  A    between atoms: C_11  and  N_12
REMARK    5  A    between atoms: C_16  and  O_17
REMARK    6  A    between atoms: C_16  and  C_18
REMARK    7  A    between atoms: C_18  and  O_19
REMARK                            x       y       z     vdW  Elec       q    Type
REMARK                         _______ _______ _______ _____ _____    ______ ____
ROOT
ATOM      1  C   UNL     1      -1.344  11.127  23.220  0.00  0.00    +0.000 C 
ATOM      2  C   UNL     1      -0.559  10.769  21.990  0.00  0.00    +0.000 A 
ATOM      3  C   UNL     1      -0.301  11.744  21.023  0.00  0.00    +0.000 A 
ATOM      4  C   UNL     1       0.399  11.435  19.855  0.00  0.00    +0.000 A 
ATOM      5  C   UNL     1       0.771  12.528  18.890  0.00  0.00    +0.000 C 
ATOM      6  C   UNL     1       0.844  10.118  19.673  0.00  0.00    +0.000 A 
ATOM      7  N   UNL     1       1.478   9.766  18.482  0.00  0.00    +0.000 N 
ATOM      8  C   UNL     1       2.102   8.579  18.270  0.00  0.00    +0.000 A 
ATOM      9  O   UNL     1       2.617   8.347  17.180  0.00  0.00    +0.000 OA
ATOM     10  C   UNL     1       2.173   7.612  19.419  0.00  0.00    +0.000 A 
ATOM     11  C   UNL     1       1.420   7.851  20.514  0.00  0.00    +0.000 A 
ATOM     12  C   UNL     1       0.695   9.137  20.668  0.00  0.00    +0.000 A 
ATOM     13  C   UNL     1      -0.044   9.460  21.817  0.00  0.00    +0.000 A 
ATOM     14  H   UNL     1       1.487  10.398  17.696  0.00  0.00    +0.000 HD
ENDROOT
BRANCH  10  15
ATOM     15  C   UNL     1       3.192   6.525  19.120  0.00  0.00    +0.000 C 
BRANCH  15  16
ATOM     16  N   UNL     1       2.855   5.360  18.274  0.00  0.00    +0.000 NA
ATOM     17  C   UNL     1       4.032   4.556  17.922  0.00  0.00    +0.000 C 
ATOM     18  C   UNL     1       4.647   3.723  19.057  0.00  0.00    +0.000 C 
ATOM     19  C   UNL     1       3.638   2.955  19.914  0.00  0.00    +0.000 C 
ATOM     20  C   UNL     1       2.368   3.749  20.247  0.00  0.00    +0.000 C 
ATOM     21  C   UNL     1       1.858   4.480  18.968  0.00  0.00    +0.000 C 
BRANCH  20  22
ATOM     22  O   UNL     1       2.634   4.727  21.269  0.00  0.00    +0.000 OA
ATOM     23  H   UNL     1       3.434   4.468  21.756  0.00  0.00    +0.000 HD
ENDBRANCH  20  22
BRANCH  20  24
ATOM     24  C   UNL     1       1.316   2.790  20.852  0.00  0.00    +0.000 C 
BRANCH  24  25
ATOM     25  O   UNL     1       1.544   2.569  22.241  0.00  0.00    +0.000 OA
ATOM     26  H   UNL     1       1.231   1.663  22.428  0.00  0.00    +0.000 HD
ENDBRANCH  24  25
ENDBRANCH  20  24
ENDBRANCH  15  16
ENDBRANCH  10  15
TORSDOF 5
ENDMDL
MODEL 3
REMARK VINA RESULT:      -7.8      1.484      1.798
REMARK  Name = 
REMARK  7 active torsions:
REMARK  status: ('A' for Active; 'I' for Inactive)
REMARK    1  A    between atoms: C_1  and  C_2
REMARK    2  A    between atoms: C_4  and  C_5
REMARK    3  A    between atoms: C_10  and  C_11
REMARK    4  A    between atoms: C_11  and  N_12
REMARK    5  A    between atoms: C_16  and  O_17
REMARK    6  A    between atoms: C_16  and  C_18
REMARK    7  A    between atoms: C_18  and  O_19
REMARK                            x       y       z     vdW  Elec       q    Type
REMARK                         _______ _______ _______ _____ _____    ______ ____
ROOT
ATOM      1  C   UNL     1       6.109   1.906  11.065  0.00  0.00    +0.000 C 
ATOM      2  C   UNL     1       6.352   2.929  12.138  0.00  0.00    +0.000 A 
ATOM      3  C   UNL     1       7.295   3.939  11.934  0.00  0.00    +0.000 A 
ATOM      4  C   UNL     1       7.564   4.887  12.923  0.00  0.00    +0.000 A 
ATOM      5  C   UNL     1       8.492   6.036  12.633  0.00  0.00    +0.000 C 
ATOM      6  C   UNL     1       6.862   4.804  14.134  0.00  0.00    +0.000 A 
ATOM      7  N   UNL     1       7.167   5.691  15.167  0.00  0.00    +0.000 N 
ATOM      8  C   UNL     1       6.438   5.818  16.305  0.00  0.00    +0.000 A 
ATOM      9  O   UNL     1       6.794   6.612  17.171  0.00  0.00    +0.000 OA
ATOM     10  C   UNL     1       5.183   5.000  16.427  0.00  0.00    +0.000 A 
ATOM     11  C   UNL     1       4.964   4.014  15.531  0.00  0.00    +0.000 A 
ATOM     12  C   UNL     1       5.834   3.868  14.337  0.00  0.00    +0.000 A 
ATOM     13  C   UNL     1       5.606   2.903  13.343  0.00  0.00    +0.000 A 
ATOM     14  H   UNL     1       7.980   6.285  15.112  0.00  0.00    +0.000 HD
ENDROOT
BRANCH  10  15
ATOM     15  C   UNL     1       4.330   5.525  17.569  0.00  0.00    +0.000 C 
BRANCH  15  16
ATOM     16  N   UNL     1       4.364   4.903  18.910  0.00  0.00    +0.000 NA
ATOM     17  C   UNL     1       3.690   5.715  19.930  0.00  0.00    +0.000 C 
ATOM     18  C   UNL     1       2.157   5.770  19.847  0.00  0.00    +0.000 C 
ATOM     19  C   UNL     1       1.473   4.420  19.617  0.00  0.00    +0.000 C 
ATOM     20  C   UNL     1       2.190   3.522  18.601  0.00  0.00    +0.000 C 
ATOM     21  C   UNL     1       3.725   3.545  18.873  0.00  0.00    +0.000 C 
BRANCH  20  22
ATOM     22  O   UNL     1       1.947   3.980  17.258  0.00  0.00    +0.000 OA
ATOM     23  H   UNL     1       0.988   4.051  17.116  0.00  0.00    +0.000 HD
ENDBRANCH  20  22
BRANCH  20  24
ATOM     24  C   UNL     1       1.588   2.099  18.671  0.00  0.00    +0.000 C 
BRANCH  24  25
ATOM     25  O   UNL     1       0.171   2.121  18.530  0.00  0.00    +0.000 OA
ATOM     26  H   UNL     1      -0.087   3.063  18.509  0.00  0.00    +0.000 HD
ENDBRANCH  24  25
ENDBRANCH  20  24
ENDBRANCH  15  16
ENDBRANCH  10  15
TORSDOF 5
ENDMDL
MODEL 4
REMARK VINA RESULT:      -7.6      5.439      7.877
REMARK  Name = 
REMARK  7 active torsions:
REMARK  status: ('A' for Active; 'I' for Inactive)
REMARK    1  A    between atoms: C_1  and  C_2
REMARK    2  A    between atoms: C_4  and  C_5
REMARK    3  A    between atoms: C_10  and  C_11
REMARK    4  A    between atoms: C_11  and  N_12
REMARK    5  A    between atoms: C_16  and  O_17
REMARK    6  A    between atoms: C_16  and  C_18
REMARK    7  A    between atoms: C_18  and  O_19
REMARK                            x       y       z     vdW  Elec       q    Type
REMARK                         _______ _______ _______ _____ _____    ______ ____
ROOT
ATOM      1  C   UNL     1       1.808   2.539  21.881  0.00  0.00    +0.000 C 
ATOM      2  C   UNL     1       2.054   3.575  20.820  0.00  0.00    +0.000 A 
ATOM      3  C   UNL     1       2.453   3.178  19.542  0.00  0.00    +0.000 A 
ATOM      4  C   UNL     1       2.719   4.117  18.544  0.00  0.00    +0.000 A 
ATOM      5  C   UNL     1       3.026   3.661  17.143  0.00  0.00    +0.000 C 
ATOM      6  C   UNL     1       2.572   5.477  18.853  0.00  0.00    +0.000 A 
ATOM      7  N   UNL     1       2.904   6.438  17.898  0.00  0.00    +0.000 N 
ATOM      8  C   UNL     1       2.637   7.763  18.022  0.00  0.00    +0.000 A 
ATOM      9  O   UNL     1       2.986   8.541  17.138  0.00  0.00    +0.000 OA
ATOM     10  C   UNL     1       1.871   8.211  19.235  0.00  0.00    +0.000 A 
ATOM     11  C   UNL     1       1.697   7.337  20.250  0.00  0.00    +0.000 A 
ATOM     12  C   UNL     1       2.073   5.910  20.093  0.00  0.00    +0.000 A 
ATOM     13  C   UNL     1       1.848   4.950  21.092  0.00  0.00    +0.000 A 
ATOM     14  H   UNL     1       3.387   6.178  17.051  0.00  0.00    +0.000 HD
ENDROOT
BRANCH  10  15
ATOM     15  C   UNL     1       1.362   9.628  19.033  0.00  0.00    +0.000 C 
BRANCH  15  16
ATOM     16  N   UNL     1       0.662  10.360  20.110  0.00  0.00    +0.000 NA
ATOM     17  C   UNL     1       1.167  11.727  20.289  0.00  0.00    +0.000 C 
ATOM     18  C   UNL     1       0.803  12.733  19.185  0.00  0.00    +0.000 C 
ATOM     19  C   UNL     1      -0.658  12.696  18.734  0.00  0.00    +0.000 C 
ATOM     20  C   UNL     1      -1.234  11.279  18.598  0.00  0.00    +0.000 C 
ATOM     21  C   UNL     1      -0.811  10.422  19.829  0.00  0.00    +0.000 C 
BRANCH  20  22
ATOM     22  O   UNL     1      -0.749  10.647  17.399  0.00  0.00    +0.000 OA
ATOM     23  H   UNL     1      -1.450  10.083  17.032  0.00  0.00    +0.000 HD
ENDBRANCH  20  22
BRANCH  20  24
ATOM     24  C   UNL     1      -2.769  11.373  18.428  0.00  0.00    +0.000 C 
BRANCH  24  25
ATOM     25  O   UNL     1      -3.125  11.886  17.148  0.00  0.00    +0.000 OA
ATOM     26  H   UNL     1      -3.767  11.255  16.771  0.00  0.00    +0.000 HD
ENDBRANCH  24  25
ENDBRANCH  20  24
ENDBRANCH  15  16
ENDBRANCH  10  15
TORSDOF 5
ENDMDL
MODEL 5
REMARK VINA RESULT:      -7.5      3.972      7.617
REMARK  Name = 
REMARK  7 active torsions:
REMARK  status: ('A' for Active; 'I' for Inactive)
REMARK    1  A    between atoms: C_1  and  C_2
REMARK    2  A    between atoms: C_4  and  C_5
REMARK    3  A    between atoms: C_10  and  C_11
REMARK    4  A    between atoms: C_11  and  N_12
REMARK    5  A    between atoms: C_16  and  O_17
REMARK    6  A    between atoms: C_16  and  C_18
REMARK    7  A    between atoms: C_18  and  O_19
REMARK                            x       y       z     vdW  Elec       q    Type
REMARK                         _______ _______ _______ _____ _____    ______ ____
ROOT
ATOM      1  C   UNL     1       1.006  13.095  18.599  0.00  0.00    +0.000 C 
ATOM      2  C   UNL     1       1.099  11.707  19.168  0.00  0.00    +0.000 A 
ATOM      3  C   UNL     1       0.594  11.445  20.444  0.00  0.00    +0.000 A 
ATOM      4  C   UNL     1       0.692  10.173  21.012  0.00  0.00    +0.000 A 
ATOM      5  C   UNL     1       0.031   9.886  22.333  0.00  0.00    +0.000 C 
ATOM      6  C   UNL     1       1.309   9.157  20.269  0.00  0.00    +0.000 A 
ATOM      7  N   UNL     1       1.488   7.899  20.843  0.00  0.00    +0.000 N 
ATOM      8  C   UNL     1       1.907   6.801  20.163  0.00  0.00    +0.000 A 
ATOM      9  O   UNL     1       2.057   5.737  20.757  0.00  0.00    +0.000 OA
ATOM     10  C   UNL     1       2.125   6.937  18.682  0.00  0.00    +0.000 A 
ATOM     11  C   UNL     1       2.131   8.173  18.140  0.00  0.00    +0.000 A 
ATOM     12  C   UNL     1       1.735   9.356  18.945  0.00  0.00    +0.000 A 
ATOM     13  C   UNL     1       1.660  10.650  18.408  0.00  0.00    +0.000 A 
ATOM     14  H   UNL     1       1.320   7.752  21.827  0.00  0.00    +0.000 HD
ENDROOT
BRANCH  10  15
ATOM     15  C   UNL     1       2.236   5.562  18.046  0.00  0.00    +0.000 C 
BRANCH  15  16
ATOM     16  N   UNL     1       3.469   5.124  17.357  0.00  0.00    +0.000 NA
ATOM     17  C   UNL     1       4.689   5.542  18.058  0.00  0.00    +0.000 C 
ATOM     18  C   UNL     1       5.001   4.805  19.370  0.00  0.00    +0.000 C 
ATOM     19  C   UNL     1       4.842   3.284  19.311  0.00  0.00    +0.000 C 
ATOM     20  C   UNL     1       3.607   2.816  18.530  0.00  0.00    +0.000 C 
ATOM     21  C   UNL     1       3.484   3.632  17.208  0.00  0.00    +0.000 C 
BRANCH  20  22
ATOM     22  O   UNL     1       2.412   3.004  19.309  0.00  0.00    +0.000 OA
ATOM     23  H   UNL     1       1.928   3.776  18.968  0.00  0.00    +0.000 HD
ENDBRANCH  20  22
BRANCH  20  24
ATOM     24  C   UNL     1       3.711   1.291  18.289  0.00  0.00    +0.000 C 
BRANCH  24  25
ATOM     25  O   UNL     1       4.659   0.685  19.163  0.00  0.00    +0.000 OA
ATOM     26  H   UNL     1       4.389  -0.249  19.252  0.00  0.00    +0.000 HD
ENDBRANCH  24  25
ENDBRANCH  20  24
ENDBRANCH  15  16
ENDBRANCH  10  15
TORSDOF 5
ENDMDL
MODEL 6
REMARK VINA RESULT:      -7.4      3.682      7.897
REMARK  Name = 
REMARK  7 active torsions:
REMARK  status: ('A' for Active; 'I' for Inactive)
REMARK    1  A    between atoms: C_1  and  C_2
REMARK    2  A    between atoms: C_4  and  C_5
REMARK    3  A    between atoms: C_10  and  C_11
REMARK    4  A    between atoms: C_11  and  N_12
REMARK    5  A    between atoms: C_16  and  O_17
REMARK    6  A    between atoms: C_16  and  C_18
REMARK    7  A    between atoms: C_18  and  O_19
REMARK                            x       y       z     vdW  Elec       q    Type
REMARK                         _______ _______ _______ _____ _____    ______ ____
ROOT
ATOM      1  C   UNL     1       0.198  12.571  18.864  0.00  0.00    +0.000 C 
ATOM      2  C   UNL     1       0.537  11.184  19.331  0.00  0.00    +0.000 A 
ATOM      3  C   UNL     1      -0.013  10.699  20.520  0.00  0.00    +0.000 A 
ATOM      4  C   UNL     1       0.305   9.425  20.996  0.00  0.00    +0.000 A 
ATOM      5  C   UNL     1      -0.395   8.880  22.211  0.00  0.00    +0.000 C 
ATOM      6  C   UNL     1       1.191   8.637  20.249  0.00  0.00    +0.000 A 
ATOM      7  N   UNL     1       1.585   7.393  20.741  0.00  0.00    +0.000 N 
ATOM      8  C   UNL     1       2.291   6.478  20.029  0.00  0.00    +0.000 A 
ATOM      9  O   UNL     1       2.612   5.414  20.551  0.00  0.00    +0.000 OA
ATOM     10  C   UNL     1       2.606   6.800  18.595  0.00  0.00    +0.000 A 
ATOM     11  C   UNL     1       2.395   8.058  18.153  0.00  0.00    +0.000 A 
ATOM     12  C   UNL     1       1.682   9.048  18.999  0.00  0.00    +0.000 A 
ATOM     13  C   UNL     1       1.379  10.346  18.558  0.00  0.00    +0.000 A 
ATOM     14  H   UNL     1       1.364   7.118  21.686  0.00  0.00    +0.000 HD
ENDROOT
BRANCH  10  15
ATOM     15  C   UNL     1       3.069   5.547  17.871  0.00  0.00    +0.000 C 
BRANCH  15  16
ATOM     16  N   UNL     1       4.191   4.730  18.377  0.00  0.00    +0.000 NA
ATOM     17  C   UNL     1       4.430   3.529  17.567  0.00  0.00    +0.000 C 
ATOM     18  C   UNL     1       5.050   3.761  16.181  0.00  0.00    +0.000 C 
ATOM     19  C   UNL     1       6.227   4.738  16.154  0.00  0.00    +0.000 C 
ATOM     20  C   UNL     1       6.032   5.975  17.042  0.00  0.00    +0.000 C 
ATOM     21  C   UNL     1       5.452   5.542  18.422  0.00  0.00    +0.000 C 
BRANCH  20  22
ATOM     22  O   UNL     1       5.124   6.905  16.423  0.00  0.00    +0.000 OA
ATOM     23  H   UNL     1       4.739   6.494  15.631  0.00  0.00    +0.000 HD
ENDBRANCH  20  22
BRANCH  20  24
ATOM     24  C   UNL     1       7.379   6.726  17.163  0.00  0.00    +0.000 C 
BRANCH  24  25
ATOM     25  O   UNL     1       7.836   6.769  18.512  0.00  0.00    +0.000 OA
ATOM     26  H   UNL     1       7.660   5.885  18.888  0.00  0.00    +0.000 HD
ENDBRANCH  24  25
ENDBRANCH  20  24
ENDBRANCH  15  16
ENDBRANCH  10  15
TORSDOF 5
ENDMDL
MODEL 7
REMARK VINA RESULT:      -7.4      3.899      8.006
REMARK  Name = 
REMARK  7 active torsions:
REMARK  status: ('A' for Active; 'I' for Inactive)
REMARK    1  A    between atoms: C_1  and  C_2
REMARK    2  A    between atoms: C_4  and  C_5
REMARK    3  A    between atoms: C_10  and  C_11
REMARK    4  A    between atoms: C_11  and  N_12
REMARK    5  A    between atoms: C_16  and  O_17
REMARK    6  A    between atoms: C_16  and  C_18
REMARK    7  A    between atoms: C_18  and  O_19
REMARK                            x       y       z     vdW  Elec       q    Type
REMARK                         _______ _______ _______ _____ _____    ______ ____
ROOT
ATOM      1  C   UNL     1      -0.390   9.608  23.559  0.00  0.00    +0.000 C 
ATOM      2  C   UNL     1       0.216   9.568  22.184  0.00  0.00    +0.000 A 
ATOM      3  C   UNL     1       0.238  10.725  21.401  0.00  0.00    +0.000 A 
ATOM      4  C   UNL     1       0.766  10.713  20.109  0.00  0.00    +0.000 A 
ATOM      5  C   UNL     1       0.891  11.997  19.335  0.00  0.00    +0.000 C 
ATOM      6  C   UNL     1       1.282   9.508  19.612  0.00  0.00    +0.000 A 
ATOM      7  N   UNL     1       1.746   9.450  18.298  0.00  0.00    +0.000 N 
ATOM      8  C   UNL     1       2.423   8.398  17.772  0.00  0.00    +0.000 A 
ATOM      9  O   UNL     1       2.776   8.426  16.596  0.00  0.00    +0.000 OA
ATOM     10  C   UNL     1       2.754   7.251  18.686  0.00  0.00    +0.000 A 
ATOM     11  C   UNL     1       2.167   7.203  19.901  0.00  0.00    +0.000 A 
ATOM     12  C   UNL     1       1.373   8.352  20.405  0.00  0.00    +0.000 A 
ATOM     13  C   UNL     1       0.802   8.377  21.687  0.00  0.00    +0.000 A 
ATOM     14  H   UNL     1       1.579  10.212  17.658  0.00  0.00    +0.000 HD
ENDROOT
BRANCH  10  15
ATOM     15  C   UNL     1       3.797   6.356  18.040  0.00  0.00    +0.000 C 
BRANCH  15  16
ATOM     16  N   UNL     1       4.244   5.100  18.680  0.00  0.00    +0.000 NA
ATOM     17  C   UNL     1       4.357   3.988  17.729  0.00  0.00    +0.000 C 
ATOM     18  C   UNL     1       5.531   4.058  16.741  0.00  0.00    +0.000 C 
ATOM     19  C   UNL     1       6.875   4.447  17.361  0.00  0.00    +0.000 C 
ATOM     20  C   UNL     1       6.780   5.567  18.406  0.00  0.00    +0.000 C 
ATOM     21  C   UNL     1       5.570   5.299  19.352  0.00  0.00    +0.000 C 
BRANCH  20  22
ATOM     22  O   UNL     1       6.599   6.844  17.766  0.00  0.00    +0.000 OA
ATOM     23  H   UNL     1       6.486   6.707  16.811  0.00  0.00    +0.000 HD
ENDBRANCH  20  22
BRANCH  20  24
ATOM     24  C   UNL     1       8.125   5.667  19.163  0.00  0.00    +0.000 C 
BRANCH  24  25
ATOM     25  O   UNL     1       7.958   5.457  20.562  0.00  0.00    +0.000 OA
ATOM     26  H   UNL     1       6.995   5.413  20.717  0.00  0.00    +0.000 HD
ENDBRANCH  24  25
ENDBRANCH  20  24
ENDBRANCH  15  16
ENDBRANCH  10  15
TORSDOF 5
ENDMDL
MODEL 8
REMARK VINA RESULT:      -7.3      4.557      8.318
REMARK  Name = 
REMARK  7 active torsions:
REMARK  status: ('A' for Active; 'I' for Inactive)
REMARK    1  A    between atoms: C_1  and  C_2
REMARK    2  A    between atoms: C_4  and  C_5
REMARK    3  A    between atoms: C_10  and  C_11
REMARK    4  A    between atoms: C_11  and  N_12
REMARK    5  A    between atoms: C_16  and  O_17
REMARK    6  A    between atoms: C_16  and  C_18
REMARK    7  A    between atoms: C_18  and  O_19
REMARK                            x       y       z     vdW  Elec       q    Type
REMARK                         _______ _______ _______ _____ _____    ______ ____
ROOT
ATOM      1  C   UNL     1      -1.504  11.296  23.103  0.00  0.00    +0.000 C 
ATOM      2  C   UNL     1      -0.725  10.870  21.891  0.00  0.00    +0.000 A 
ATOM      3  C   UNL     1      -0.581  11.749  20.814  0.00  0.00    +0.000 A 
ATOM      4  C   UNL     1       0.110  11.373  19.662  0.00  0.00    +0.000 A 
ATOM      5  C   UNL     1       0.357  12.378  18.570  0.00  0.00    +0.000 C 
ATOM      6  C   UNL     1       0.664  10.086  19.608  0.00  0.00    +0.000 A 
ATOM      7  N   UNL     1       1.294   9.657  18.439  0.00  0.00    +0.000 N 
ATOM      8  C   UNL     1       2.014   8.512  18.335  0.00  0.00    +0.000 A 
ATOM      9  O   UNL     1       2.517   8.203  17.258  0.00  0.00    +0.000 OA
ATOM     10  C   UNL     1       2.202   7.688  19.578  0.00  0.00    +0.000 A 
ATOM     11  C   UNL     1       1.462   7.984  20.668  0.00  0.00    +0.000 A 
ATOM     12  C   UNL     1       0.630   9.213  20.708  0.00  0.00    +0.000 A 
ATOM     13  C   UNL     1      -0.102   9.598  21.842  0.00  0.00    +0.000 A 
ATOM     14  H   UNL     1       1.225  10.196  17.589  0.00  0.00    +0.000 HD
ENDROOT
BRANCH  10  15
ATOM     15  C   UNL     1       3.304   6.665  19.361  0.00  0.00    +0.000 C 
BRANCH  15  16
ATOM     16  N   UNL     1       3.119   5.241  19.712  0.00  0.00    +0.000 NA
ATOM     17  C   UNL     1       1.788   4.737  19.353  0.00  0.00    +0.000 C 
ATOM     18  C   UNL     1       1.520   4.540  17.852  0.00  0.00    +0.000 C 
ATOM     19  C   UNL     1       2.645   3.846  17.081  0.00  0.00    +0.000 C 
ATOM     20  C   UNL     1       4.053   4.309  17.480  0.00  0.00    +0.000 C 
ATOM     21  C   UNL     1       4.155   4.395  19.032  0.00  0.00    +0.000 C 
BRANCH  20  22
ATOM     22  O   UNL     1       4.340   5.603  16.919  0.00  0.00    +0.000 OA
ATOM     23  H   UNL     1       5.183   5.561  16.437  0.00  0.00    +0.000 HD
ENDBRANCH  20  22
BRANCH  20  24
ATOM     24  C   UNL     1       5.094   3.347  16.861  0.00  0.00    +0.000 C 
BRANCH  24  25
ATOM     25  O   UNL     1       6.390   3.937  16.809  0.00  0.00    +0.000 OA
ATOM     26  H   UNL     1       6.454   4.523  17.588  0.00  0.00    +0.000 HD
ENDBRANCH  24  25
ENDBRANCH  20  24
ENDBRANCH  15  16
ENDBRANCH  10  15
TORSDOF 5
ENDMDL
MODEL 9
REMARK VINA RESULT:      -7.3      3.929      8.050
REMARK  Name = 
REMARK  7 active torsions:
REMARK  status: ('A' for Active; 'I' for Inactive)
REMARK    1  A    between atoms: C_1  and  C_2
REMARK    2  A    between atoms: C_4  and  C_5
REMARK    3  A    between atoms: C_10  and  C_11
REMARK    4  A    between atoms: C_11  and  N_12
REMARK    5  A    between atoms: C_16  and  O_17
REMARK    6  A    between atoms: C_16  and  C_18
REMARK    7  A    between atoms: C_18  and  O_19
REMARK                            x       y       z     vdW  Elec       q    Type
REMARK                         _______ _______ _______ _____ _____    ______ ____
ROOT
ATOM      1  C   UNL     1      -0.748  12.439  19.041  0.00  0.00    +0.000 C 
ATOM      2  C   UNL     1      -0.067  11.133  19.339  0.00  0.00    +0.000 A 
ATOM      3  C   UNL     1      -0.461  10.382  20.449  0.00  0.00    +0.000 A 
ATOM      4  C   UNL     1       0.173   9.180  20.770  0.00  0.00    +0.000 A 
ATOM      5  C   UNL     1      -0.351   8.331  21.896  0.00  0.00    +0.000 C 
ATOM      6  C   UNL     1       1.217   8.737  19.946  0.00  0.00    +0.000 A 
ATOM      7  N   UNL     1       1.917   7.580  20.287  0.00  0.00    +0.000 N 
ATOM      8  C   UNL     1       2.819   6.966  19.480  0.00  0.00    +0.000 A 
ATOM      9  O   UNL     1       3.404   5.960  19.872  0.00  0.00    +0.000 OA
ATOM     10  C   UNL     1       3.023   7.532  18.102  0.00  0.00    +0.000 A 
ATOM     11  C   UNL     1       2.498   8.742  17.816  0.00  0.00    +0.000 A 
ATOM     12  C   UNL     1       1.572   9.410  18.765  0.00  0.00    +0.000 A 
ATOM     13  C   UNL     1       0.947  10.635  18.483  0.00  0.00    +0.000 A 
ATOM     14  H   UNL     1       1.785   7.144  21.188  0.00  0.00    +0.000 HD
ENDROOT
BRANCH  10  15
ATOM     15  C   UNL     1       3.774   6.534  17.237  0.00  0.00    +0.000 C 
BRANCH  15  16
ATOM     16  N   UNL     1       5.004   6.912  16.509  0.00  0.00    +0.000 NA
ATOM     17  C   UNL     1       6.164   7.066  17.396  0.00  0.00    +0.000 C 
ATOM     18  C   UNL     1       6.747   5.769  17.979  0.00  0.00    +0.000 C 
ATOM     19  C   UNL     1       6.917   4.628  16.974  0.00  0.00    +0.000 C 
ATOM     20  C   UNL     1       5.746   4.481  15.992  0.00  0.00    +0.000 C 
ATOM     21  C   UNL     1       5.329   5.886  15.463  0.00  0.00    +0.000 C 
BRANCH  20  22
ATOM     22  O   UNL     1       4.615   3.870  16.638  0.00  0.00    +0.000 OA
ATOM     23  H   UNL     1       4.340   3.090  16.127  0.00  0.00    +0.000 HD
ENDBRANCH  20  22
BRANCH  20  24
ATOM     24  C   UNL     1       6.156   3.509  14.860  0.00  0.00    +0.000 C 
BRANCH  24  25
ATOM     25  O   UNL     1       6.626   4.208  13.712  0.00  0.00    +0.000 OA
ATOM     26  H   UNL     1       7.584   4.027  13.656  0.00  0.00    +0.000 HD
ENDBRANCH  24  25
ENDBRANCH  20  24
ENDBRANCH  15  16
ENDBRANCH  10  15
TORSDOF 5
ENDMDL
