MODEL 1
REMARK VINA RESULT:      -7.3      0.000      0.000
REMARK  Name = 
REMARK  9 active torsions:
REMARK  status: ('A' for Active; 'I' for Inactive)
REMARK    1  A    between atoms: C_2  and  C_5
REMARK    2  A    between atoms: N_3  and  O_4
REMARK    3  A    between atoms: C_8  and  C_9
REMARK    4  A    between atoms: C_9  and  O_10
REMARK    5  A    between atoms: O_10  and  C_11
REMARK    6  A    between atoms: C_11  and  C_12
REMARK    7  A    between atoms: C_19  and  C_20
REMARK    8  A    between atoms: C_20  and  O_21
REMARK    9  A    between atoms: C_22  and  O_23
REMARK                            x       y       z     vdW  Elec       q    Type
REMARK                         _______ _______ _______ _____ _____    ______ ____
ROOT
ATOM      1  C   UNL     1       6.156   4.591  15.615  0.00  0.00    +0.000 A 
ATOM      2  N   UNL     1       5.038   3.809  15.701  0.00  0.00    +0.000 NA
ATOM      3  C   UNL     1       4.507   3.652  16.929  0.00  0.00    +0.000 A 
ATOM      4  C   UNL     1       5.038   4.198  18.102  0.00  0.00    +0.000 A 
ATOM      5  C   UNL     1       6.199   4.995  18.001  0.00  0.00    +0.000 A 
ATOM      6  C   UNL     1       6.723   5.236  16.716  0.00  0.00    +0.000 A 
ENDROOT
BRANCH   1   8
ATOM      7  O   UNL     1       7.664   5.455  13.915  0.00  0.00    +0.000 OA
ATOM      8  C   UNL     1       6.790   4.654  14.253  0.00  0.00    +0.000 C 
ATOM      9  N   UNL     1       6.348   3.698  13.369  0.00  0.00    +0.000 N 
ATOM     10  H   UNL     1       5.585   3.058  13.565  0.00  0.00    +0.000 HD
BRANCH   9  11
ATOM     11  O   UNL     1       6.927   3.720  12.081  0.00  0.00    +0.000 OA
ATOM     12  H   UNL     1       7.025   2.757  11.898  0.00  0.00    +0.000 HD
ENDBRANCH   9  11
ENDBRANCH   1   8
BRANCH   6  13
ATOM     13  O   UNL     1       7.754   6.117  16.540  0.00  0.00    +0.000 OA
ATOM     14  H   UNL     1       7.419   7.034  16.642  0.00  0.00    +0.000 HD
ENDBRANCH   6  13
BRANCH   4  15
ATOM     15  C   UNL     1       4.324   3.934  19.403  0.00  0.00    +0.000 C 
BRANCH  15  16
ATOM     16  O   UNL     1       2.962   4.354  19.361  0.00  0.00    +0.000 OA
BRANCH  16  17
ATOM     17  C   UNL     1       2.626   5.296  20.383  0.00  0.00    +0.000 C 
BRANCH  17  18
ATOM     18  C   UNL     1       2.306   6.633  19.758  0.00  0.00    +0.000 A 
ATOM     19  C   UNL     1       2.607   6.868  18.407  0.00  0.00    +0.000 A 
ATOM     20  C   UNL     1       2.294   8.093  17.816  0.00  0.00    +0.000 A 
ATOM     21  C   UNL     1       1.672   9.080  18.569  0.00  0.00    +0.000 A 
ATOM     22  F   UNL     1       1.374  10.256  18.002  0.00  0.00    +0.000 F 
ATOM     23  C   UNL     1       1.350   8.863  19.902  0.00  0.00    +0.000 A 
ATOM     24  C   UNL     1       1.660   7.639  20.494  0.00  0.00    +0.000 A 
ENDBRANCH  17  18
ENDBRANCH  16  17
ENDBRANCH  15  16
ENDBRANCH   4  15
BRANCH   5  25
ATOM     25  C   UNL     1       6.813   5.631  19.228  0.00  0.00    +0.000 C 
BRANCH  25  26
ATOM     26  O   UNL     1       8.135   5.126  19.432  0.00  0.00    +0.000 OA
ATOM     27  H   UNL     1       8.080   4.158  19.351  0.00  0.00    +0.000 HD
ENDBRANCH  25  26
ENDBRANCH   5  25
TORSDOF 9
ENDMDL
MODEL 2
REMARK VINA RESULT:      -7.2      2.698      3.694
REMARK  Name = 
REMARK  9 active torsions:
REMARK  status: ('A' for Active; 'I' for Inactive)
REMARK    1  A    between atoms: C_2  and  C_5
REMARK    2  A    between atoms: N_3  and  O_4
REMARK    3  A    between atoms: C_8  and  C_9
REMARK    4  A    between atoms: C_9  and  O_10
REMARK    5  A    between atoms: O_10  and  C_11
REMARK    6  A    between atoms: C_11  and  C_12
REMARK    7  A    between atoms: C_19  and  C_20
REMARK    8  A    between atoms: C_20  and  O_21
REMARK    9  A    between atoms: C_22  and  O_23
REMARK                            x       y       z     vdW  Elec       q    Type
REMARK                         _______ _______ _______ _____ _____    ______ ____
ROOT
ATOM      1  C   UNL     1       6.148   5.360  15.478  0.00  0.00    +0.000 A 
ATOM      2  N   UNL     1       5.293   6.408  15.271  0.00  0.00    +0.000 NA
ATOM      3  C   UNL     1       4.568   6.812  16.332  0.00  0.00    +0.000 A 
ATOM      4  C   UNL     1       4.607   6.216  17.596  0.00  0.00    +0.000 A 
ATOM      5  C   UNL     1       5.486   5.129  17.795  0.00  0.00    +0.000 A 
ATOM      6  C   UNL     1       6.310   4.743  16.720  0.00  0.00    +0.000 A 
ENDROOT
BRANCH   1   8
ATOM      7  O   UNL     1       7.841   5.392  13.735  0.00  0.00    +0.000 OA
ATOM      8  C   UNL     1       6.856   4.860  14.251  0.00  0.00    +0.000 C 
ATOM      9  N   UNL     1       6.344   3.697  13.726  0.00  0.00    +0.000 N 
ATOM     10  H   UNL     1       5.497   3.251  14.062  0.00  0.00    +0.000 HD
BRANCH   9  11
ATOM     11  O   UNL     1       6.990   3.190  12.576  0.00  0.00    +0.000 OA
ATOM     12  H   UNL     1       6.532   3.693  11.862  0.00  0.00    +0.000 HD
ENDBRANCH   9  11
ENDBRANCH   1   8
BRANCH   6  13
ATOM     13  O   UNL     1       7.283   3.798  16.895  0.00  0.00    +0.000 OA
ATOM     14  H   UNL     1       7.678   3.899  17.788  0.00  0.00    +0.000 HD
ENDBRANCH   6  13
BRANCH   4  15
ATOM     15  C   UNL     1       3.736   6.788  18.686  0.00  0.00    +0.000 C 
BRANCH  15  16
ATOM     16  O   UNL     1       2.355   6.766  18.334  0.00  0.00    +0.000 OA
BRANCH  16  17
ATOM     17  C   UNL     1       1.911   5.494  17.855  0.00  0.00    +0.000 C 
BRANCH  17  18
ATOM     18  C   UNL     1       1.867   4.507  18.998  0.00  0.00    +0.000 A 
ATOM     19  C   UNL     1       1.829   4.968  20.324  0.00  0.00    +0.000 A 
ATOM     20  C   UNL     1       1.766   4.062  21.385  0.00  0.00    +0.000 A 
ATOM     21  C   UNL     1       1.731   2.699  21.123  0.00  0.00    +0.000 A 
ATOM     22  F   UNL     1       1.673   1.831  22.142  0.00  0.00    +0.000 F 
ATOM     23  C   UNL     1       1.751   2.222  19.819  0.00  0.00    +0.000 A 
ATOM     24  C   UNL     1       1.812   3.125  18.758  0.00  0.00    +0.000 A 
ENDBRANCH  17  18
ENDBRANCH  16  17
ENDBRANCH  15  16
ENDBRANCH   4  15
BRANCH   5  25
ATOM     25  C   UNL     1       5.591   4.452  19.144  0.00  0.00    +0.000 C 
BRANCH  25  26
ATOM     26  O   UNL     1       5.368   3.046  19.005  0.00  0.00    +0.000 OA
ATOM     27  H   UNL     1       5.186   2.703  19.897  0.00  0.00    +0.000 HD
ENDBRANCH  25  26
ENDBRANCH   5  25
TORSDOF 9
ENDMDL
MODEL 3
REMARK VINA RESULT:      -7.2      2.660      3.746
REMARK  Name = 
REMARK  9 active torsions:
REMARK  status: ('A' for Active; 'I' for Inactive)
REMARK    1  A    between atoms: C_2  and  C_5
REMARK    2  A    between atoms: N_3  and  O_4
REMARK    3  A    between atoms: C_8  and  C_9
REMARK    4  A    between atoms: C_9  and  O_10
REMARK    5  A    between atoms: O_10  and  C_11
REMARK    6  A    between atoms: C_11  and  C_12
REMARK    7  A    between atoms: C_19  and  C_20
REMARK    8  A    between atoms: C_20  and  O_21
REMARK    9  A    between atoms: C_22  and  O_23
REMARK                            x       y       z     vdW  Elec       q    Type
REMARK                         _______ _______ _______ _____ _____    ______ ____
ROOT
ATOM      1  C   UNL     1       6.325   5.382  15.439  0.00  0.00    +0.000 A 
ATOM      2  N   UNL     1       5.313   6.280  15.241  0.00  0.00    +0.000 NA
ATOM      3  C   UNL     1       4.671   6.715  16.343  0.00  0.00    +0.000 A 
ATOM      4  C   UNL     1       4.945   6.286  17.645  0.00  0.00    +0.000 A 
ATOM      5  C   UNL     1       5.986   5.351  17.836  0.00  0.00    +0.000 A 
ATOM      6  C   UNL     1       6.721   4.944  16.705  0.00  0.00    +0.000 A 
ENDROOT
BRANCH   1   8
ATOM      7  O   UNL     1       7.905   5.325  13.593  0.00  0.00    +0.000 OA
ATOM      8  C   UNL     1       6.945   4.829  14.186  0.00  0.00    +0.000 C 
ATOM      9  N   UNL     1       6.379   3.662  13.731  0.00  0.00    +0.000 N 
ATOM     10  H   UNL     1       5.546   3.245  14.134  0.00  0.00    +0.000 HD
BRANCH   9  11
ATOM     11  O   UNL     1       6.940   3.108  12.559  0.00  0.00    +0.000 OA
ATOM     12  H   UNL     1       6.154   3.079  11.966  0.00  0.00    +0.000 HD
ENDBRANCH   9  11
ENDBRANCH   1   8
BRANCH   6  13
ATOM     13  O   UNL     1       7.831   4.158  16.844  0.00  0.00    +0.000 OA
ATOM     14  H   UNL     1       7.623   3.404  17.437  0.00  0.00    +0.000 HD
ENDBRANCH   6  13
BRANCH   4  15
ATOM     15  C   UNL     1       4.139   6.871  18.778  0.00  0.00    +0.000 C 
BRANCH  15  16
ATOM     16  O   UNL     1       2.738   6.814  18.523  0.00  0.00    +0.000 OA
BRANCH  16  17
ATOM     17  C   UNL     1       2.042   5.903  19.378  0.00  0.00    +0.000 C 
BRANCH  17  18
ATOM     18  C   UNL     1       2.508   4.493  19.105  0.00  0.00    +0.000 A 
ATOM     19  C   UNL     1       3.125   3.746  20.121  0.00  0.00    +0.000 A 
ATOM     20  C   UNL     1       3.539   2.434  19.882  0.00  0.00    +0.000 A 
ATOM     21  C   UNL     1       3.328   1.864  18.634  0.00  0.00    +0.000 A 
ATOM     22  F   UNL     1       3.727   0.606  18.405  0.00  0.00    +0.000 F 
ATOM     23  C   UNL     1       2.705   2.578  17.619  0.00  0.00    +0.000 A 
ATOM     24  C   UNL     1       2.289   3.889  17.856  0.00  0.00    +0.000 A 
ENDBRANCH  17  18
ENDBRANCH  16  17
ENDBRANCH  15  16
ENDBRANCH   4  15
BRANCH   5  25
ATOM     25  C   UNL     1       6.346   4.860  19.221  0.00  0.00    +0.000 C 
BRANCH  25  26
ATOM     26  O   UNL     1       7.661   5.300  19.569  0.00  0.00    +0.000 OA
ATOM     27  H   UNL     1       8.004   5.792  18.803  0.00  0.00    +0.000 HD
ENDBRANCH  25  26
ENDBRANCH   5  25
TORSDOF 9
ENDMDL
MODEL 4
REMARK VINA RESULT:      -7.2      2.651      3.689
REMARK  Name = 
REMARK  9 active torsions:
REMARK  status: ('A' for Active; 'I' for Inactive)
REMARK    1  A    between atoms: C_2  and  C_5
REMARK    2  A    between atoms: N_3  and  O_4
REMARK    3  A    between atoms: C_8  and  C_9
REMARK    4  A    between atoms: C_9  and  O_10
REMARK    5  A    between atoms: O_10  and  C_11
REMARK    6  A    between atoms: C_11  and  C_12
REMARK    7  A    between atoms: C_19  and  C_20
REMARK    8  A    between atoms: C_20  and  O_21
REMARK    9  A    between atoms: C_22  and  O_23
REMARK                            x       y       z     vdW  Elec       q    Type
REMARK                         _______ _______ _______ _____ _____    ______ ____
ROOT
ATOM      1  C   UNL     1       6.302   5.423  15.490  0.00  0.00    +0.000 A 
ATOM      2  N   UNL     1       5.218   6.220  15.247  0.00  0.00    +0.000 NA
ATOM      3  C   UNL     1       4.548   6.670  16.326  0.00  0.00    +0.000 A 
ATOM      4  C   UNL     1       4.863   6.348  17.650  0.00  0.00    +0.000 A 
ATOM      5  C   UNL     1       5.979   5.517  17.887  0.00  0.00    +0.000 A 
ATOM      6  C   UNL     1       6.739   5.101  16.777  0.00  0.00    +0.000 A 
ENDROOT
BRANCH   1   8
ATOM      7  O   UNL     1       8.011   5.249  13.771  0.00  0.00    +0.000 OA
ATOM      8  C   UNL     1       6.958   4.845  14.268  0.00  0.00    +0.000 C 
ATOM      9  N   UNL     1       6.308   3.762  13.724  0.00  0.00    +0.000 N 
ATOM     10  H   UNL     1       5.405   3.427  14.044  0.00  0.00    +0.000 HD
BRANCH   9  11
ATOM     11  O   UNL     1       6.900   3.186  12.577  0.00  0.00    +0.000 OA
ATOM     12  H   UNL     1       7.656   3.798  12.425  0.00  0.00    +0.000 HD
ENDBRANCH   9  11
ENDBRANCH   1   8
BRANCH   6  13
ATOM     13  O   UNL     1       7.911   4.419  16.953  0.00  0.00    +0.000 OA
ATOM     14  H   UNL     1       7.762   3.671  17.571  0.00  0.00    +0.000 HD
ENDBRANCH   6  13
BRANCH   4  15
ATOM     15  C   UNL     1       4.018   6.936  18.751  0.00  0.00    +0.000 C 
BRANCH  15  16
ATOM     16  O   UNL     1       2.629   6.686  18.552  0.00  0.00    +0.000 OA
BRANCH  16  17
ATOM     17  C   UNL     1       2.073   5.777  19.505  0.00  0.00    +0.000 C 
BRANCH  17  18
ATOM     18  C   UNL     1       2.540   4.374  19.202  0.00  0.00    +0.000 A 
ATOM     19  C   UNL     1       2.285   3.803  17.945  0.00  0.00    +0.000 A 
ATOM     20  C   UNL     1       2.732   2.514  17.649  0.00  0.00    +0.000 A 
ATOM     21  C   UNL     1       3.443   1.798  18.604  0.00  0.00    +0.000 A 
ATOM     22  F   UNL     1       3.869   0.560  18.320  0.00  0.00    +0.000 F 
ATOM     23  C   UNL     1       3.721   2.349  19.848  0.00  0.00    +0.000 A 
ATOM     24  C   UNL     1       3.276   3.637  20.144  0.00  0.00    +0.000 A 
ENDBRANCH  17  18
ENDBRANCH  16  17
ENDBRANCH  15  16
ENDBRANCH   4  15
BRANCH   5  25
ATOM     25  C   UNL     1       6.386   5.146  19.296  0.00  0.00    +0.000 C 
BRANCH  25  26
ATOM     26  O   UNL     1       7.763   5.469  19.509  0.00  0.00    +0.000 OA
ATOM     27  H   UNL     1       7.990   6.162  18.865  0.00  0.00    +0.000 HD
ENDBRANCH  25  26
ENDBRANCH   5  25
TORSDOF 9
ENDMDL
MODEL 5
REMARK VINA RESULT:      -7.2      2.922      4.727
REMARK  Name = 
REMARK  9 active torsions:
REMARK  status: ('A' for Active; 'I' for Inactive)
REMARK    1  A    between atoms: C_2  and  C_5
REMARK    2  A    between atoms: N_3  and  O_4
REMARK    3  A    between atoms: C_8  and  C_9
REMARK    4  A    between atoms: C_9  and  O_10
REMARK    5  A    between atoms: O_10  and  C_11
REMARK    6  A    between atoms: C_11  and  C_12
REMARK    7  A    between atoms: C_19  and  C_20
REMARK    8  A    between atoms: C_20  and  O_21
REMARK    9  A    between atoms: C_22  and  O_23
REMARK                            x       y       z     vdW  Elec       q    Type
REMARK                         _______ _______ _______ _____ _____    ______ ____
ROOT
ATOM      1  C   UNL     1       3.766   3.965  18.565  0.00  0.00    +0.000 A 
ATOM      2  N   UNL     1       2.606   4.543  19.003  0.00  0.00    +0.000 NA
ATOM      3  C   UNL     1       2.427   5.842  18.690  0.00  0.00    +0.000 A 
ATOM      4  C   UNL     1       3.350   6.627  17.993  0.00  0.00    +0.000 A 
ATOM      5  C   UNL     1       4.547   6.021  17.555  0.00  0.00    +0.000 A 
ATOM      6  C   UNL     1       4.718   4.645  17.803  0.00  0.00    +0.000 A 
ENDROOT
BRANCH   1   8
ATOM      7  O   UNL     1       3.284   1.588  18.723  0.00  0.00    +0.000 OA
ATOM      8  C   UNL     1       3.989   2.552  19.026  0.00  0.00    +0.000 C 
ATOM      9  N   UNL     1       5.100   2.374  19.817  0.00  0.00    +0.000 N 
ATOM     10  H   UNL     1       5.678   3.136  20.157  0.00  0.00    +0.000 HD
BRANCH   9  11
ATOM     11  O   UNL     1       5.348   1.057  20.264  0.00  0.00    +0.000 OA
ATOM     12  H   UNL     1       4.912   0.529  19.555  0.00  0.00    +0.000 HD
ENDBRANCH   9  11
ENDBRANCH   1   8
BRANCH   6  13
ATOM     13  O   UNL     1       5.785   3.971  17.276  0.00  0.00    +0.000 OA
ATOM     14  H   UNL     1       5.670   3.009  17.432  0.00  0.00    +0.000 HD
ENDBRANCH   6  13
BRANCH   4  15
ATOM     15  C   UNL     1       3.000   8.068  17.716  0.00  0.00    +0.000 C 
BRANCH  15  16
ATOM     16  O   UNL     1       1.641   8.359  18.031  0.00  0.00    +0.000 OA
BRANCH  16  17
ATOM     17  C   UNL     1       1.418   9.730  18.371  0.00  0.00    +0.000 C 
BRANCH  17  18
ATOM     18  C   UNL     1       0.816   9.819  19.753  0.00  0.00    +0.000 A 
ATOM     19  C   UNL     1      -0.017  10.898  20.090  0.00  0.00    +0.000 A 
ATOM     20  C   UNL     1      -0.594  10.976  21.359  0.00  0.00    +0.000 A 
ATOM     21  C   UNL     1      -0.348   9.974  22.288  0.00  0.00    +0.000 A 
ATOM     22  F   UNL     1      -0.900  10.052  23.506  0.00  0.00    +0.000 F 
ATOM     23  C   UNL     1       0.459   8.890  21.971  0.00  0.00    +0.000 A 
ATOM     24  C   UNL     1       1.035   8.809  20.703  0.00  0.00    +0.000 A 
ENDBRANCH  17  18
ENDBRANCH  16  17
ENDBRANCH  15  16
ENDBRANCH   4  15
BRANCH   5  25
ATOM     25  C   UNL     1       5.578   6.809  16.779  0.00  0.00    +0.000 C 
BRANCH  25  26
ATOM     26  O   UNL     1       5.571   6.408  15.406  0.00  0.00    +0.000 OA
ATOM     27  H   UNL     1       4.641   6.412  15.119  0.00  0.00    +0.000 HD
ENDBRANCH  25  26
ENDBRANCH   5  25
TORSDOF 9
ENDMDL
MODEL 6
REMARK VINA RESULT:      -7.1      2.946      4.707
REMARK  Name = 
REMARK  9 active torsions:
REMARK  status: ('A' for Active; 'I' for Inactive)
REMARK    1  A    between atoms: C_2  and  C_5
REMARK    2  A    between atoms: N_3  and  O_4
REMARK    3  A    between atoms: C_8  and  C_9
REMARK    4  A    between atoms: C_9  and  O_10
REMARK    5  A    between atoms: O_10  and  C_11
REMARK    6  A    between atoms: C_11  and  C_12
REMARK    7  A    between atoms: C_19  and  C_20
REMARK    8  A    between atoms: C_20  and  O_21
REMARK    9  A    between atoms: C_22  and  O_23
REMARK                            x       y       z     vdW  Elec       q    Type
REMARK                         _______ _______ _______ _____ _____    ______ ____
ROOT
ATOM      1  C   UNL     1       3.706   3.963  18.583  0.00  0.00    +0.000 A 
ATOM      2  N   UNL     1       2.744   4.649  19.272  0.00  0.00    +0.000 NA
ATOM      3  C   UNL     1       2.566   5.940  18.931  0.00  0.00    +0.000 A 
ATOM      4  C   UNL     1       3.313   6.618  17.963  0.00  0.00    +0.000 A 
ATOM      5  C   UNL     1       4.310   5.902  17.266  0.00  0.00    +0.000 A 
ATOM      6  C   UNL     1       4.458   4.531  17.552  0.00  0.00    +0.000 A 
ENDROOT
BRANCH   1   8
ATOM      7  O   UNL     1       3.251   1.586  18.807  0.00  0.00    +0.000 OA
ATOM      8  C   UNL     1       3.960   2.561  19.063  0.00  0.00    +0.000 C 
ATOM      9  N   UNL     1       5.103   2.408  19.811  0.00  0.00    +0.000 N 
ATOM     10  H   UNL     1       5.688   3.180  20.112  0.00  0.00    +0.000 HD
BRANCH   9  11
ATOM     11  O   UNL     1       5.380   1.102  20.273  0.00  0.00    +0.000 OA
ATOM     12  H   UNL     1       5.845   0.718  19.495  0.00  0.00    +0.000 HD
ENDBRANCH   9  11
ENDBRANCH   1   8
BRANCH   6  13
ATOM     13  O   UNL     1       5.301   3.753  16.808  0.00  0.00    +0.000 OA
ATOM     14  H   UNL     1       4.773   3.159  16.232  0.00  0.00    +0.000 HD
ENDBRANCH   6  13
BRANCH   4  15
ATOM     15  C   UNL     1       2.989   8.066  17.692  0.00  0.00    +0.000 C 
BRANCH  15  16
ATOM     16  O   UNL     1       1.634   8.379  18.004  0.00  0.00    +0.000 OA
BRANCH  16  17
ATOM     17  C   UNL     1       1.436   9.748  18.365  0.00  0.00    +0.000 C 
BRANCH  17  18
ATOM     18  C   UNL     1       0.791   9.826  19.728  0.00  0.00    +0.000 A 
ATOM     19  C   UNL     1       1.064   8.843  20.693  0.00  0.00    +0.000 A 
ATOM     20  C   UNL     1       0.489   8.921  21.963  0.00  0.00    +0.000 A 
ATOM     21  C   UNL     1      -0.351   9.982  22.273  0.00  0.00    +0.000 A 
ATOM     22  F   UNL     1      -0.905  10.054  23.490  0.00  0.00    +0.000 F 
ATOM     23  C   UNL     1      -0.622  10.974  21.339  0.00  0.00    +0.000 A 
ATOM     24  C   UNL     1      -0.046  10.899  20.071  0.00  0.00    +0.000 A 
ENDBRANCH  17  18
ENDBRANCH  16  17
ENDBRANCH  15  16
ENDBRANCH   4  15
BRANCH   5  25
ATOM     25  C   UNL     1       5.140   6.571  16.193  0.00  0.00    +0.000 C 
BRANCH  25  26
ATOM     26  O   UNL     1       6.529   6.480  16.520  0.00  0.00    +0.000 OA
ATOM     27  H   UNL     1       6.752   5.532  16.529  0.00  0.00    +0.000 HD
ENDBRANCH  25  26
ENDBRANCH   5  25
TORSDOF 9
ENDMDL
MODEL 7
REMARK VINA RESULT:      -7.1      0.399      1.080
REMARK  Name = 
REMARK  9 active torsions:
REMARK  status: ('A' for Active; 'I' for Inactive)
REMARK    1  A    between atoms: C_2  and  C_5
REMARK    2  A    between atoms: N_3  and  O_4
REMARK    3  A    between atoms: C_8  and  C_9
REMARK    4  A    between atoms: C_9  and  O_10
REMARK    5  A    between atoms: O_10  and  C_11
REMARK    6  A    between atoms: C_11  and  C_12
REMARK    7  A    between atoms: C_19  and  C_20
REMARK    8  A    between atoms: C_20  and  O_21
REMARK    9  A    between atoms: C_22  and  O_23
REMARK                            x       y       z     vdW  Elec       q    Type
REMARK                         _______ _______ _______ _____ _____    ______ ____
ROOT
ATOM      1  C   UNL     1       6.153   4.635  15.596  0.00  0.00    +0.000 A 
ATOM      2  N   UNL     1       5.023   3.875  15.721  0.00  0.00    +0.000 NA
ATOM      3  C   UNL     1       4.520   3.746  16.965  0.00  0.00    +0.000 A 
ATOM      4  C   UNL     1       5.092   4.297  18.116  0.00  0.00    +0.000 A 
ATOM      5  C   UNL     1       6.264   5.071  17.974  0.00  0.00    +0.000 A 
ATOM      6  C   UNL     1       6.760   5.284  16.674  0.00  0.00    +0.000 A 
ENDROOT
BRANCH   1   8
ATOM      7  O   UNL     1       7.615   5.462  13.839  0.00  0.00    +0.000 OA
ATOM      8  C   UNL     1       6.754   4.666  14.218  0.00  0.00    +0.000 C 
ATOM      9  N   UNL     1       6.294   3.687  13.369  0.00  0.00    +0.000 N 
ATOM     10  H   UNL     1       5.539   3.049  13.599  0.00  0.00    +0.000 HD
BRANCH   9  11
ATOM     11  O   UNL     1       6.842   3.679  12.067  0.00  0.00    +0.000 OA
ATOM     12  H   UNL     1       7.018   2.718  11.939  0.00  0.00    +0.000 HD
ENDBRANCH   9  11
ENDBRANCH   1   8
BRANCH   6  13
ATOM     13  O   UNL     1       7.803   6.142  16.459  0.00  0.00    +0.000 OA
ATOM     14  H   UNL     1       8.427   6.090  17.215  0.00  0.00    +0.000 HD
ENDBRANCH   6  13
BRANCH   4  15
ATOM     15  C   UNL     1       4.405   4.066  19.438  0.00  0.00    +0.000 C 
BRANCH  15  16
ATOM     16  O   UNL     1       3.928   5.279  20.013  0.00  0.00    +0.000 OA
BRANCH  16  17
ATOM     17  C   UNL     1       2.509   5.429  19.926  0.00  0.00    +0.000 C 
BRANCH  17  18
ATOM     18  C   UNL     1       2.172   6.828  19.470  0.00  0.00    +0.000 A 
ATOM     19  C   UNL     1       1.598   7.742  20.368  0.00  0.00    +0.000 A 
ATOM     20  C   UNL     1       1.303   9.044  19.960  0.00  0.00    +0.000 A 
ATOM     21  C   UNL     1       1.591   9.438  18.660  0.00  0.00    +0.000 A 
ATOM     22  F   UNL     1       1.306  10.687  18.268  0.00  0.00    +0.000 F 
ATOM     23  C   UNL     1       2.174   8.556  17.760  0.00  0.00    +0.000 A 
ATOM     24  C   UNL     1       2.471   7.255  18.166  0.00  0.00    +0.000 A 
ENDBRANCH  17  18
ENDBRANCH  16  17
ENDBRANCH  15  16
ENDBRANCH   4  15
BRANCH   5  25
ATOM     25  C   UNL     1       6.922   5.711  19.177  0.00  0.00    +0.000 C 
BRANCH  25  26
ATOM     26  O   UNL     1       8.225   5.156  19.376  0.00  0.00    +0.000 OA
ATOM     27  H   UNL     1       8.861   5.880  19.237  0.00  0.00    +0.000 HD
ENDBRANCH  25  26
ENDBRANCH   5  25
TORSDOF 9
ENDMDL
MODEL 8
REMARK VINA RESULT:      -7.0      2.676      3.590
REMARK  Name = 
REMARK  9 active torsions:
REMARK  status: ('A' for Active; 'I' for Inactive)
REMARK    1  A    between atoms: C_2  and  C_5
REMARK    2  A    between atoms: N_3  and  O_4
REMARK    3  A    between atoms: C_8  and  C_9
REMARK    4  A    between atoms: C_9  and  O_10
REMARK    5  A    between atoms: O_10  and  C_11
REMARK    6  A    between atoms: C_11  and  C_12
REMARK    7  A    between atoms: C_19  and  C_20
REMARK    8  A    between atoms: C_20  and  O_21
REMARK    9  A    between atoms: C_22  and  O_23
REMARK                            x       y       z     vdW  Elec       q    Type
REMARK                         _______ _______ _______ _____ _____    ______ ____
ROOT
ATOM      1  C   UNL     1       6.107   5.430  15.410  0.00  0.00    +0.000 A 
ATOM      2  N   UNL     1       5.341   6.536  15.164  0.00  0.00    +0.000 NA
ATOM      3  C   UNL     1       4.716   7.082  16.225  0.00  0.00    +0.000 A 
ATOM      4  C   UNL     1       4.770   6.578  17.528  0.00  0.00    +0.000 A 
ATOM      5  C   UNL     1       5.557   5.430  17.767  0.00  0.00    +0.000 A 
ATOM      6  C   UNL     1       6.281   4.891  16.686  0.00  0.00    +0.000 A 
ENDROOT
BRANCH   1   8
ATOM      7  O   UNL     1       7.623   5.237  13.520  0.00  0.00    +0.000 OA
ATOM      8  C   UNL     1       6.697   4.777  14.191  0.00  0.00    +0.000 C 
ATOM      9  N   UNL     1       6.147   3.559  13.868  0.00  0.00    +0.000 N 
ATOM     10  H   UNL     1       5.340   3.162  14.338  0.00  0.00    +0.000 HD
BRANCH   9  11
ATOM     11  O   UNL     1       6.682   2.911  12.733  0.00  0.00    +0.000 OA
ATOM     12  H   UNL     1       5.862   2.695  12.231  0.00  0.00    +0.000 HD
ENDBRANCH   9  11
ENDBRANCH   1   8
BRANCH   6  13
ATOM     13  O   UNL     1       7.172   3.872  16.886  0.00  0.00    +0.000 OA
ATOM     14  H   UNL     1       7.565   3.611  16.025  0.00  0.00    +0.000 HD
ENDBRANCH   6  13
BRANCH   4  15
ATOM     15  C   UNL     1       4.017   7.307  18.612  0.00  0.00    +0.000 C 
BRANCH  15  16
ATOM     16  O   UNL     1       2.608   7.126  18.498  0.00  0.00    +0.000 OA
BRANCH  16  17
ATOM     17  C   UNL     1       2.003   6.617  19.690  0.00  0.00    +0.000 C 
BRANCH  17  18
ATOM     18  C   UNL     1       1.881   5.115  19.596  0.00  0.00    +0.000 A 
ATOM     19  C   UNL     1       1.799   4.341  20.764  0.00  0.00    +0.000 A 
ATOM     20  C   UNL     1       1.664   2.953  20.685  0.00  0.00    +0.000 A 
ATOM     21  C   UNL     1       1.601   2.339  19.441  0.00  0.00    +0.000 A 
ATOM     22  F   UNL     1       1.474   1.008  19.366  0.00  0.00    +0.000 F 
ATOM     23  C   UNL     1       1.664   3.087  18.272  0.00  0.00    +0.000 A 
ATOM     24  C   UNL     1       1.797   4.474  18.350  0.00  0.00    +0.000 A 
ENDBRANCH  17  18
ENDBRANCH  16  17
ENDBRANCH  15  16
ENDBRANCH   4  15
BRANCH   5  25
ATOM     25  C   UNL     1       5.675   4.844  19.157  0.00  0.00    +0.000 C 
BRANCH  25  26
ATOM     26  O   UNL     1       6.908   5.249  19.756  0.00  0.00    +0.000 OA
ATOM     27  H   UNL     1       6.922   4.867  20.651  0.00  0.00    +0.000 HD
ENDBRANCH  25  26
ENDBRANCH   5  25
TORSDOF 9
ENDMDL
MODEL 9
REMARK VINA RESULT:      -6.9      2.618      3.449
REMARK  Name = 
REMARK  9 active torsions:
REMARK  status: ('A' for Active; 'I' for Inactive)
REMARK    1  A    between atoms: C_2  and  C_5
REMARK    2  A    between atoms: N_3  and  O_4
REMARK    3  A    between atoms: C_8  and  C_9
REMARK    4  A    between atoms: C_9  and  O_10
REMARK    5  A    between atoms: O_10  and  C_11
REMARK    6  A    between atoms: C_11  and  C_12
REMARK    7  A    between atoms: C_19  and  C_20
REMARK    8  A    between atoms: C_20  and  O_21
REMARK    9  A    between atoms: C_22  and  O_23
REMARK                            x       y       z     vdW  Elec       q    Type
REMARK                         _______ _______ _______ _____ _____    ______ ____
ROOT
ATOM      1  C   UNL     1       6.070   4.293  14.383  0.00  0.00    +0.000 A 
ATOM      2  N   UNL     1       4.873   3.821  14.847  0.00  0.00    +0.000 NA
ATOM      3  C   UNL     1       4.535   4.172  16.103  0.00  0.00    +0.000 A 
ATOM      4  C   UNL     1       5.332   4.939  16.957  0.00  0.00    +0.000 A 
ATOM      5  C   UNL     1       6.570   5.412  16.470  0.00  0.00    +0.000 A 
ATOM      6  C   UNL     1       6.905   5.123  15.133  0.00  0.00    +0.000 A 
ENDROOT
BRANCH   1   8
ATOM      7  O   UNL     1       7.245   4.368  12.257  0.00  0.00    +0.000 OA
ATOM      8  C   UNL     1       6.471   3.792  13.024  0.00  0.00    +0.000 C 
ATOM      9  N   UNL     1       5.930   2.577  12.676  0.00  0.00    +0.000 N 
ATOM     10  H   UNL     1       5.235   2.089  13.231  0.00  0.00    +0.000 HD
BRANCH   9  11
ATOM     11  O   UNL     1       6.290   2.070  11.407  0.00  0.00    +0.000 OA
ATOM     12  H   UNL     1       5.405   1.892  11.013  0.00  0.00    +0.000 HD
ENDBRANCH   9  11
ENDBRANCH   1   8
BRANCH   6  13
ATOM     13  O   UNL     1       8.018   5.675  14.561  0.00  0.00    +0.000 OA
ATOM     14  H   UNL     1       8.087   5.374  13.629  0.00  0.00    +0.000 HD
ENDBRANCH   6  13
BRANCH   4  15
ATOM     15  C   UNL     1       4.810   5.251  18.337  0.00  0.00    +0.000 C 
BRANCH  15  16
ATOM     16  O   UNL     1       3.933   6.374  18.337  0.00  0.00    +0.000 OA
BRANCH  16  17
ATOM     17  C   UNL     1       2.560   6.022  18.150  0.00  0.00    +0.000 C 
BRANCH  17  18
ATOM     18  C   UNL     1       2.156   4.988  19.173  0.00  0.00    +0.000 A 
ATOM     19  C   UNL     1       2.496   5.164  20.524  0.00  0.00    +0.000 A 
ATOM     20  C   UNL     1       2.107   4.223  21.479  0.00  0.00    +0.000 A 
ATOM     21  C   UNL     1       1.372   3.111  21.089  0.00  0.00    +0.000 A 
ATOM     22  F   UNL     1       1.002   2.207  22.005  0.00  0.00    +0.000 F 
ATOM     23  C   UNL     1       1.011   2.925  19.761  0.00  0.00    +0.000 A 
ATOM     24  C   UNL     1       1.397   3.866  18.805  0.00  0.00    +0.000 A 
ENDBRANCH  17  18
ENDBRANCH  16  17
ENDBRANCH  15  16
ENDBRANCH   4  15
BRANCH   5  25
ATOM     25  C   UNL     1       7.471   6.264  17.336  0.00  0.00    +0.000 C 
BRANCH  25  26
ATOM     26  O   UNL     1       7.599   7.572  16.772  0.00  0.00    +0.000 OA
ATOM     27  H   UNL     1       7.392   7.489  15.824  0.00  0.00    +0.000 HD
ENDBRANCH  25  26
ENDBRANCH   5  25
TORSDOF 9
ENDMDL
