MODEL 1
REMARK VINA RESULT:      -7.6      0.000      0.000
REMARK  Name = 
REMARK  5 active torsions:
REMARK  status: ('A' for Active; 'I' for Inactive)
REMARK    1  A    between atoms: C_1  and  C_2
REMARK    2  A    between atoms: C_2  and  C_3
REMARK    3  A    between atoms: C_8  and  C_9
REMARK    4  A    between atoms: N_11  and  C_12
REMARK    5  A    between atoms: C_16  and  N_17
REMARK                            x       y       z     vdW  Elec       q    Type
REMARK                         _______ _______ _______ _____ _____    ______ ____
ROOT
ATOM      1  C   UNL     1       1.770   7.955  19.583  0.00  0.00    +0.000 C 
ATOM      2  O   UNL     1       2.031   7.366  20.624  0.00  0.00    +0.000 OA
ATOM      3  N   UNL     1       2.018   7.485  18.297  0.00  0.00    +0.000 N 
ATOM      4  H   UNL     1       1.927   8.146  17.537  0.00  0.00    +0.000 HD
ENDROOT
BRANCH   1  10
ATOM      5  C   UNL     1       0.273   9.689  20.695  0.00  0.00    +0.000 A 
ATOM      6  C   UNL     1      -0.235  10.986  20.649  0.00  0.00    +0.000 A 
ATOM      7  N   UNL     1       0.039  11.885  19.679  0.00  0.00    +0.000 NA
ATOM      8  C   UNL     1       0.840  11.477  18.679  0.00  0.00    +0.000 A 
ATOM      9  C   UNL     1       1.413  10.220  18.622  0.00  0.00    +0.000 A 
ATOM     10  C   UNL     1       1.149   9.316  19.658  0.00  0.00    +0.000 A 
BRANCH   5  12
ATOM     11  C   UNL     1      -0.170   9.489  23.154  0.00  0.00    +0.000 C 
ATOM     12  C   UNL     1      -0.193   8.780  21.804  0.00  0.00    +0.000 C 
ENDBRANCH   5  12
ENDBRANCH   1  10
BRANCH   3  13
ATOM     13  C   UNL     1       2.509   6.200  17.952  0.00  0.00    +0.000 A 
ATOM     14  C   UNL     1       1.707   5.060  17.943  0.00  0.00    +0.000 A 
ATOM     15  C   UNL     1       2.240   3.816  17.608  0.00  0.00    +0.000 A 
ATOM     16  C   UNL     1       3.588   3.691  17.284  0.00  0.00    +0.000 A 
ATOM     17  C   UNL     1       4.416   4.820  17.280  0.00  0.00    +0.000 A 
ATOM     18  C   UNL     1       3.864   6.079  17.595  0.00  0.00    +0.000 A 
BRANCH  17  19
ATOM     19  N   UNL     1       5.801   4.678  16.982  0.00  0.00    +0.000 N 
ATOM     20  C   UNL     1       6.851   4.559  17.863  0.00  0.00    +0.000 A 
ATOM     21  N   UNL     1       7.991   4.475  17.217  0.00  0.00    +0.000 NA
ATOM     22  N   UNL     1       7.712   4.537  15.880  0.00  0.00    +0.000 NA
ATOM     23  C   UNL     1       6.408   4.658  15.751  0.00  0.00    +0.000 A 
ENDBRANCH  17  19
ENDBRANCH   3  13
TORSDOF 4
ENDMDL
MODEL 2
REMARK VINA RESULT:      -7.5      2.545      7.667
REMARK  Name = 
REMARK  5 active torsions:
REMARK  status: ('A' for Active; 'I' for Inactive)
REMARK    1  A    between atoms: C_1  and  C_2
REMARK    2  A    between atoms: C_2  and  C_3
REMARK    3  A    between atoms: C_8  and  C_9
REMARK    4  A    between atoms: N_11  and  C_12
REMARK    5  A    between atoms: C_16  and  N_17
REMARK                            x       y       z     vdW  Elec       q    Type
REMARK                         _______ _______ _______ _____ _____    ______ ____
ROOT
ATOM      1  C   UNL     1       1.952   5.222  18.060  0.00  0.00    +0.000 C 
ATOM      2  O   UNL     1       0.986   5.349  17.319  0.00  0.00    +0.000 OA
ATOM      3  N   UNL     1       2.580   6.246  18.762  0.00  0.00    +0.000 N 
ATOM      4  H   UNL     1       3.475   6.035  19.185  0.00  0.00    +0.000 HD
ENDROOT
BRANCH   1  10
ATOM      5  C   UNL     1       2.106   2.960  19.220  0.00  0.00    +0.000 A 
ATOM      6  C   UNL     1       2.751   1.725  19.277  0.00  0.00    +0.000 A 
ATOM      7  N   UNL     1       3.774   1.354  18.478  0.00  0.00    +0.000 NA
ATOM      8  C   UNL     1       4.208   2.260  17.584  0.00  0.00    +0.000 A 
ATOM      9  C   UNL     1       3.641   3.511  17.424  0.00  0.00    +0.000 A 
ATOM     10  C   UNL     1       2.555   3.862  18.236  0.00  0.00    +0.000 A 
BRANCH   5  12
ATOM     11  C   UNL     1       1.445   2.794  21.632  0.00  0.00    +0.000 C 
ATOM     12  C   UNL     1       1.032   3.252  20.237  0.00  0.00    +0.000 C 
ENDBRANCH   5  12
ENDBRANCH   1  10
BRANCH   3  13
ATOM     13  C   UNL     1       2.155   7.596  18.839  0.00  0.00    +0.000 A 
ATOM     14  C   UNL     1       2.290   8.494  17.781  0.00  0.00    +0.000 A 
ATOM     15  C   UNL     1       1.866   9.816  17.910  0.00  0.00    +0.000 A 
ATOM     16  C   UNL     1       1.308  10.264  19.104  0.00  0.00    +0.000 A 
ATOM     17  C   UNL     1       1.154   9.383  20.181  0.00  0.00    +0.000 A 
ATOM     18  C   UNL     1       1.562   8.041  20.034  0.00  0.00    +0.000 A 
BRANCH  17  19
ATOM     19  N   UNL     1       0.615   9.858  21.409  0.00  0.00    +0.000 N 
ATOM     20  C   UNL     1       0.571   9.212  22.624  0.00  0.00    +0.000 A 
ATOM     21  N   UNL     1      -0.030   9.956  23.523  0.00  0.00    +0.000 NA
ATOM     22  N   UNL     1      -0.400  11.123  22.913  0.00  0.00    +0.000 NA
ATOM     23  C   UNL     1      -0.013  11.054  21.657  0.00  0.00    +0.000 A 
ENDBRANCH  17  19
ENDBRANCH   3  13
TORSDOF 4
ENDMDL
MODEL 3
REMARK VINA RESULT:      -7.4      1.430      2.196
REMARK  Name = 
REMARK  5 active torsions:
REMARK  status: ('A' for Active; 'I' for Inactive)
REMARK    1  A    between atoms: C_1  and  C_2
REMARK    2  A    between atoms: C_2  and  C_3
REMARK    3  A    between atoms: C_8  and  C_9
REMARK    4  A    between atoms: N_11  and  C_12
REMARK    5  A    between atoms: C_16  and  N_17
REMARK                            x       y       z     vdW  Elec       q    Type
REMARK                         _______ _______ _______ _____ _____    ______ ____
ROOT
ATOM      1  C   UNL     1       1.768   8.164  19.142  0.00  0.00    +0.000 C 
ATOM      2  O   UNL     1       2.049   8.719  18.087  0.00  0.00    +0.000 OA
ATOM      3  N   UNL     1       1.924   6.809  19.415  0.00  0.00    +0.000 N 
ATOM      4  H   UNL     1       1.480   6.452  20.252  0.00  0.00    +0.000 HD
ENDROOT
BRANCH   1  10
ATOM      5  C   UNL     1       0.401  10.126  20.017  0.00  0.00    +0.000 A 
ATOM      6  C   UNL     1      -0.089  10.792  21.140  0.00  0.00    +0.000 A 
ATOM      7  N   UNL     1       0.150  10.425  22.417  0.00  0.00    +0.000 NA
ATOM      8  C   UNL     1       0.940   9.352  22.604  0.00  0.00    +0.000 A 
ATOM      9  C   UNL     1       1.472   8.604  21.571  0.00  0.00    +0.000 A 
ATOM     10  C   UNL     1       1.181   8.978  20.254  0.00  0.00    +0.000 A 
BRANCH   5  12
ATOM     11  C   UNL     1      -1.268  10.292  18.154  0.00  0.00    +0.000 C 
ATOM     12  C   UNL     1       0.110  10.710  18.658  0.00  0.00    +0.000 C 
ENDBRANCH   5  12
ENDBRANCH   1  10
BRANCH   3  13
ATOM     13  C   UNL     1       2.536   5.847  18.573  0.00  0.00    +0.000 A 
ATOM     14  C   UNL     1       1.962   4.606  18.298  0.00  0.00    +0.000 A 
ATOM     15  C   UNL     1       2.610   3.689  17.472  0.00  0.00    +0.000 A 
ATOM     16  C   UNL     1       3.849   3.994  16.915  0.00  0.00    +0.000 A 
ATOM     17  C   UNL     1       4.447   5.233  17.171  0.00  0.00    +0.000 A 
ATOM     18  C   UNL     1       3.774   6.166  17.986  0.00  0.00    +0.000 A 
BRANCH  17  19
ATOM     19  N   UNL     1       5.729   5.523  16.626  0.00  0.00    +0.000 N 
ATOM     20  C   UNL     1       6.664   6.422  17.086  0.00  0.00    +0.000 A 
ATOM     21  N   UNL     1       7.720   6.433  16.306  0.00  0.00    +0.000 NA
ATOM     22  N   UNL     1       7.501   5.530  15.303  0.00  0.00    +0.000 NA
ATOM     23  C   UNL     1       6.315   4.995  15.502  0.00  0.00    +0.000 A 
ENDBRANCH  17  19
ENDBRANCH   3  13
TORSDOF 4
ENDMDL
MODEL 4
REMARK VINA RESULT:      -7.3      1.169      1.406
REMARK  Name = 
REMARK  5 active torsions:
REMARK  status: ('A' for Active; 'I' for Inactive)
REMARK    1  A    between atoms: C_1  and  C_2
REMARK    2  A    between atoms: C_2  and  C_3
REMARK    3  A    between atoms: C_8  and  C_9
REMARK    4  A    between atoms: N_11  and  C_12
REMARK    5  A    between atoms: C_16  and  N_17
REMARK                            x       y       z     vdW  Elec       q    Type
REMARK                         _______ _______ _______ _____ _____    ______ ____
ROOT
ATOM      1  C   UNL     1       1.564   8.798  18.370  0.00  0.00    +0.000 C 
ATOM      2  O   UNL     1       1.047   8.713  17.264  0.00  0.00    +0.000 OA
ATOM      3  N   UNL     1       2.297   7.802  19.006  0.00  0.00    +0.000 N 
ATOM      4  H   UNL     1       2.505   7.935  19.987  0.00  0.00    +0.000 HD
ENDROOT
BRANCH   1  10
ATOM      5  C   UNL     1       0.792  10.090  20.425  0.00  0.00    +0.000 A 
ATOM      6  C   UNL     1       0.697  11.334  21.047  0.00  0.00    +0.000 A 
ATOM      7  N   UNL     1       1.119  12.498  20.508  0.00  0.00    +0.000 NA
ATOM      8  C   UNL     1       1.643  12.441  19.271  0.00  0.00    +0.000 A 
ATOM      9  C   UNL     1       1.802  11.266  18.560  0.00  0.00    +0.000 A 
ATOM     10  C   UNL     1       1.394  10.065  19.152  0.00  0.00    +0.000 A 
BRANCH   5  12
ATOM     11  C   UNL     1      -0.339   9.266  22.504  0.00  0.00    +0.000 C 
ATOM     12  C   UNL     1       0.201   8.894  21.127  0.00  0.00    +0.000 C 
ENDBRANCH   5  12
ENDBRANCH   1  10
BRANCH   3  13
ATOM     13  C   UNL     1       2.677   6.554  18.451  0.00  0.00    +0.000 A 
ATOM     14  C   UNL     1       1.873   5.417  18.521  0.00  0.00    +0.000 A 
ATOM     15  C   UNL     1       2.296   4.209  17.969  0.00  0.00    +0.000 A 
ATOM     16  C   UNL     1       3.537   4.116  17.345  0.00  0.00    +0.000 A 
ATOM     17  C   UNL     1       4.364   5.242  17.255  0.00  0.00    +0.000 A 
ATOM     18  C   UNL     1       3.918   6.467  17.793  0.00  0.00    +0.000 A 
BRANCH  17  19
ATOM     19  N   UNL     1       5.645   5.130  16.647  0.00  0.00    +0.000 N 
ATOM     20  C   UNL     1       6.025   5.527  15.385  0.00  0.00    +0.000 A 
ATOM     21  N   UNL     1       7.286   5.234  15.166  0.00  0.00    +0.000 NA
ATOM     22  N   UNL     1       7.771   4.630  16.293  0.00  0.00    +0.000 NA
ATOM     23  C   UNL     1       6.788   4.572  17.166  0.00  0.00    +0.000 A 
ENDBRANCH  17  19
ENDBRANCH   3  13
TORSDOF 4
ENDMDL
MODEL 5
REMARK VINA RESULT:      -7.3      2.774      8.029
REMARK  Name = 
REMARK  5 active torsions:
REMARK  status: ('A' for Active; 'I' for Inactive)
REMARK    1  A    between atoms: C_1  and  C_2
REMARK    2  A    between atoms: C_2  and  C_3
REMARK    3  A    between atoms: C_8  and  C_9
REMARK    4  A    between atoms: N_11  and  C_12
REMARK    5  A    between atoms: C_16  and  N_17
REMARK                            x       y       z     vdW  Elec       q    Type
REMARK                         _______ _______ _______ _____ _____    ______ ____
ROOT
ATOM      1  C   UNL     1       2.304   5.392  19.223  0.00  0.00    +0.000 C 
ATOM      2  O   UNL     1       1.769   5.263  18.129  0.00  0.00    +0.000 OA
ATOM      3  N   UNL     1       2.489   6.592  19.903  0.00  0.00    +0.000 N 
ATOM      4  H   UNL     1       3.108   6.580  20.703  0.00  0.00    +0.000 HD
ENDROOT
BRANCH   1  10
ATOM      5  C   UNL     1       4.020   3.530  19.492  0.00  0.00    +0.000 A 
ATOM      6  C   UNL     1       4.415   2.410  20.222  0.00  0.00    +0.000 A 
ATOM      7  N   UNL     1       3.740   1.902  21.275  0.00  0.00    +0.000 NA
ATOM      8  C   UNL     1       2.594   2.517  21.618  0.00  0.00    +0.000 A 
ATOM      9  C   UNL     1       2.108   3.642  20.979  0.00  0.00    +0.000 A 
ATOM     10  C   UNL     1       2.843   4.177  19.913  0.00  0.00    +0.000 A 
BRANCH   5  12
ATOM     11  C   UNL     1       5.957   4.893  18.670  0.00  0.00    +0.000 C 
ATOM     12  C   UNL     1       4.842   3.924  18.291  0.00  0.00    +0.000 C 
ENDBRANCH   5  12
ENDBRANCH   1  10
BRANCH   3  13
ATOM     13  C   UNL     1       1.995   7.863  19.514  0.00  0.00    +0.000 A 
ATOM     14  C   UNL     1       2.096   8.348  18.210  0.00  0.00    +0.000 A 
ATOM     15  C   UNL     1       1.605   9.610  17.879  0.00  0.00    +0.000 A 
ATOM     16  C   UNL     1       1.013  10.413  18.850  0.00  0.00    +0.000 A 
ATOM     17  C   UNL     1       0.894   9.950  20.166  0.00  0.00    +0.000 A 
ATOM     18  C   UNL     1       1.369   8.662  20.487  0.00  0.00    +0.000 A 
BRANCH  17  19
ATOM     19  N   UNL     1       0.319  10.791  21.159  0.00  0.00    +0.000 N 
ATOM     20  C   UNL     1       0.260  12.166  21.179  0.00  0.00    +0.000 A 
ATOM     21  N   UNL     1      -0.324  12.589  22.276  0.00  0.00    +0.000 NA
ATOM     22  N   UNL     1      -0.667  11.489  23.012  0.00  0.00    +0.000 NA
ATOM     23  C   UNL     1      -0.280  10.426  22.340  0.00  0.00    +0.000 A 
ENDBRANCH  17  19
ENDBRANCH   3  13
TORSDOF 4
ENDMDL
MODEL 6
REMARK VINA RESULT:      -7.2      2.462      7.680
REMARK  Name = 
REMARK  5 active torsions:
REMARK  status: ('A' for Active; 'I' for Inactive)
REMARK    1  A    between atoms: C_1  and  C_2
REMARK    2  A    between atoms: C_2  and  C_3
REMARK    3  A    between atoms: C_8  and  C_9
REMARK    4  A    between atoms: N_11  and  C_12
REMARK    5  A    between atoms: C_16  and  N_17
REMARK                            x       y       z     vdW  Elec       q    Type
REMARK                         _______ _______ _______ _____ _____    ______ ____
ROOT
ATOM      1  C   UNL     1       3.190   5.762  19.027  0.00  0.00    +0.000 C 
ATOM      2  O   UNL     1       4.182   6.246  19.557  0.00  0.00    +0.000 OA
ATOM      3  N   UNL     1       2.030   6.452  18.690  0.00  0.00    +0.000 N 
ATOM      4  H   UNL     1       1.222   5.900  18.433  0.00  0.00    +0.000 HD
ENDROOT
BRANCH   1  10
ATOM      5  C   UNL     1       2.378   3.384  19.435  0.00  0.00    +0.000 A 
ATOM      6  C   UNL     1       2.454   2.047  19.047  0.00  0.00    +0.000 A 
ATOM      7  N   UNL     1       3.247   1.578  18.061  0.00  0.00    +0.000 NA
ATOM      8  C   UNL     1       4.031   2.471  17.432  0.00  0.00    +0.000 A 
ATOM      9  C   UNL     1       4.033   3.823  17.719  0.00  0.00    +0.000 A 
ATOM     10  C   UNL     1       3.176   4.297  18.719  0.00  0.00    +0.000 A 
BRANCH   5  12
ATOM     11  C   UNL     1       1.486   2.620  21.650  0.00  0.00    +0.000 C 
ATOM     12  C   UNL     1       1.502   3.736  20.611  0.00  0.00    +0.000 C 
ENDBRANCH   5  12
ENDBRANCH   1  10
BRANCH   3  13
ATOM     13  C   UNL     1       1.824   7.851  18.791  0.00  0.00    +0.000 A 
ATOM     14  C   UNL     1       2.194   8.746  17.787  0.00  0.00    +0.000 A 
ATOM     15  C   UNL     1       1.981  10.115  17.939  0.00  0.00    +0.000 A 
ATOM     16  C   UNL     1       1.403  10.614  19.103  0.00  0.00    +0.000 A 
ATOM     17  C   UNL     1       1.018   9.739  20.126  0.00  0.00    +0.000 A 
ATOM     18  C   UNL     1       1.213   8.353  19.954  0.00  0.00    +0.000 A 
BRANCH  17  19
ATOM     19  N   UNL     1       0.461  10.260  21.327  0.00  0.00    +0.000 N 
ATOM     20  C   UNL     1       0.242   9.603  22.516  0.00  0.00    +0.000 A 
ATOM     21  N   UNL     1      -0.316  10.406  23.393  0.00  0.00    +0.000 NA
ATOM     22  N   UNL     1      -0.478  11.624  22.793  0.00  0.00    +0.000 NA
ATOM     23  C   UNL     1      -0.014  11.526  21.565  0.00  0.00    +0.000 A 
ENDBRANCH  17  19
ENDBRANCH   3  13
TORSDOF 4
ENDMDL
MODEL 7
REMARK VINA RESULT:      -7.2      2.749      8.156
REMARK  Name = 
REMARK  5 active torsions:
REMARK  status: ('A' for Active; 'I' for Inactive)
REMARK    1  A    between atoms: C_1  and  C_2
REMARK    2  A    between atoms: C_2  and  C_3
REMARK    3  A    between atoms: C_8  and  C_9
REMARK    4  A    between atoms: N_11  and  C_12
REMARK    5  A    between atoms: C_16  and  N_17
REMARK                            x       y       z     vdW  Elec       q    Type
REMARK                         _______ _______ _______ _____ _____    ______ ____
ROOT
ATOM      1  C   UNL     1       2.351   5.590  19.231  0.00  0.00    +0.000 C 
ATOM      2  O   UNL     1       1.873   5.513  18.106  0.00  0.00    +0.000 OA
ATOM      3  N   UNL     1       2.453   6.749  19.995  0.00  0.00    +0.000 N 
ATOM      4  H   UNL     1       3.035   6.708  20.821  0.00  0.00    +0.000 HD
ENDROOT
BRANCH   1  10
ATOM      5  C   UNL     1       4.098   3.749  19.424  0.00  0.00    +0.000 A 
ATOM      6  C   UNL     1       4.508   2.603  20.104  0.00  0.00    +0.000 A 
ATOM      7  N   UNL     1       3.836   2.034  21.127  0.00  0.00    +0.000 NA
ATOM      8  C   UNL     1       2.677   2.611  21.490  0.00  0.00    +0.000 A 
ATOM      9  C   UNL     1       2.175   3.757  20.901  0.00  0.00    +0.000 A 
ATOM     10  C   UNL     1       2.907   4.354  19.867  0.00  0.00    +0.000 A 
BRANCH   5  12
ATOM     11  C   UNL     1       4.487   3.525  16.958  0.00  0.00    +0.000 C 
ATOM     12  C   UNL     1       4.920   4.213  18.249  0.00  0.00    +0.000 C 
ENDBRANCH   5  12
ENDBRANCH   1  10
BRANCH   3  13
ATOM     13  C   UNL     1       1.926   8.023  19.664  0.00  0.00    +0.000 A 
ATOM     14  C   UNL     1       2.084   8.605  18.407  0.00  0.00    +0.000 A 
ATOM     15  C   UNL     1       1.556   9.866  18.134  0.00  0.00    +0.000 A 
ATOM     16  C   UNL     1       0.868  10.570  19.118  0.00  0.00    +0.000 A 
ATOM     17  C   UNL     1       0.689  10.009  20.387  0.00  0.00    +0.000 A 
ATOM     18  C   UNL     1       1.204   8.722  20.648  0.00  0.00    +0.000 A 
BRANCH  17  19
ATOM     19  N   UNL     1       0.016  10.750  21.398  0.00  0.00    +0.000 N 
ATOM     20  C   UNL     1      -0.472  10.295  22.602  0.00  0.00    +0.000 A 
ATOM     21  N   UNL     1      -1.059  11.268  23.261  0.00  0.00    +0.000 NA
ATOM     22  N   UNL     1      -0.969  12.398  22.496  0.00  0.00    +0.000 NA
ATOM     23  C   UNL     1      -0.330  12.079  21.391  0.00  0.00    +0.000 A 
ENDBRANCH  17  19
ENDBRANCH   3  13
TORSDOF 4
ENDMDL
MODEL 8
REMARK VINA RESULT:      -7.2      2.304      7.994
REMARK  Name = 
REMARK  5 active torsions:
REMARK  status: ('A' for Active; 'I' for Inactive)
REMARK    1  A    between atoms: C_1  and  C_2
REMARK    2  A    between atoms: C_2  and  C_3
REMARK    3  A    between atoms: C_8  and  C_9
REMARK    4  A    between atoms: N_11  and  C_12
REMARK    5  A    between atoms: C_16  and  N_17
REMARK                            x       y       z     vdW  Elec       q    Type
REMARK                         _______ _______ _______ _____ _____    ______ ____
ROOT
ATOM      1  C   UNL     1       3.182   6.111  18.002  0.00  0.00    +0.000 C 
ATOM      2  O   UNL     1       3.827   6.690  17.137  0.00  0.00    +0.000 OA
ATOM      3  N   UNL     1       2.318   6.712  18.912  0.00  0.00    +0.000 N 
ATOM      4  H   UNL     1       1.997   6.147  19.688  0.00  0.00    +0.000 HD
ENDROOT
BRANCH   1  10
ATOM      5  C   UNL     1       4.452   4.031  18.738  0.00  0.00    +0.000 A 
ATOM      6  C   UNL     1       4.461   2.638  18.807  0.00  0.00    +0.000 A 
ATOM      7  N   UNL     1       3.486   1.839  18.326  0.00  0.00    +0.000 NA
ATOM      8  C   UNL     1       2.449   2.441  17.718  0.00  0.00    +0.000 A 
ATOM      9  C   UNL     1       2.322   3.813  17.600  0.00  0.00    +0.000 A 
ATOM     10  C   UNL     1       3.325   4.627  18.140  0.00  0.00    +0.000 A 
BRANCH   5  12
ATOM     11  C   UNL     1       6.751   4.867  18.191  0.00  0.00    +0.000 C 
ATOM     12  C   UNL     1       5.657   4.778  19.250  0.00  0.00    +0.000 C 
ENDBRANCH   5  12
ENDBRANCH   1  10
BRANCH   3  13
ATOM     13  C   UNL     1       1.939   8.078  18.935  0.00  0.00    +0.000 A 
ATOM     14  C   UNL     1       2.163   8.944  17.866  0.00  0.00    +0.000 A 
ATOM     15  C   UNL     1       1.782  10.283  17.942  0.00  0.00    +0.000 A 
ATOM     16  C   UNL     1       1.179  10.780  19.093  0.00  0.00    +0.000 A 
ATOM     17  C   UNL     1       0.937   9.932  20.181  0.00  0.00    +0.000 A 
ATOM     18  C   UNL     1       1.301   8.573  20.087  0.00  0.00    +0.000 A 
BRANCH  17  19
ATOM     19  N   UNL     1       0.351  10.456  21.367  0.00  0.00    +0.000 N 
ATOM     20  C   UNL     1      -0.016   9.776  22.505  0.00  0.00    +0.000 A 
ATOM     21  N   UNL     1      -0.551  10.594  23.382  0.00  0.00    +0.000 NA
ATOM     22  N   UNL     1      -0.547  11.847  22.834  0.00  0.00    +0.000 NA
ATOM     23  C   UNL     1      -0.010  11.754  21.636  0.00  0.00    +0.000 A 
ENDBRANCH  17  19
ENDBRANCH   3  13
TORSDOF 4
ENDMDL
MODEL 9
REMARK VINA RESULT:      -7.2      2.078      7.581
REMARK  Name = 
REMARK  5 active torsions:
REMARK  status: ('A' for Active; 'I' for Inactive)
REMARK    1  A    between atoms: C_1  and  C_2
REMARK    2  A    between atoms: C_2  and  C_3
REMARK    3  A    between atoms: C_8  and  C_9
REMARK    4  A    between atoms: N_11  and  C_12
REMARK    5  A    between atoms: C_16  and  N_17
REMARK                            x       y       z     vdW  Elec       q    Type
REMARK                         _______ _______ _______ _____ _____    ______ ____
ROOT
ATOM      1  C   UNL     1       3.124   6.387  17.829  0.00  0.00    +0.000 C 
ATOM      2  O   UNL     1       2.162   5.634  17.912  0.00  0.00    +0.000 OA
ATOM      3  N   UNL     1       3.092   7.769  17.982  0.00  0.00    +0.000 N 
ATOM      4  H   UNL     1       3.917   8.285  17.704  0.00  0.00    +0.000 HD
ENDROOT
BRANCH   1  10
ATOM      5  C   UNL     1       5.142   4.939  18.394  0.00  0.00    +0.000 A 
ATOM      6  C   UNL     1       6.387   4.470  17.980  0.00  0.00    +0.000 A 
ATOM      7  N   UNL     1       6.989   4.808  16.820  0.00  0.00    +0.000 NA
ATOM      8  C   UNL     1       6.340   5.680  16.028  0.00  0.00    +0.000 A 
ATOM      9  C   UNL     1       5.095   6.202  16.324  0.00  0.00    +0.000 A 
ATOM     10  C   UNL     1       4.469   5.810  17.514  0.00  0.00    +0.000 A 
BRANCH   5  12
ATOM     11  C   UNL     1       3.936   3.179  19.709  0.00  0.00    +0.000 C 
ATOM     12  C   UNL     1       4.642   4.530  19.756  0.00  0.00    +0.000 C 
ENDBRANCH   5  12
ENDBRANCH   1  10
BRANCH   3  13
ATOM     13  C   UNL     1       1.971   8.546  18.370  0.00  0.00    +0.000 A 
ATOM     14  C   UNL     1       1.115   9.152  17.452  0.00  0.00    +0.000 A 
ATOM     15  C   UNL     1       0.032   9.916  17.884  0.00  0.00    +0.000 A 
ATOM     16  C   UNL     1      -0.207  10.095  19.244  0.00  0.00    +0.000 A 
ATOM     17  C   UNL     1       0.633   9.494  20.189  0.00  0.00    +0.000 A 
ATOM     18  C   UNL     1       1.711   8.701  19.744  0.00  0.00    +0.000 A 
BRANCH  17  19
ATOM     19  N   UNL     1       0.403   9.710  21.576  0.00  0.00    +0.000 N 
ATOM     20  C   UNL     1       1.075   9.162  22.645  0.00  0.00    +0.000 A 
ATOM     21  N   UNL     1       0.560   9.577  23.779  0.00  0.00    +0.000 NA
ATOM     22  N   UNL     1      -0.476  10.417  23.479  0.00  0.00    +0.000 NA
ATOM     23  C   UNL     1      -0.562  10.489  22.167  0.00  0.00    +0.000 A 
ENDBRANCH  17  19
ENDBRANCH   3  13
TORSDOF 4
ENDMDL
