MODEL 1
REMARK VINA RESULT:      -6.6      0.000      0.000
REMARK  Name = 
REMARK  10 active torsions:
REMARK  status: ('A' for Active; 'I' for Inactive)
REMARK    1  A    between atoms: C_1  and  C_2
REMARK    2  A    between atoms: C_2  and  N_3
REMARK    3  A    between atoms: C_4  and  C_5
REMARK    4  A    between atoms: C_8  and  S_9
REMARK    5  A    between atoms: S_9  and  C_10
REMARK    6  A    between atoms: C_10  and  C_11
REMARK    7  A    between atoms: C_11  and  N_12
REMARK    8  A    between atoms: N_12  and  C_13
REMARK    9  A    between atoms: C_15  and  C_16
REMARK   10  A    between atoms: N_22  and  C_23
REMARK                            x       y       z     vdW  Elec       q    Type
REMARK                         _______ _______ _______ _____ _____    ______ ____
ROOT
ATOM      1  N   UNL     1       2.411   6.049  20.405  0.00  0.00    +0.000 N 
ATOM      2  H   UNL     1       3.252   6.172  20.963  0.00  0.00    +0.000 HD
ENDROOT
BRANCH   1   3
ATOM      3  C   UNL     1       1.699   7.243  20.269  0.00  0.00    +0.000 A 
ATOM      4  N   UNL     1       0.944   7.643  21.346  0.00  0.00    +0.000 NA
ATOM      5  C   UNL     1       0.487   8.899  21.394  0.00  0.00    +0.000 A 
ATOM      6  C   UNL     1       1.222   9.758  22.397  0.00  0.00    +0.000 C 
ATOM      7  N   UNL     1       0.180   9.640  20.319  0.00  0.00    +0.000 NA
ATOM      8  C   UNL     1       1.029   9.336  19.332  0.00  0.00    +0.000 A 
ATOM      9  C   UNL     1       1.817   8.202  19.224  0.00  0.00    +0.000 A 
ATOM     10  C   UNL     1       2.537   8.453  18.030  0.00  0.00    +0.000 A 
ATOM     11  N   UNL     1       2.377   9.706  17.559  0.00  0.00    +0.000 NA
ATOM     12  N   UNL     1       1.494  10.248  18.426  0.00  0.00    +0.000 N 
ATOM     13  C   UNL     1       1.474  11.673  18.690  0.00  0.00    +0.000 C 
ENDBRANCH   1   3
BRANCH   1  14
ATOM     14  C   UNL     1       1.648   4.802  20.716  0.00  0.00    +0.000 C 
BRANCH  14  15
ATOM     15  C   UNL     1       2.555   3.779  21.439  0.00  0.00    +0.000 C 
BRANCH  15  16
ATOM     16  S   UNL     1       3.449   2.542  20.411  0.00  0.00    +0.000 S 
BRANCH  16  22
ATOM     17  N   UNL     1       3.949   3.518  17.875  0.00  0.00    +0.000 N 
ATOM     18  C   UNL     1       5.012   4.112  17.224  0.00  0.00    +0.000 A 
ATOM     19  C   UNL     1       5.133   4.354  15.759  0.00  0.00    +0.000 C 
ATOM     20  N   UNL     1       5.931   4.419  18.119  0.00  0.00    +0.000 NA
ATOM     21  N   UNL     1       5.503   3.983  19.359  0.00  0.00    +0.000 NA
ATOM     22  C   UNL     1       4.332   3.418  19.201  0.00  0.00    +0.000 A 
BRANCH  17  24
ATOM     23  C   UNL     1       1.624   4.271  17.395  0.00  0.00    +0.000 C 
ATOM     24  C   UNL     1       2.673   3.179  17.279  0.00  0.00    +0.000 C 
ENDBRANCH  17  24
ENDBRANCH  16  22
ENDBRANCH  15  16
ENDBRANCH  14  15
ENDBRANCH   1  14
TORSDOF 6
ENDMDL
MODEL 2
REMARK VINA RESULT:      -6.6      1.852      6.244
REMARK  Name = 
REMARK  10 active torsions:
REMARK  status: ('A' for Active; 'I' for Inactive)
REMARK    1  A    between atoms: C_1  and  C_2
REMARK    2  A    between atoms: C_2  and  N_3
REMARK    3  A    between atoms: C_4  and  C_5
REMARK    4  A    between atoms: C_8  and  S_9
REMARK    5  A    between atoms: S_9  and  C_10
REMARK    6  A    between atoms: C_10  and  C_11
REMARK    7  A    between atoms: C_11  and  N_12
REMARK    8  A    between atoms: N_12  and  C_13
REMARK    9  A    between atoms: C_15  and  C_16
REMARK   10  A    between atoms: N_22  and  C_23
REMARK                            x       y       z     vdW  Elec       q    Type
REMARK                         _______ _______ _______ _____ _____    ______ ____
ROOT
ATOM      1  N   UNL     1       3.286   3.309  17.357  0.00  0.00    +0.000 N 
ATOM      2  H   UNL     1       3.068   2.572  16.692  0.00  0.00    +0.000 HD
ENDROOT
BRANCH   1   3
ATOM      3  C   UNL     1       4.528   3.893  17.096  0.00  0.00    +0.000 A 
ATOM      4  N   UNL     1       4.803   4.211  15.786  0.00  0.00    +0.000 NA
ATOM      5  C   UNL     1       5.825   5.029  15.513  0.00  0.00    +0.000 A 
ATOM      6  C   UNL     1       5.380   6.411  15.092  0.00  0.00    +0.000 C 
ATOM      7  N   UNL     1       6.939   5.129  16.252  0.00  0.00    +0.000 NA
ATOM      8  C   UNL     1       6.617   4.965  17.539  0.00  0.00    +0.000 A 
ATOM      9  C   UNL     1       5.466   4.385  18.047  0.00  0.00    +0.000 A 
ATOM     10  C   UNL     1       5.646   4.541  19.444  0.00  0.00    +0.000 A 
ATOM     11  N   UNL     1       6.692   5.327  19.766  0.00  0.00    +0.000 NA
ATOM     12  N   UNL     1       7.229   5.631  18.564  0.00  0.00    +0.000 N 
ATOM     13  C   UNL     1       7.956   6.866  18.353  0.00  0.00    +0.000 C 
ENDBRANCH   1   3
BRANCH   1  14
ATOM     14  C   UNL     1       2.946   2.976  18.774  0.00  0.00    +0.000 C 
BRANCH  14  15
ATOM     15  C   UNL     1       1.776   3.858  19.270  0.00  0.00    +0.000 C 
BRANCH  15  16
ATOM     16  S   UNL     1       2.165   5.236  20.425  0.00  0.00    +0.000 S 
BRANCH  16  22
ATOM     17  N   UNL     1       1.778   7.918  19.885  0.00  0.00    +0.000 N 
ATOM     18  C   UNL     1       1.870   8.738  18.778  0.00  0.00    +0.000 A 
ATOM     19  C   UNL     1       1.383  10.142  18.670  0.00  0.00    +0.000 C 
ATOM     20  N   UNL     1       2.450   8.063  17.805  0.00  0.00    +0.000 NA
ATOM     21  N   UNL     1       2.696   6.777  18.246  0.00  0.00    +0.000 NA
ATOM     22  C   UNL     1       2.265   6.687  19.480  0.00  0.00    +0.000 A 
BRANCH  17  24
ATOM     23  C   UNL     1      -0.156   8.394  21.380  0.00  0.00    +0.000 C 
ATOM     24  C   UNL     1       1.351   8.325  21.208  0.00  0.00    +0.000 C 
ENDBRANCH  17  24
ENDBRANCH  16  22
ENDBRANCH  15  16
ENDBRANCH  14  15
ENDBRANCH   1  14
TORSDOF 6
ENDMDL
MODEL 3
REMARK VINA RESULT:      -6.5      2.131      3.828
REMARK  Name = 
REMARK  10 active torsions:
REMARK  status: ('A' for Active; 'I' for Inactive)
REMARK    1  A    between atoms: C_1  and  C_2
REMARK    2  A    between atoms: C_2  and  N_3
REMARK    3  A    between atoms: C_4  and  C_5
REMARK    4  A    between atoms: C_8  and  S_9
REMARK    5  A    between atoms: S_9  and  C_10
REMARK    6  A    between atoms: C_10  and  C_11
REMARK    7  A    between atoms: C_11  and  N_12
REMARK    8  A    between atoms: N_12  and  C_13
REMARK    9  A    between atoms: C_15  and  C_16
REMARK   10  A    between atoms: N_22  and  C_23
REMARK                            x       y       z     vdW  Elec       q    Type
REMARK                         _______ _______ _______ _____ _____    ______ ____
ROOT
ATOM      1  N   UNL     1       1.520   8.533  19.356  0.00  0.00    +0.000 N 
ATOM      2  H   UNL     1       0.892   7.734  19.367  0.00  0.00    +0.000 HD
ENDROOT
BRANCH   1   3
ATOM      3  C   UNL     1       0.906   9.683  19.857  0.00  0.00    +0.000 A 
ATOM      4  N   UNL     1       0.402  10.571  18.936  0.00  0.00    +0.000 NA
ATOM      5  C   UNL     1      -0.447  11.522  19.341  0.00  0.00    +0.000 A 
ATOM      6  C   UNL     1      -1.875  11.258  18.924  0.00  0.00    +0.000 C 
ATOM      7  N   UNL     1      -0.438  12.082  20.559  0.00  0.00    +0.000 NA
ATOM      8  C   UNL     1      -0.089  11.154  21.456  0.00  0.00    +0.000 A 
ATOM      9  C   UNL     1       0.557   9.953  21.210  0.00  0.00    +0.000 A 
ATOM     10  C   UNL     1       0.604   9.372  22.502  0.00  0.00    +0.000 A 
ATOM     11  N   UNL     1      -0.126  10.039  23.418  0.00  0.00    +0.000 NA
ATOM     12  N   UNL     1      -0.600  11.096  22.723  0.00  0.00    +0.000 N 
ATOM     13  C   UNL     1      -1.853  11.732  23.077  0.00  0.00    +0.000 C 
ENDBRANCH   1   3
BRANCH   1  14
ATOM     14  C   UNL     1       2.335   8.653  18.110  0.00  0.00    +0.000 C 
BRANCH  14  15
ATOM     15  C   UNL     1       3.168   7.370  17.882  0.00  0.00    +0.000 C 
BRANCH  15  16
ATOM     16  S   UNL     1       2.334   5.747  18.121  0.00  0.00    +0.000 S 
BRANCH  16  22
ATOM     17  N   UNL     1       3.269   3.418  19.278  0.00  0.00    +0.000 N 
ATOM     18  C   UNL     1       4.490   2.935  19.705  0.00  0.00    +0.000 A 
ATOM     19  C   UNL     1       4.724   1.712  20.524  0.00  0.00    +0.000 C 
ATOM     20  N   UNL     1       5.435   3.752  19.281  0.00  0.00    +0.000 NA
ATOM     21  N   UNL     1       4.840   4.809  18.618  0.00  0.00    +0.000 NA
ATOM     22  C   UNL     1       3.544   4.619  18.646  0.00  0.00    +0.000 A 
BRANCH  17  24
ATOM     23  C   UNL     1       1.229   3.067  20.661  0.00  0.00    +0.000 C 
ATOM     24  C   UNL     1       1.999   2.733  19.395  0.00  0.00    +0.000 C 
ENDBRANCH  17  24
ENDBRANCH  16  22
ENDBRANCH  15  16
ENDBRANCH  14  15
ENDBRANCH   1  14
TORSDOF 6
ENDMDL
MODEL 4
REMARK VINA RESULT:      -6.4      2.918      7.911
REMARK  Name = 
REMARK  10 active torsions:
REMARK  status: ('A' for Active; 'I' for Inactive)
REMARK    1  A    between atoms: C_1  and  C_2
REMARK    2  A    between atoms: C_2  and  N_3
REMARK    3  A    between atoms: C_4  and  C_5
REMARK    4  A    between atoms: C_8  and  S_9
REMARK    5  A    between atoms: S_9  and  C_10
REMARK    6  A    between atoms: C_10  and  C_11
REMARK    7  A    between atoms: C_11  and  N_12
REMARK    8  A    between atoms: N_12  and  C_13
REMARK    9  A    between atoms: C_15  and  C_16
REMARK   10  A    between atoms: N_22  and  C_23
REMARK                            x       y       z     vdW  Elec       q    Type
REMARK                         _______ _______ _______ _____ _____    ______ ____
ROOT
ATOM      1  N   UNL     1       2.314   7.453  18.758  0.00  0.00    +0.000 N 
ATOM      2  H   UNL     1       2.657   7.561  19.708  0.00  0.00    +0.000 HD
ENDROOT
BRANCH   1   3
ATOM      3  C   UNL     1       2.789   6.281  18.165  0.00  0.00    +0.000 A 
ATOM      4  N   UNL     1       3.960   6.376  17.449  0.00  0.00    +0.000 NA
ATOM      5  C   UNL     1       4.615   5.258  17.117  0.00  0.00    +0.000 A 
ATOM      6  C   UNL     1       5.871   5.046  17.929  0.00  0.00    +0.000 C 
ATOM      7  N   UNL     1       4.032   4.073  16.886  0.00  0.00    +0.000 NA
ATOM      8  C   UNL     1       2.982   3.944  17.704  0.00  0.00    +0.000 A 
ATOM      9  C   UNL     1       2.318   4.956  18.379  0.00  0.00    +0.000 A 
ATOM     10  C   UNL     1       1.353   4.231  19.123  0.00  0.00    +0.000 A 
ATOM     11  N   UNL     1       1.538   2.897  19.086  0.00  0.00    +0.000 NA
ATOM     12  N   UNL     1       2.596   2.756  18.259  0.00  0.00    +0.000 N 
ATOM     13  C   UNL     1       3.502   1.631  18.376  0.00  0.00    +0.000 C 
ENDBRANCH   1   3
BRANCH   1  14
ATOM     14  C   UNL     1       2.336   8.712  17.952  0.00  0.00    +0.000 C 
BRANCH  14  15
ATOM     15  C   UNL     1       1.087   9.571  18.257  0.00  0.00    +0.000 C 
BRANCH  15  16
ATOM     16  S   UNL     1       1.330  11.159  19.153  0.00  0.00    +0.000 S 
BRANCH  16  22
ATOM     17  N   UNL     1      -0.698  11.739  20.939  0.00  0.00    +0.000 N 
ATOM     18  C   UNL     1      -0.939  11.525  22.281  0.00  0.00    +0.000 A 
ATOM     19  C   UNL     1      -2.022  12.139  23.098  0.00  0.00    +0.000 C 
ATOM     20  N   UNL     1      -0.028  10.689  22.741  0.00  0.00    +0.000 NA
ATOM     21  N   UNL     1       0.851  10.387  21.718  0.00  0.00    +0.000 NA
ATOM     22  C   UNL     1       0.463  11.042  20.652  0.00  0.00    +0.000 A 
BRANCH  17  24
ATOM     23  C   UNL     1      -2.344  11.578  19.078  0.00  0.00    +0.000 C 
ATOM     24  C   UNL     1      -1.559  12.465  20.029  0.00  0.00    +0.000 C 
ENDBRANCH  17  24
ENDBRANCH  16  22
ENDBRANCH  15  16
ENDBRANCH  14  15
ENDBRANCH   1  14
TORSDOF 6
ENDMDL
MODEL 5
REMARK VINA RESULT:      -6.3      2.860      7.590
REMARK  Name = 
REMARK  10 active torsions:
REMARK  status: ('A' for Active; 'I' for Inactive)
REMARK    1  A    between atoms: C_1  and  C_2
REMARK    2  A    between atoms: C_2  and  N_3
REMARK    3  A    between atoms: C_4  and  C_5
REMARK    4  A    between atoms: C_8  and  S_9
REMARK    5  A    between atoms: S_9  and  C_10
REMARK    6  A    between atoms: C_10  and  C_11
REMARK    7  A    between atoms: C_11  and  N_12
REMARK    8  A    between atoms: N_12  and  C_13
REMARK    9  A    between atoms: C_15  and  C_16
REMARK   10  A    between atoms: N_22  and  C_23
REMARK                            x       y       z     vdW  Elec       q    Type
REMARK                         _______ _______ _______ _____ _____    ______ ____
ROOT
ATOM      1  N   UNL     1       2.439   7.483  18.073  0.00  0.00    +0.000 N 
ATOM      2  H   UNL     1       1.982   7.319  17.180  0.00  0.00    +0.000 HD
ENDROOT
BRANCH   1   3
ATOM      3  C   UNL     1       2.758   6.287  18.720  0.00  0.00    +0.000 A 
ATOM      4  N   UNL     1       2.155   6.057  19.934  0.00  0.00    +0.000 NA
ATOM      5  C   UNL     1       2.181   4.825  20.453  0.00  0.00    +0.000 A 
ATOM      6  C   UNL     1       0.847   4.120  20.373  0.00  0.00    +0.000 C 
ATOM      7  N   UNL     1       3.164   3.935  20.254  0.00  0.00    +0.000 NA
ATOM      8  C   UNL     1       3.631   4.082  19.010  0.00  0.00    +0.000 A 
ATOM      9  C   UNL     1       3.477   5.183  18.183  0.00  0.00    +0.000 A 
ATOM     10  C   UNL     1       4.116   4.752  16.994  0.00  0.00    +0.000 A 
ATOM     11  N   UNL     1       4.442   3.444  17.003  0.00  0.00    +0.000 NA
ATOM     12  N   UNL     1       4.065   3.042  18.236  0.00  0.00    +0.000 N 
ATOM     13  C   UNL     1       3.668   1.673  18.496  0.00  0.00    +0.000 C 
ENDBRANCH   1   3
BRANCH   1  14
ATOM     14  C   UNL     1       1.829   8.583  18.880  0.00  0.00    +0.000 C 
BRANCH  14  15
ATOM     15  C   UNL     1       1.546   9.815  17.989  0.00  0.00    +0.000 C 
BRANCH  15  16
ATOM     16  S   UNL     1       1.579  11.476  18.779  0.00  0.00    +0.000 S 
BRANCH  16  22
ATOM     17  N   UNL     1      -0.714  11.806  20.286  0.00  0.00    +0.000 N 
ATOM     18  C   UNL     1      -1.047  11.753  21.625  0.00  0.00    +0.000 A 
ATOM     19  C   UNL     1      -2.328  12.198  22.241  0.00  0.00    +0.000 C 
ATOM     20  N   UNL     1      -0.022  11.254  22.290  0.00  0.00    +0.000 NA
ATOM     21  N   UNL     1       1.012  11.025  21.402  0.00  0.00    +0.000 NA
ATOM     22  C   UNL     1       0.602  11.385  20.211  0.00  0.00    +0.000 A 
BRANCH  17  24
ATOM     23  C   UNL     1      -2.201  10.933  18.489  0.00  0.00    +0.000 C 
ATOM     24  C   UNL     1      -1.615  12.139  19.203  0.00  0.00    +0.000 C 
ENDBRANCH  17  24
ENDBRANCH  16  22
ENDBRANCH  15  16
ENDBRANCH  14  15
ENDBRANCH   1  14
TORSDOF 6
ENDMDL
MODEL 6
REMARK VINA RESULT:      -6.3      6.108      9.218
REMARK  Name = 
REMARK  10 active torsions:
REMARK  status: ('A' for Active; 'I' for Inactive)
REMARK    1  A    between atoms: C_1  and  C_2
REMARK    2  A    between atoms: C_2  and  N_3
REMARK    3  A    between atoms: C_4  and  C_5
REMARK    4  A    between atoms: C_8  and  S_9
REMARK    5  A    between atoms: S_9  and  C_10
REMARK    6  A    between atoms: C_10  and  C_11
REMARK    7  A    between atoms: C_11  and  N_12
REMARK    8  A    between atoms: N_12  and  C_13
REMARK    9  A    between atoms: C_15  and  C_16
REMARK   10  A    between atoms: N_22  and  C_23
REMARK                            x       y       z     vdW  Elec       q    Type
REMARK                         _______ _______ _______ _____ _____    ______ ____
ROOT
ATOM      1  N   UNL     1       7.769   7.162  17.920  0.00  0.00    +0.000 N 
ATOM      2  H   UNL     1       8.648   6.660  17.840  0.00  0.00    +0.000 HD
ENDROOT
BRANCH   1   3
ATOM      3  C   UNL     1       6.704   6.434  17.384  0.00  0.00    +0.000 A 
ATOM      4  N   UNL     1       6.661   6.312  16.015  0.00  0.00    +0.000 NA
ATOM      5  C   UNL     1       5.856   5.395  15.466  0.00  0.00    +0.000 A 
ATOM      6  C   UNL     1       6.606   4.205  14.914  0.00  0.00    +0.000 C 
ATOM      7  N   UNL     1       4.699   4.980  16.000  0.00  0.00    +0.000 NA
ATOM      8  C   UNL     1       4.820   4.965  17.331  0.00  0.00    +0.000 A 
ATOM      9  C   UNL     1       5.767   5.631  18.093  0.00  0.00    +0.000 A 
ATOM     10  C   UNL     1       5.448   5.202  19.405  0.00  0.00    +0.000 A 
ATOM     11  N   UNL     1       4.540   4.206  19.438  0.00  0.00    +0.000 NA
ATOM     12  N   UNL     1       4.224   4.035  18.136  0.00  0.00    +0.000 N 
ATOM     13  C   UNL     1       3.780   2.752  17.630  0.00  0.00    +0.000 C 
ENDBRANCH   1   3
BRANCH   1  14
ATOM     14  C   UNL     1       7.864   8.618  17.595  0.00  0.00    +0.000 C 
BRANCH  14  15
ATOM     15  C   UNL     1       8.705   9.356  18.662  0.00  0.00    +0.000 C 
BRANCH  15  16
ATOM     16  S   UNL     1       9.419  10.993  18.218  0.00  0.00    +0.000 S 
BRANCH  16  22
ATOM     17  N   UNL     1       9.708  13.299  19.713  0.00  0.00    +0.000 N 
ATOM     18  C   UNL     1       9.916  13.609  21.042  0.00  0.00    +0.000 A 
ATOM     19  C   UNL     1      10.275  14.944  21.597  0.00  0.00    +0.000 C 
ATOM     20  N   UNL     1       9.766  12.509  21.756  0.00  0.00    +0.000 NA
ATOM     21  N   UNL     1       9.509  11.457  20.898  0.00  0.00    +0.000 NA
ATOM     22  C   UNL     1       9.506  11.930  19.676  0.00  0.00    +0.000 A 
BRANCH  17  24
ATOM     23  C   UNL     1      10.932  14.468  17.887  0.00  0.00    +0.000 C 
ATOM     24  C   UNL     1       9.623  14.250  18.625  0.00  0.00    +0.000 C 
ENDBRANCH  17  24
ENDBRANCH  16  22
ENDBRANCH  15  16
ENDBRANCH  14  15
ENDBRANCH   1  14
TORSDOF 6
ENDMDL
MODEL 7
REMARK VINA RESULT:      -6.3      2.748      7.187
REMARK  Name = 
REMARK  10 active torsions:
REMARK  status: ('A' for Active; 'I' for Inactive)
REMARK    1  A    between atoms: C_1  and  C_2
REMARK    2  A    between atoms: C_2  and  N_3
REMARK    3  A    between atoms: C_4  and  C_5
REMARK    4  A    between atoms: C_8  and  S_9
REMARK    5  A    between atoms: S_9  and  C_10
REMARK    6  A    between atoms: C_10  and  C_11
REMARK    7  A    between atoms: C_11  and  N_12
REMARK    8  A    between atoms: N_12  and  C_13
REMARK    9  A    between atoms: C_15  and  C_16
REMARK   10  A    between atoms: N_22  and  C_23
REMARK                            x       y       z     vdW  Elec       q    Type
REMARK                         _______ _______ _______ _____ _____    ______ ____
ROOT
ATOM      1  N   UNL     1       1.739   7.081  21.193  0.00  0.00    +0.000 N 
ATOM      2  H   UNL     1       2.441   6.945  21.914  0.00  0.00    +0.000 HD
ENDROOT
BRANCH   1   3
ATOM      3  C   UNL     1       1.935   6.223  20.109  0.00  0.00    +0.000 A 
ATOM      4  N   UNL     1       2.551   6.754  18.999  0.00  0.00    +0.000 NA
ATOM      5  C   UNL     1       3.031   5.930  18.062  0.00  0.00    +0.000 A 
ATOM      6  C   UNL     1       4.539   5.839  18.071  0.00  0.00    +0.000 C 
ATOM      7  N   UNL     1       2.517   4.727  17.768  0.00  0.00    +0.000 NA
ATOM      8  C   UNL     1       2.060   4.169  18.894  0.00  0.00    +0.000 A 
ATOM      9  C   UNL     1       1.759   4.811  20.084  0.00  0.00    +0.000 A 
ATOM     10  C   UNL     1       1.387   3.728  20.920  0.00  0.00    +0.000 A 
ATOM     11  N   UNL     1       1.639   2.521  20.378  0.00  0.00    +0.000 NA
ATOM     12  N   UNL     1       2.121   2.828  19.154  0.00  0.00    +0.000 N 
ATOM     13  C   UNL     1       3.049   1.953  18.466  0.00  0.00    +0.000 C 
ENDBRANCH   1   3
BRANCH   1  14
ATOM     14  C   UNL     1       1.419   8.514  20.912  0.00  0.00    +0.000 C 
BRANCH  14  15
ATOM     15  C   UNL     1      -0.060   8.814  21.251  0.00  0.00    +0.000 C 
BRANCH  15  16
ATOM     16  S   UNL     1      -0.494  10.521  21.783  0.00  0.00    +0.000 S 
BRANCH  16  22
ATOM     17  N   UNL     1       0.640  11.626  19.518  0.00  0.00    +0.000 N 
ATOM     18  C   UNL     1       1.687  12.482  19.240  0.00  0.00    +0.000 A 
ATOM     19  C   UNL     1       2.270  12.766  17.899  0.00  0.00    +0.000 C 
ATOM     20  N   UNL     1       2.111  13.005  20.374  0.00  0.00    +0.000 NA
ATOM     21  N   UNL     1       1.383  12.457  21.413  0.00  0.00    +0.000 NA
ATOM     22  C   UNL     1       0.526  11.611  20.897  0.00  0.00    +0.000 A 
BRANCH  17  24
ATOM     23  C   UNL     1      -1.466  11.752  18.195  0.00  0.00    +0.000 C 
ATOM     24  C   UNL     1      -0.206  10.976  18.538  0.00  0.00    +0.000 C 
ENDBRANCH  17  24
ENDBRANCH  16  22
ENDBRANCH  15  16
ENDBRANCH  14  15
ENDBRANCH   1  14
TORSDOF 6
ENDMDL
MODEL 8
REMARK VINA RESULT:      -6.3      2.033      3.745
REMARK  Name = 
REMARK  10 active torsions:
REMARK  status: ('A' for Active; 'I' for Inactive)
REMARK    1  A    between atoms: C_1  and  C_2
REMARK    2  A    between atoms: C_2  and  N_3
REMARK    3  A    between atoms: C_4  and  C_5
REMARK    4  A    between atoms: C_8  and  S_9
REMARK    5  A    between atoms: S_9  and  C_10
REMARK    6  A    between atoms: C_10  and  C_11
REMARK    7  A    between atoms: C_11  and  N_12
REMARK    8  A    between atoms: N_12  and  C_13
REMARK    9  A    between atoms: C_15  and  C_16
REMARK   10  A    between atoms: N_22  and  C_23
REMARK                            x       y       z     vdW  Elec       q    Type
REMARK                         _______ _______ _______ _____ _____    ______ ____
ROOT
ATOM      1  N   UNL     1       1.101   9.407  17.871  0.00  0.00    +0.000 N 
ATOM      2  H   UNL     1       0.698   9.638  16.968  0.00  0.00    +0.000 HD
ENDROOT
BRANCH   1   3
ATOM      3  C   UNL     1       0.637  10.256  18.879  0.00  0.00    +0.000 A 
ATOM      4  N   UNL     1      -0.069  11.367  18.480  0.00  0.00    +0.000 NA
ATOM      5  C   UNL     1      -0.785  12.045  19.383  0.00  0.00    +0.000 A 
ATOM      6  C   UNL     1      -2.274  11.830  19.241  0.00  0.00    +0.000 C 
ATOM      7  N   UNL     1      -0.475  12.143  20.683  0.00  0.00    +0.000 NA
ATOM      8  C   UNL     1       0.075  10.991  21.082  0.00  0.00    +0.000 A 
ATOM      9  C   UNL     1       0.631  10.008  20.280  0.00  0.00    +0.000 A 
ATOM     10  C   UNL     1       0.988   9.018  21.229  0.00  0.00    +0.000 A 
ATOM     11  N   UNL     1       0.509   9.262  22.465  0.00  0.00    +0.000 NA
ATOM     12  N   UNL     1      -0.111  10.453  22.325  0.00  0.00    +0.000 N 
ATOM     13  C   UNL     1      -1.234  10.823  23.162  0.00  0.00    +0.000 C 
ENDBRANCH   1   3
BRANCH   1  14
ATOM     14  C   UNL     1       2.561   9.093  17.829  0.00  0.00    +0.000 C 
BRANCH  14  15
ATOM     15  C   UNL     1       2.794   7.575  18.015  0.00  0.00    +0.000 C 
BRANCH  15  16
ATOM     16  S   UNL     1       4.216   6.806  17.138  0.00  0.00    +0.000 S 
BRANCH  16  22
ATOM     17  N   UNL     1       4.013   4.252  18.173  0.00  0.00    +0.000 N 
ATOM     18  C   UNL     1       4.641   3.522  19.163  0.00  0.00    +0.000 A 
ATOM     19  C   UNL     1       4.203   2.208  19.711  0.00  0.00    +0.000 C 
ATOM     20  N   UNL     1       5.701   4.194  19.569  0.00  0.00    +0.000 NA
ATOM     21  N   UNL     1       5.750   5.396  18.889  0.00  0.00    +0.000 NA
ATOM     22  C   UNL     1       4.722   5.438  18.078  0.00  0.00    +0.000 A 
BRANCH  17  24
ATOM     23  C   UNL     1       1.539   4.108  17.934  0.00  0.00    +0.000 C 
ATOM     24  C   UNL     1       2.909   3.796  17.356  0.00  0.00    +0.000 C 
ENDBRANCH  17  24
ENDBRANCH  16  22
ENDBRANCH  15  16
ENDBRANCH  14  15
ENDBRANCH   1  14
TORSDOF 6
ENDMDL
MODEL 9
REMARK VINA RESULT:      -6.3      2.408      7.056
REMARK  Name = 
REMARK  10 active torsions:
REMARK  status: ('A' for Active; 'I' for Inactive)
REMARK    1  A    between atoms: C_1  and  C_2
REMARK    2  A    between atoms: C_2  and  N_3
REMARK    3  A    between atoms: C_4  and  C_5
REMARK    4  A    between atoms: C_8  and  S_9
REMARK    5  A    between atoms: S_9  and  C_10
REMARK    6  A    between atoms: C_10  and  C_11
REMARK    7  A    between atoms: C_11  and  N_12
REMARK    8  A    between atoms: N_12  and  C_13
REMARK    9  A    between atoms: C_15  and  C_16
REMARK   10  A    between atoms: N_22  and  C_23
REMARK                            x       y       z     vdW  Elec       q    Type
REMARK                         _______ _______ _______ _____ _____    ______ ____
ROOT
ATOM      1  N   UNL     1       2.112   6.304  19.334  0.00  0.00    +0.000 N 
ATOM      2  H   UNL     1       1.472   5.721  19.865  0.00  0.00    +0.000 HD
ENDROOT
BRANCH   1   3
ATOM      3  C   UNL     1       3.333   5.665  19.110  0.00  0.00    +0.000 A 
ATOM      4  N   UNL     1       3.546   4.480  19.775  0.00  0.00    +0.000 NA
ATOM      5  C   UNL     1       4.544   3.681  19.382  0.00  0.00    +0.000 A 
ATOM      6  C   UNL     1       4.063   2.450  18.651  0.00  0.00    +0.000 C 
ATOM      7  N   UNL     1       5.688   4.107  18.828  0.00  0.00    +0.000 NA
ATOM      8  C   UNL     1       5.425   5.172  18.064  0.00  0.00    +0.000 A 
ATOM      9  C   UNL     1       4.304   5.985  18.120  0.00  0.00    +0.000 A 
ATOM     10  C   UNL     1       4.542   6.892  17.057  0.00  0.00    +0.000 A 
ATOM     11  N   UNL     1       5.591   6.548  16.283  0.00  0.00    +0.000 NA
ATOM     12  N   UNL     1       6.071   5.442  16.890  0.00  0.00    +0.000 N 
ATOM     13  C   UNL     1       6.771   4.415  16.145  0.00  0.00    +0.000 C 
ENDBRANCH   1   3
BRANCH   1  14
ATOM     14  C   UNL     1       2.132   7.737  19.761  0.00  0.00    +0.000 C 
BRANCH  14  15
ATOM     15  C   UNL     1       1.539   7.885  21.182  0.00  0.00    +0.000 C 
BRANCH  15  16
ATOM     16  S   UNL     1      -0.058   8.782  21.360  0.00  0.00    +0.000 S 
BRANCH  16  22
ATOM     17  N   UNL     1       0.288  10.999  19.747  0.00  0.00    +0.000 N 
ATOM     18  C   UNL     1       0.760  12.286  19.906  0.00  0.00    +0.000 A 
ATOM     19  C   UNL     1       1.073  13.258  18.820  0.00  0.00    +0.000 C 
ATOM     20  N   UNL     1       0.913  12.520  21.195  0.00  0.00    +0.000 NA
ATOM     21  N   UNL     1       0.594  11.370  21.893  0.00  0.00    +0.000 NA
ATOM     22  C   UNL     1       0.250  10.455  21.020  0.00  0.00    +0.000 A 
BRANCH  17  24
ATOM     23  C   UNL     1      -1.635  10.626  18.210  0.00  0.00    +0.000 C 
ATOM     24  C   UNL     1      -0.161  10.409  18.503  0.00  0.00    +0.000 C 
ENDBRANCH  17  24
ENDBRANCH  16  22
ENDBRANCH  15  16
ENDBRANCH  14  15
ENDBRANCH   1  14
TORSDOF 6
ENDMDL
