MODEL 1
REMARK VINA RESULT:      -8.7      0.000      0.000
REMARK  Name = 
REMARK  7 active torsions:
REMARK  status: ('A' for Active; 'I' for Inactive)
REMARK    1  A    between atoms: C_2  and  C_3
REMARK    2  A    between atoms: C_3  and  N_4
REMARK    3  A    between atoms: C_6  and  C_7
REMARK    4  A    between atoms: C_9  and  C_10
REMARK    5  A    between atoms: C_10  and  C_11
REMARK    6  A    between atoms: C_14  and  C_15
REMARK    7  A    between atoms: C_18  and  N_19
REMARK                            x       y       z     vdW  Elec       q    Type
REMARK                         _______ _______ _______ _____ _____    ______ ____
ROOT
ATOM      1  C   UNL     1       2.579   5.313  19.486  0.00  0.00    +0.000 C 
ATOM      2  C   UNL     1       1.442   4.285  19.090  0.00  0.00    +0.000 C 
ATOM      3  C   UNL     1       1.061   4.215  20.582  0.00  0.00    +0.000 C 
ATOM      4  C   UNL     1       2.516   4.603  20.903  0.00  0.00    +0.000 C 
ENDROOT
BRANCH   1   5
ATOM      5  C   UNL     1       2.156   6.870  19.452  0.00  0.00    +0.000 A 
ATOM      6  C   UNL     1       2.205   7.665  18.300  0.00  0.00    +0.000 A 
ATOM      7  C   UNL     1       1.692   8.967  18.290  0.00  0.00    +0.000 A 
ATOM      8  C   UNL     1       1.126   9.495  19.448  0.00  0.00    +0.000 A 
ATOM      9  N   UNL     1       1.113   8.781  20.601  0.00  0.00    +0.000 NA
ATOM     10  C   UNL     1       1.620   7.520  20.569  0.00  0.00    +0.000 A 
BRANCH   8  11
ATOM     11  C   UNL     1       0.483  10.826  19.474  0.00  0.00    +0.000 A 
ATOM     12  C   UNL     1       0.763  11.786  20.448  0.00  0.00    +0.000 A 
ATOM     13  N   UNL     1       0.157  13.004  20.511  0.00  0.00    +0.000 NA
ATOM     14  C   UNL     1      -0.761  13.251  19.564  0.00  0.00    +0.000 A 
ATOM     15  C   UNL     1      -1.058  12.300  18.591  0.00  0.00    +0.000 A 
ATOM     16  N   UNL     1      -0.446  11.091  18.514  0.00  0.00    +0.000 NA
BRANCH  14  17
ATOM     17  N   UNL     1      -1.430  14.471  19.632  0.00  0.00    +0.000 N 
ATOM     18  H   UNL     1      -1.401  14.881  18.702  0.00  0.00    +0.000 HD
ATOM     19  H   UNL     1      -2.380  14.370  19.972  0.00  0.00    +0.000 HD
ENDBRANCH  14  17
ENDBRANCH   8  11
ENDBRANCH   1   5
BRANCH   1  22
ATOM     20  C   UNL     1       5.243   4.769  17.067  0.00  0.00    +0.000 A 
ATOM     21  N   UNL     1       4.039   5.261  17.315  0.00  0.00    +0.000 NA
ATOM     22  C   UNL     1       3.884   5.039  18.678  0.00  0.00    +0.000 A 
ATOM     23  N   UNL     1       4.949   4.468  19.255  0.00  0.00    +0.000 NA
ATOM     24  O   UNL     1       5.844   4.303  18.212  0.00  0.00    +0.000 OA
BRANCH  20  27
ATOM     25  N   UNL     1       6.575   4.187  13.678  0.00  0.00    +0.000 N 
ATOM     26  C   UNL     1       5.570   3.972  14.602  0.00  0.00    +0.000 A 
ATOM     27  C   UNL     1       5.934   4.659  15.743  0.00  0.00    +0.000 A 
ATOM     28  C   UNL     1       7.164   5.262  15.407  0.00  0.00    +0.000 A 
ATOM     29  N   UNL     1       7.549   4.993  14.156  0.00  0.00    +0.000 NA
BRANCH  25  30
ATOM     30  C   UNL     1       6.681   3.689  12.299  0.00  0.00    +0.000 C 
BRANCH  30  32
ATOM     31  N   UNL     1       4.164   3.010  11.333  0.00  0.00    +0.000 NA
ATOM     32  C   UNL     1       5.305   3.318  11.770  0.00  0.00    +0.000 C 
ENDBRANCH  30  32
ENDBRANCH  25  30
ENDBRANCH  20  27
ENDBRANCH   1  22
TORSDOF 7
ENDMDL
MODEL 2
REMARK VINA RESULT:      -8.4      1.003      1.372
REMARK  Name = 
REMARK  7 active torsions:
REMARK  status: ('A' for Active; 'I' for Inactive)
REMARK    1  A    between atoms: C_2  and  C_3
REMARK    2  A    between atoms: C_3  and  N_4
REMARK    3  A    between atoms: C_6  and  C_7
REMARK    4  A    between atoms: C_9  and  C_10
REMARK    5  A    between atoms: C_10  and  C_11
REMARK    6  A    between atoms: C_14  and  C_15
REMARK    7  A    between atoms: C_18  and  N_19
REMARK                            x       y       z     vdW  Elec       q    Type
REMARK                         _______ _______ _______ _____ _____    ______ ____
ROOT
ATOM      1  C   UNL     1       2.478   5.254  19.595  0.00  0.00    +0.000 C 
ATOM      2  C   UNL     1       1.440   4.188  19.056  0.00  0.00    +0.000 C 
ATOM      3  C   UNL     1       1.050   3.908  20.521  0.00  0.00    +0.000 C 
ATOM      4  C   UNL     1       2.462   4.377  20.917  0.00  0.00    +0.000 C 
ENDROOT
BRANCH   1   5
ATOM      5  C   UNL     1       1.922   6.762  19.736  0.00  0.00    +0.000 A 
ATOM      6  C   UNL     1       1.443   7.308  20.934  0.00  0.00    +0.000 A 
ATOM      7  C   UNL     1       1.109   8.662  21.035  0.00  0.00    +0.000 A 
ATOM      8  C   UNL     1       1.241   9.493  19.925  0.00  0.00    +0.000 A 
ATOM      9  N   UNL     1       1.644   8.992  18.730  0.00  0.00    +0.000 NA
ATOM     10  C   UNL     1       1.961   7.672  18.672  0.00  0.00    +0.000 A 
BRANCH   8  11
ATOM     11  C   UNL     1       0.994  10.948  19.996  0.00  0.00    +0.000 A 
ATOM     12  C   UNL     1       1.082  11.788  18.885  0.00  0.00    +0.000 A 
ATOM     13  N   UNL     1       0.893  13.137  18.935  0.00  0.00    +0.000 NA
ATOM     14  C   UNL     1       0.615  13.645  20.145  0.00  0.00    +0.000 A 
ATOM     15  C   UNL     1       0.533  12.821  21.265  0.00  0.00    +0.000 A 
ATOM     16  N   UNL     1       0.704  11.475  21.218  0.00  0.00    +0.000 NA
BRANCH  14  17
ATOM     17  N   UNL     1       0.462  15.027  20.233  0.00  0.00    +0.000 N 
ATOM     18  H   UNL     1       0.195  15.239  21.191  0.00  0.00    +0.000 HD
ATOM     19  H   UNL     1       1.302  15.523  19.956  0.00  0.00    +0.000 HD
ENDBRANCH  14  17
ENDBRANCH   8  11
ENDBRANCH   1   5
BRANCH   1  22
ATOM     20  C   UNL     1       5.197   4.988  17.190  0.00  0.00    +0.000 A 
ATOM     21  N   UNL     1       3.903   5.174  17.401  0.00  0.00    +0.000 NA
ATOM     22  C   UNL     1       3.811   5.191  18.788  0.00  0.00    +0.000 A 
ATOM     23  N   UNL     1       4.990   5.055  19.407  0.00  0.00    +0.000 NA
ATOM     24  O   UNL     1       5.899   4.937  18.370  0.00  0.00    +0.000 OA
BRANCH  20  27
ATOM     25  N   UNL     1       6.544   4.244  13.839  0.00  0.00    +0.000 N 
ATOM     26  C   UNL     1       5.529   4.084  14.763  0.00  0.00    +0.000 A 
ATOM     27  C   UNL     1       5.896   4.812  15.877  0.00  0.00    +0.000 A 
ATOM     28  C   UNL     1       7.139   5.380  15.527  0.00  0.00    +0.000 A 
ATOM     29  N   UNL     1       7.529   5.053  14.291  0.00  0.00    +0.000 NA
BRANCH  25  30
ATOM     30  C   UNL     1       6.652   3.687  12.482  0.00  0.00    +0.000 C 
BRANCH  30  32
ATOM     31  N   UNL     1       4.120   3.155  11.465  0.00  0.00    +0.000 NA
ATOM     32  C   UNL     1       5.268   3.396  11.926  0.00  0.00    +0.000 C 
ENDBRANCH  30  32
ENDBRANCH  25  30
ENDBRANCH  20  27
ENDBRANCH   1  22
TORSDOF 7
ENDMDL
MODEL 3
REMARK VINA RESULT:      -8.4      1.008      1.261
REMARK  Name = 
REMARK  7 active torsions:
REMARK  status: ('A' for Active; 'I' for Inactive)
REMARK    1  A    between atoms: C_2  and  C_3
REMARK    2  A    between atoms: C_3  and  N_4
REMARK    3  A    between atoms: C_6  and  C_7
REMARK    4  A    between atoms: C_9  and  C_10
REMARK    5  A    between atoms: C_10  and  C_11
REMARK    6  A    between atoms: C_14  and  C_15
REMARK    7  A    between atoms: C_18  and  N_19
REMARK                            x       y       z     vdW  Elec       q    Type
REMARK                         _______ _______ _______ _____ _____    ______ ____
ROOT
ATOM      1  C   UNL     1       2.573   4.667  19.726  0.00  0.00    +0.000 C 
ATOM      2  C   UNL     1       1.533   3.594  19.202  0.00  0.00    +0.000 C 
ATOM      3  C   UNL     1       1.153   3.325  20.671  0.00  0.00    +0.000 C 
ATOM      4  C   UNL     1       2.567   3.801  21.055  0.00  0.00    +0.000 C 
ENDROOT
BRANCH   1   5
ATOM      5  C   UNL     1       2.014   6.175  19.858  0.00  0.00    +0.000 A 
ATOM      6  C   UNL     1       1.407   6.683  21.014  0.00  0.00    +0.000 A 
ATOM      7  C   UNL     1       1.071   8.037  21.127  0.00  0.00    +0.000 A 
ATOM      8  C   UNL     1       1.333   8.904  20.069  0.00  0.00    +0.000 A 
ATOM      9  N   UNL     1       1.864   8.442  18.909  0.00  0.00    +0.000 NA
ATOM     10  C   UNL     1       2.178   7.122  18.840  0.00  0.00    +0.000 A 
BRANCH   8  11
ATOM     11  C   UNL     1       1.089  10.359  20.165  0.00  0.00    +0.000 A 
ATOM     12  C   UNL     1       0.658  10.980  21.338  0.00  0.00    +0.000 A 
ATOM     13  N   UNL     1       0.393  12.313  21.439  0.00  0.00    +0.000 NA
ATOM     14  C   UNL     1       0.563  13.030  20.318  0.00  0.00    +0.000 A 
ATOM     15  C   UNL     1       0.982  12.423  19.137  0.00  0.00    +0.000 A 
ATOM     16  N   UNL     1       1.263  11.099  19.035  0.00  0.00    +0.000 NA
BRANCH  14  17
ATOM     17  N   UNL     1       0.254  14.387  20.381  0.00  0.00    +0.000 N 
ATOM     18  H   UNL     1       0.310  14.752  19.433  0.00  0.00    +0.000 HD
ATOM     19  H   UNL     1      -0.655  14.555  20.798  0.00  0.00    +0.000 HD
ENDBRANCH  14  17
ENDBRANCH   8  11
ENDBRANCH   1   5
BRANCH   1  22
ATOM     20  C   UNL     1       5.276   4.544  17.293  0.00  0.00    +0.000 A 
ATOM     21  N   UNL     1       4.011   4.840  17.546  0.00  0.00    +0.000 NA
ATOM     22  C   UNL     1       3.900   4.601  18.911  0.00  0.00    +0.000 A 
ATOM     23  N   UNL     1       5.046   4.207  19.483  0.00  0.00    +0.000 NA
ATOM     24  O   UNL     1       5.950   4.183  18.435  0.00  0.00    +0.000 OA
BRANCH  20  27
ATOM     25  N   UNL     1       6.635   4.206  13.882  0.00  0.00    +0.000 N 
ATOM     26  C   UNL     1       5.652   3.879  14.796  0.00  0.00    +0.000 A 
ATOM     27  C   UNL     1       5.969   4.542  15.965  0.00  0.00    +0.000 A 
ATOM     28  C   UNL     1       7.152   5.245  15.655  0.00  0.00    +0.000 A 
ATOM     29  N   UNL     1       7.551   5.058  14.394  0.00  0.00    +0.000 NA
BRANCH  25  30
ATOM     30  C   UNL     1       6.772   3.776  12.482  0.00  0.00    +0.000 C 
BRANCH  30  32
ATOM     31  N   UNL     1       4.290   3.061  11.455  0.00  0.00    +0.000 NA
ATOM     32  C   UNL     1       5.415   3.385  11.921  0.00  0.00    +0.000 C 
ENDBRANCH  30  32
ENDBRANCH  25  30
ENDBRANCH  20  27
ENDBRANCH   1  22
TORSDOF 7
ENDMDL
MODEL 4
REMARK VINA RESULT:      -8.2      3.985     11.050
REMARK  Name = 
REMARK  7 active torsions:
REMARK  status: ('A' for Active; 'I' for Inactive)
REMARK    1  A    between atoms: C_2  and  C_3
REMARK    2  A    between atoms: C_3  and  N_4
REMARK    3  A    between atoms: C_6  and  C_7
REMARK    4  A    between atoms: C_9  and  C_10
REMARK    5  A    between atoms: C_10  and  C_11
REMARK    6  A    between atoms: C_14  and  C_15
REMARK    7  A    between atoms: C_18  and  N_19
REMARK                            x       y       z     vdW  Elec       q    Type
REMARK                         _______ _______ _______ _____ _____    ______ ____
ROOT
ATOM      1  C   UNL     1       0.285  11.663  19.250  0.00  0.00    +0.000 C 
ATOM      2  C   UNL     1       1.123  12.809  18.551  0.00  0.00    +0.000 C 
ATOM      3  C   UNL     1       1.883  12.988  19.881  0.00  0.00    +0.000 C 
ATOM      4  C   UNL     1       0.635  12.432  20.592  0.00  0.00    +0.000 C 
ENDROOT
BRANCH   1   5
ATOM      5  C   UNL     1       0.886  10.172  19.108  0.00  0.00    +0.000 A 
ATOM      6  C   UNL     1       1.441   9.664  17.926  0.00  0.00    +0.000 A 
ATOM      7  C   UNL     1       2.078   8.419  17.896  0.00  0.00    +0.000 A 
ATOM      8  C   UNL     1       2.159   7.656  19.058  0.00  0.00    +0.000 A 
ATOM      9  N   UNL     1       1.583   8.083  20.209  0.00  0.00    +0.000 NA
ATOM     10  C   UNL     1       0.974   9.298  20.198  0.00  0.00    +0.000 A 
BRANCH   8  11
ATOM     11  C   UNL     1       2.901   6.378  19.110  0.00  0.00    +0.000 A 
ATOM     12  C   UNL     1       2.596   5.360  20.015  0.00  0.00    +0.000 A 
ATOM     13  N   UNL     1       3.289   4.190  20.104  0.00  0.00    +0.000 NA
ATOM     14  C   UNL     1       4.321   4.055  19.257  0.00  0.00    +0.000 A 
ATOM     15  C   UNL     1       4.643   5.065  18.356  0.00  0.00    +0.000 A 
ATOM     16  N   UNL     1       3.947   6.226  18.252  0.00  0.00    +0.000 NA
BRANCH  14  17
ATOM     17  N   UNL     1       5.075   2.887  19.359  0.00  0.00    +0.000 N 
ATOM     18  H   UNL     1       5.842   2.968  18.696  0.00  0.00    +0.000 HD
ATOM     19  H   UNL     1       5.405   2.725  20.303  0.00  0.00    +0.000 HD
ENDBRANCH  14  17
ENDBRANCH   8  11
ENDBRANCH   1   5
BRANCH   1  22
ATOM     20  C   UNL     1      -3.336  11.839  18.922  0.00  0.00    +0.000 A 
ATOM     21  N   UNL     1      -2.271  12.015  19.689  0.00  0.00    +0.000 NA
ATOM     22  C   UNL     1      -1.215  11.735  18.830  0.00  0.00    +0.000 A 
ATOM     23  N   UNL     1      -1.601  11.430  17.584  0.00  0.00    +0.000 NA
ATOM     24  O   UNL     1      -2.982  11.511  17.635  0.00  0.00    +0.000 OA
BRANCH  20  27
ATOM     25  N   UNL     1      -6.723  12.317  20.297  0.00  0.00    +0.000 N 
ATOM     26  C   UNL     1      -5.368  12.572  20.388  0.00  0.00    +0.000 A 
ATOM     27  C   UNL     1      -4.777  11.929  19.318  0.00  0.00    +0.000 A 
ATOM     28  C   UNL     1      -5.854  11.325  18.638  0.00  0.00    +0.000 A 
ATOM     29  N   UNL     1      -7.035  11.568  19.215  0.00  0.00    +0.000 NA
BRANCH  25  30
ATOM     30  C   UNL     1      -7.808  12.771  21.180  0.00  0.00    +0.000 C 
BRANCH  30  32
ATOM     31  N   UNL     1      -7.644  11.476  23.635  0.00  0.00    +0.000 NA
ATOM     32  C   UNL     1      -7.719  12.063  22.522  0.00  0.00    +0.000 C 
ENDBRANCH  30  32
ENDBRANCH  25  30
ENDBRANCH  20  27
ENDBRANCH   1  22
TORSDOF 7
ENDMDL
MODEL 5
REMARK VINA RESULT:      -8.1      1.223      1.303
REMARK  Name = 
REMARK  7 active torsions:
REMARK  status: ('A' for Active; 'I' for Inactive)
REMARK    1  A    between atoms: C_2  and  C_3
REMARK    2  A    between atoms: C_3  and  N_4
REMARK    3  A    between atoms: C_6  and  C_7
REMARK    4  A    between atoms: C_9  and  C_10
REMARK    5  A    between atoms: C_10  and  C_11
REMARK    6  A    between atoms: C_14  and  C_15
REMARK    7  A    between atoms: C_18  and  N_19
REMARK                            x       y       z     vdW  Elec       q    Type
REMARK                         _______ _______ _______ _____ _____    ______ ____
ROOT
ATOM      1  C   UNL     1       2.536   5.269  19.431  0.00  0.00    +0.000 C 
ATOM      2  C   UNL     1       1.434   4.396  18.703  0.00  0.00    +0.000 C 
ATOM      3  C   UNL     1       1.044   3.835  20.085  0.00  0.00    +0.000 C 
ATOM      4  C   UNL     1       2.485   4.137  20.540  0.00  0.00    +0.000 C 
ENDROOT
BRANCH   1   5
ATOM      5  C   UNL     1       2.066   6.741  19.896  0.00  0.00    +0.000 A 
ATOM      6  C   UNL     1       2.063   7.861  19.055  0.00  0.00    +0.000 A 
ATOM      7  C   UNL     1       1.510   9.079  19.464  0.00  0.00    +0.000 A 
ATOM      8  C   UNL     1       0.957   9.195  20.738  0.00  0.00    +0.000 A 
ATOM      9  N   UNL     1       0.994   8.153  21.606  0.00  0.00    +0.000 NA
ATOM     10  C   UNL     1       1.538   6.986  21.170  0.00  0.00    +0.000 A 
BRANCH   8  11
ATOM     11  C   UNL     1       0.276  10.425  21.192  0.00  0.00    +0.000 A 
ATOM     12  C   UNL     1      -0.263  10.566  22.472  0.00  0.00    +0.000 A 
ATOM     13  N   UNL     1      -0.926  11.678  22.899  0.00  0.00    +0.000 NA
ATOM     14  C   UNL     1      -1.050  12.667  22.001  0.00  0.00    +0.000 A 
ATOM     15  C   UNL     1      -0.527  12.537  20.717  0.00  0.00    +0.000 A 
ATOM     16  N   UNL     1       0.148  11.439  20.291  0.00  0.00    +0.000 NA
BRANCH  14  17
ATOM     17  N   UNL     1      -1.764  13.796  22.396  0.00  0.00    +0.000 N 
ATOM     18  H   UNL     1      -1.663  14.488  21.658  0.00  0.00    +0.000 HD
ATOM     19  H   UNL     1      -2.737  13.586  22.590  0.00  0.00    +0.000 HD
ENDBRANCH  14  17
ENDBRANCH   8  11
ENDBRANCH   1   5
BRANCH   1  22
ATOM     20  C   UNL     1       5.243   5.113  17.003  0.00  0.00    +0.000 A 
ATOM     21  N   UNL     1       3.937   5.121  17.225  0.00  0.00    +0.000 NA
ATOM     22  C   UNL     1       3.855   5.308  18.600  0.00  0.00    +0.000 A 
ATOM     23  N   UNL     1       5.046   5.442  19.197  0.00  0.00    +0.000 NA
ATOM     24  O   UNL     1       5.954   5.330  18.158  0.00  0.00    +0.000 OA
BRANCH  20  27
ATOM     25  N   UNL     1       6.594   4.237  13.686  0.00  0.00    +0.000 N 
ATOM     26  C   UNL     1       5.557   4.152  14.595  0.00  0.00    +0.000 A 
ATOM     27  C   UNL     1       5.950   4.875  15.704  0.00  0.00    +0.000 A 
ATOM     28  C   UNL     1       7.229   5.363  15.366  0.00  0.00    +0.000 A 
ATOM     29  N   UNL     1       7.618   4.993  14.142  0.00  0.00    +0.000 NA
BRANCH  25  30
ATOM     30  C   UNL     1       6.690   3.653  12.339  0.00  0.00    +0.000 C 
BRANCH  30  32
ATOM     31  N   UNL     1       4.150   3.068  11.370  0.00  0.00    +0.000 NA
ATOM     32  C   UNL     1       5.301   3.333  11.810  0.00  0.00    +0.000 C 
ENDBRANCH  30  32
ENDBRANCH  25  30
ENDBRANCH  20  27
ENDBRANCH   1  22
TORSDOF 7
ENDMDL
MODEL 6
REMARK VINA RESULT:      -8.0      2.312      9.774
REMARK  Name = 
REMARK  7 active torsions:
REMARK  status: ('A' for Active; 'I' for Inactive)
REMARK    1  A    between atoms: C_2  and  C_3
REMARK    2  A    between atoms: C_3  and  N_4
REMARK    3  A    between atoms: C_6  and  C_7
REMARK    4  A    between atoms: C_9  and  C_10
REMARK    5  A    between atoms: C_10  and  C_11
REMARK    6  A    between atoms: C_14  and  C_15
REMARK    7  A    between atoms: C_18  and  N_19
REMARK                            x       y       z     vdW  Elec       q    Type
REMARK                         _______ _______ _______ _____ _____    ______ ____
ROOT
ATOM      1  C   UNL     1       2.074   5.116  20.258  0.00  0.00    +0.000 C 
ATOM      2  C   UNL     1       2.503   4.480  21.642  0.00  0.00    +0.000 C 
ATOM      3  C   UNL     1       1.678   3.234  21.263  0.00  0.00    +0.000 C 
ATOM      4  C   UNL     1       0.818   4.155  20.377  0.00  0.00    +0.000 C 
ENDROOT
BRANCH   1   5
ATOM      5  C   UNL     1       3.070   4.832  19.020  0.00  0.00    +0.000 A 
ATOM      6  C   UNL     1       2.744   4.018  17.928  0.00  0.00    +0.000 A 
ATOM      7  C   UNL     1       3.585   3.921  16.814  0.00  0.00    +0.000 A 
ATOM      8  C   UNL     1       4.779   4.638  16.784  0.00  0.00    +0.000 A 
ATOM      9  N   UNL     1       5.162   5.391  17.846  0.00  0.00    +0.000 NA
ATOM     10  C   UNL     1       4.317   5.460  18.909  0.00  0.00    +0.000 A 
BRANCH   8  11
ATOM     11  C   UNL     1       5.662   4.650  15.598  0.00  0.00    +0.000 A 
ATOM     12  C   UNL     1       6.824   5.418  15.525  0.00  0.00    +0.000 A 
ATOM     13  N   UNL     1       7.632   5.471  14.429  0.00  0.00    +0.000 NA
ATOM     14  C   UNL     1       7.245   4.731  13.379  0.00  0.00    +0.000 A 
ATOM     15  C   UNL     1       6.082   3.967  13.434  0.00  0.00    +0.000 A 
ATOM     16  N   UNL     1       5.282   3.897  14.528  0.00  0.00    +0.000 NA
BRANCH  14  17
ATOM     17  N   UNL     1       8.027   4.803  12.229  0.00  0.00    +0.000 N 
ATOM     18  H   UNL     1       7.973   3.896  11.773  0.00  0.00    +0.000 HD
ATOM     19  H   UNL     1       7.737   5.555  11.614  0.00  0.00    +0.000 HD
ENDBRANCH  14  17
ENDBRANCH   8  11
ENDBRANCH   1   5
BRANCH   1  22
ATOM     20  C   UNL     1       0.871   8.453  21.070  0.00  0.00    +0.000 A 
ATOM     21  N   UNL     1       0.956   7.178  21.417  0.00  0.00    +0.000 NA
ATOM     22  C   UNL     1       1.752   6.633  20.417  0.00  0.00    +0.000 A 
ATOM     23  N   UNL     1       2.167   7.529  19.512  0.00  0.00    +0.000 NA
ATOM     24  O   UNL     1       1.607   8.719  19.941  0.00  0.00    +0.000 OA
BRANCH  20  27
ATOM     25  N   UNL     1      -1.135  11.313  22.251  0.00  0.00    +0.000 N 
ATOM     26  C   UNL     1      -0.582  10.620  21.192  0.00  0.00    +0.000 A 
ATOM     27  C   UNL     1       0.076   9.534  21.735  0.00  0.00    +0.000 A 
ATOM     28  C   UNL     1      -0.145   9.654  23.123  0.00  0.00    +0.000 A 
ATOM     29  N   UNL     1      -0.888  10.718  23.440  0.00  0.00    +0.000 NA
BRANCH  25  30
ATOM     30  C   UNL     1      -1.943  12.541  22.228  0.00  0.00    +0.000 C 
BRANCH  30  32
ATOM     31  N   UNL     1      -0.838  14.442  23.929  0.00  0.00    +0.000 NA
ATOM     32  C   UNL     1      -1.339  13.580  23.159  0.00  0.00    +0.000 C 
ENDBRANCH  30  32
ENDBRANCH  25  30
ENDBRANCH  20  27
ENDBRANCH   1  22
TORSDOF 7
ENDMDL
MODEL 7
REMARK VINA RESULT:      -7.9      1.108      1.139
REMARK  Name = 
REMARK  7 active torsions:
REMARK  status: ('A' for Active; 'I' for Inactive)
REMARK    1  A    between atoms: C_2  and  C_3
REMARK    2  A    between atoms: C_3  and  N_4
REMARK    3  A    between atoms: C_6  and  C_7
REMARK    4  A    between atoms: C_9  and  C_10
REMARK    5  A    between atoms: C_10  and  C_11
REMARK    6  A    between atoms: C_14  and  C_15
REMARK    7  A    between atoms: C_18  and  N_19
REMARK                            x       y       z     vdW  Elec       q    Type
REMARK                         _______ _______ _______ _____ _____    ______ ____
ROOT
ATOM      1  C   UNL     1       2.508   4.882  19.483  0.00  0.00    +0.000 C 
ATOM      2  C   UNL     1       1.214   3.983  19.632  0.00  0.00    +0.000 C 
ATOM      3  C   UNL     1       1.298   4.211  21.154  0.00  0.00    +0.000 C 
ATOM      4  C   UNL     1       2.812   4.428  20.972  0.00  0.00    +0.000 C 
ENDROOT
BRANCH   1   5
ATOM      5  C   UNL     1       2.242   6.459  19.262  0.00  0.00    +0.000 A 
ATOM      6  C   UNL     1       2.343   7.100  18.021  0.00  0.00    +0.000 A 
ATOM      7  C   UNL     1       1.961   8.436  17.857  0.00  0.00    +0.000 A 
ATOM      8  C   UNL     1       1.479   9.156  18.947  0.00  0.00    +0.000 A 
ATOM      9  N   UNL     1       1.421   8.591  20.179  0.00  0.00    +0.000 NA
ATOM     10  C   UNL     1       1.799   7.291  20.297  0.00  0.00    +0.000 A 
BRANCH   8  11
ATOM     11  C   UNL     1       0.973  10.538  18.816  0.00  0.00    +0.000 A 
ATOM     12  C   UNL     1       1.798  11.623  18.515  0.00  0.00    +0.000 A 
ATOM     13  N   UNL     1       1.358  12.910  18.424  0.00  0.00    +0.000 NA
ATOM     14  C   UNL     1       0.050  13.099  18.652  0.00  0.00    +0.000 A 
ATOM     15  C   UNL     1      -0.784  12.029  18.964  0.00  0.00    +0.000 A 
ATOM     16  N   UNL     1      -0.355  10.743  19.040  0.00  0.00    +0.000 NA
BRANCH  14  17
ATOM     17  N   UNL     1      -0.417  14.411  18.612  0.00  0.00    +0.000 N 
ATOM     18  H   UNL     1      -0.375  14.774  19.561  0.00  0.00    +0.000 HD
ATOM     19  H   UNL     1       0.109  14.985  17.963  0.00  0.00    +0.000 HD
ENDBRANCH  14  17
ENDBRANCH   8  11
ENDBRANCH   1   5
BRANCH   1  22
ATOM     20  C   UNL     1       4.803   4.131  16.760  0.00  0.00    +0.000 A 
ATOM     21  N   UNL     1       4.270   5.046  17.554  0.00  0.00    +0.000 NA
ATOM     22  C   UNL     1       3.476   4.293  18.412  0.00  0.00    +0.000 A 
ATOM     23  N   UNL     1       3.537   2.975  18.183  0.00  0.00    +0.000 NA
ATOM     24  O   UNL     1       4.412   2.862  17.117  0.00  0.00    +0.000 OA
BRANCH  20  27
ATOM     25  N   UNL     1       6.724   4.335  13.619  0.00  0.00    +0.000 N 
ATOM     26  C   UNL     1       5.640   3.823  14.305  0.00  0.00    +0.000 A 
ATOM     27  C   UNL     1       5.699   4.350  15.580  0.00  0.00    +0.000 A 
ATOM     28  C   UNL     1       6.846   5.171  15.563  0.00  0.00    +0.000 A 
ATOM     29  N   UNL     1       7.460   5.179  14.376  0.00  0.00    +0.000 NA
BRANCH  25  30
ATOM     30  C   UNL     1       7.126   4.101  12.224  0.00  0.00    +0.000 C 
BRANCH  30  32
ATOM     31  N   UNL     1       6.001   1.736  11.291  0.00  0.00    +0.000 NA
ATOM     32  C   UNL     1       6.511   2.808  11.714  0.00  0.00    +0.000 C 
ENDBRANCH  30  32
ENDBRANCH  25  30
ENDBRANCH  20  27
ENDBRANCH   1  22
TORSDOF 7
ENDMDL
MODEL 8
REMARK VINA RESULT:      -7.8      3.832     10.741
REMARK  Name = 
REMARK  7 active torsions:
REMARK  status: ('A' for Active; 'I' for Inactive)
REMARK    1  A    between atoms: C_2  and  C_3
REMARK    2  A    between atoms: C_3  and  N_4
REMARK    3  A    between atoms: C_6  and  C_7
REMARK    4  A    between atoms: C_9  and  C_10
REMARK    5  A    between atoms: C_10  and  C_11
REMARK    6  A    between atoms: C_14  and  C_15
REMARK    7  A    between atoms: C_18  and  N_19
REMARK                            x       y       z     vdW  Elec       q    Type
REMARK                         _______ _______ _______ _____ _____    ______ ____
ROOT
ATOM      1  C   UNL     1       0.550  11.084  19.198  0.00  0.00    +0.000 C 
ATOM      2  C   UNL     1       1.376  12.289  18.587  0.00  0.00    +0.000 C 
ATOM      3  C   UNL     1       1.923  12.558  20.003  0.00  0.00    +0.000 C 
ATOM      4  C   UNL     1       0.640  11.905  20.551  0.00  0.00    +0.000 C 
ENDROOT
BRANCH   1   5
ATOM      5  C   UNL     1       1.291   9.651  19.185  0.00  0.00    +0.000 A 
ATOM      6  C   UNL     1       1.299   8.767  20.272  0.00  0.00    +0.000 A 
ATOM      7  C   UNL     1       1.832   7.478  20.161  0.00  0.00    +0.000 A 
ATOM      8  C   UNL     1       2.378   7.059  18.950  0.00  0.00    +0.000 A 
ATOM      9  N   UNL     1       2.445   7.903  17.890  0.00  0.00    +0.000 NA
ATOM     10  C   UNL     1       1.915   9.146  18.038  0.00  0.00    +0.000 A 
BRANCH   8  11
ATOM     11  C   UNL     1       2.869   5.680  18.744  0.00  0.00    +0.000 A 
ATOM     12  C   UNL     1       2.245   4.772  17.887  0.00  0.00    +0.000 A 
ATOM     13  N   UNL     1       2.660   3.486  17.710  0.00  0.00    +0.000 NA
ATOM     14  C   UNL     1       3.731   3.112  18.427  0.00  0.00    +0.000 A 
ATOM     15  C   UNL     1       4.358   4.003  19.293  0.00  0.00    +0.000 A 
ATOM     16  N   UNL     1       3.959   5.290  19.462  0.00  0.00    +0.000 NA
BRANCH  14  17
ATOM     17  N   UNL     1       4.148   1.789  18.299  0.00  0.00    +0.000 N 
ATOM     18  H   UNL     1       3.367   1.264  17.912  0.00  0.00    +0.000 HD
ATOM     19  H   UNL     1       4.982   1.703  17.729  0.00  0.00    +0.000 HD
ENDBRANCH  14  17
ENDBRANCH   8  11
ENDBRANCH   1   5
BRANCH   1  22
ATOM     20  C   UNL     1      -2.963  11.278  18.264  0.00  0.00    +0.000 A 
ATOM     21  N   UNL     1      -1.967  11.769  18.987  0.00  0.00    +0.000 NA
ATOM     22  C   UNL     1      -0.877  11.013  18.572  0.00  0.00    +0.000 A 
ATOM     23  N   UNL     1      -1.172  10.120  17.619  0.00  0.00    +0.000 NA
ATOM     24  O   UNL     1      -2.528  10.299  17.404  0.00  0.00    +0.000 OA
BRANCH  20  27
ATOM     25  N   UNL     1      -6.471  12.209  18.914  0.00  0.00    +0.000 N 
ATOM     26  C   UNL     1      -5.205  11.967  19.412  0.00  0.00    +0.000 A 
ATOM     27  C   UNL     1      -4.412  11.651  18.327  0.00  0.00    +0.000 A 
ATOM     28  C   UNL     1      -5.285  11.736  17.222  0.00  0.00    +0.000 A 
ATOM     29  N   UNL     1      -6.527  12.088  17.569  0.00  0.00    +0.000 NA
BRANCH  25  30
ATOM     30  C   UNL     1      -7.690  12.591  19.642  0.00  0.00    +0.000 C 
BRANCH  30  32
ATOM     31  N   UNL     1      -7.596  11.611  22.243  0.00  0.00    +0.000 NA
ATOM     32  C   UNL     1      -7.639  12.055  21.064  0.00  0.00    +0.000 C 
ENDBRANCH  30  32
ENDBRANCH  25  30
ENDBRANCH  20  27
ENDBRANCH   1  22
TORSDOF 7
ENDMDL
MODEL 9
REMARK VINA RESULT:      -7.8      3.875     10.760
REMARK  Name = 
REMARK  7 active torsions:
REMARK  status: ('A' for Active; 'I' for Inactive)
REMARK    1  A    between atoms: C_2  and  C_3
REMARK    2  A    between atoms: C_3  and  N_4
REMARK    3  A    between atoms: C_6  and  C_7
REMARK    4  A    between atoms: C_9  and  C_10
REMARK    5  A    between atoms: C_10  and  C_11
REMARK    6  A    between atoms: C_14  and  C_15
REMARK    7  A    between atoms: C_18  and  N_19
REMARK                            x       y       z     vdW  Elec       q    Type
REMARK                         _______ _______ _______ _____ _____    ______ ____
ROOT
ATOM      1  C   UNL     1       0.370  11.090  19.320  0.00  0.00    +0.000 C 
ATOM      2  C   UNL     1       1.226  12.241  18.649  0.00  0.00    +0.000 C 
ATOM      3  C   UNL     1       1.903  12.459  20.017  0.00  0.00    +0.000 C 
ATOM      4  C   UNL     1       0.626  11.890  20.665  0.00  0.00    +0.000 C 
ENDROOT
BRANCH   1   5
ATOM      5  C   UNL     1       1.007   9.610  19.241  0.00  0.00    +0.000 A 
ATOM      6  C   UNL     1       1.641   9.093  18.104  0.00  0.00    +0.000 A 
ATOM      7  C   UNL     1       2.303   7.861  18.135  0.00  0.00    +0.000 A 
ATOM      8  C   UNL     1       2.329   7.119  19.314  0.00  0.00    +0.000 A 
ATOM      9  N   UNL     1       1.676   7.554  20.421  0.00  0.00    +0.000 NA
ATOM     10  C   UNL     1       1.047   8.757  20.351  0.00  0.00    +0.000 A 
BRANCH   8  11
ATOM     11  C   UNL     1       3.090   5.858  19.434  0.00  0.00    +0.000 A 
ATOM     12  C   UNL     1       4.356   5.679  18.873  0.00  0.00    +0.000 A 
ATOM     13  N   UNL     1       5.059   4.514  18.941  0.00  0.00    +0.000 NA
ATOM     14  C   UNL     1       4.459   3.504  19.589  0.00  0.00    +0.000 A 
ATOM     15  C   UNL     1       3.193   3.664  20.145  0.00  0.00    +0.000 A 
ATOM     16  N   UNL     1       2.494   4.827  20.095  0.00  0.00    +0.000 NA
BRANCH  14  17
ATOM     17  N   UNL     1       5.137   2.288  19.634  0.00  0.00    +0.000 N 
ATOM     18  H   UNL     1       4.563   1.607  19.142  0.00  0.00    +0.000 HD
ATOM     19  H   UNL     1       6.069   2.354  19.239  0.00  0.00    +0.000 HD
ENDBRANCH  14  17
ENDBRANCH   8  11
ENDBRANCH   1   5
BRANCH   1  22
ATOM     20  C   UNL     1      -3.174  11.576  18.648  0.00  0.00    +0.000 A 
ATOM     21  N   UNL     1      -2.080  12.009  19.255  0.00  0.00    +0.000 NA
ATOM     22  C   UNL     1      -1.104  11.124  18.813  0.00  0.00    +0.000 A 
ATOM     23  N   UNL     1      -1.561  10.207  17.950  0.00  0.00    +0.000 NA
ATOM     24  O   UNL     1      -2.907  10.507  17.828  0.00  0.00    +0.000 OA
BRANCH  20  27
ATOM     25  N   UNL     1      -6.600  12.933  18.514  0.00  0.00    +0.000 N 
ATOM     26  C   UNL     1      -5.460  12.545  17.837  0.00  0.00    +0.000 A 
ATOM     27  C   UNL     1      -4.571  12.096  18.794  0.00  0.00    +0.000 A 
ATOM     28  C   UNL     1      -5.267  12.245  20.012  0.00  0.00    +0.000 A 
ATOM     29  N   UNL     1      -6.499  12.736  19.848  0.00  0.00    +0.000 NA
BRANCH  25  30
ATOM     30  C   UNL     1      -7.853  13.479  17.972  0.00  0.00    +0.000 C 
BRANCH  30  32
ATOM     31  N   UNL     1      -7.312  15.142  15.810  0.00  0.00    +0.000 NA
ATOM     32  C   UNL     1      -7.558  14.388  16.790  0.00  0.00    +0.000 C 
ENDBRANCH  30  32
ENDBRANCH  25  30
ENDBRANCH  20  27
ENDBRANCH   1  22
TORSDOF 7
ENDMDL
