MODEL 1
REMARK VINA RESULT:      -7.1      0.000      0.000
REMARK  Name = 
REMARK  4 active torsions:
REMARK  status: ('A' for Active; 'I' for Inactive)
REMARK    1  A    between atoms: N_1  and  C_2
REMARK    2  A    between atoms: C_2  and  C_3
REMARK    3  A    between atoms: C_3  and  C_4
REMARK    4  A    between atoms: C_4  and  N_5
REMARK                            x       y       z     vdW  Elec       q    Type
REMARK                         _______ _______ _______ _____ _____    ______ ____
ROOT
ATOM      1  N   UNL     1       5.312   5.086  17.449  0.00  0.00    +0.000 N 
ATOM      2  C   UNL     1       4.793   6.279  16.963  0.00  0.00    +0.000 A 
ATOM      3  O   UNL     1       5.171   6.829  15.931  0.00  0.00    +0.000 OA
ATOM      4  C   UNL     1       3.721   6.913  17.755  0.00  0.00    +0.000 A 
ATOM      5  C   UNL     1       3.312   8.207  17.404  0.00  0.00    +0.000 A 
ATOM      6  C   UNL     1       2.314   8.820  18.140  0.00  0.00    +0.000 A 
ATOM      7  F   UNL     1       1.926  10.061  17.825  0.00  0.00    +0.000 F 
ATOM      8  C   UNL     1       1.720   8.162  19.205  0.00  0.00    +0.000 A 
ATOM      9  C   UNL     1       2.136   6.869  19.552  0.00  0.00    +0.000 A 
ATOM     10  C   UNL     1       3.153   6.225  18.837  0.00  0.00    +0.000 A 
ATOM     11  N   UNL     1       3.662   4.945  19.138  0.00  0.00    +0.000 N 
ATOM     12  C   UNL     1       3.327   3.995  20.085  0.00  0.00    +0.000 A 
ATOM     13  S   UNL     1       2.157   3.905  21.258  0.00  0.00    +0.000 S 
ATOM     14  N   UNL     1       4.228   2.949  19.901  0.00  0.00    +0.000 N 
ATOM     15  N   UNL     1       5.093   3.233  18.892  0.00  0.00    +0.000 NA
ATOM     16  C   UNL     1       4.719   4.408  18.474  0.00  0.00    +0.000 A 
ATOM     17  H   UNL     1       4.262   2.078  20.418  0.00  0.00    +0.000 HD
ENDROOT
BRANCH   1  18
ATOM     18  C   UNL     1       6.476   4.528  16.756  0.00  0.00    +0.000 C 
BRANCH  18  19
ATOM     19  C   UNL     1       6.054   3.708  15.526  0.00  0.00    +0.000 C 
BRANCH  19  20
ATOM     20  C   UNL     1       6.574   4.284  14.212  0.00  0.00    +0.000 C 
BRANCH  20  21
ATOM     21  N   UNL     1       7.515   5.372  14.438  0.00  0.00    +0.000 NA
ATOM     22  H   UNL     1       8.137   5.457  13.635  0.00  0.00    +0.000 HD
ATOM     23  H   UNL     1       8.113   5.152  15.237  0.00  0.00    +0.000 HD
ENDBRANCH  20  21
ENDBRANCH  19  20
ENDBRANCH  18  19
ENDBRANCH   1  18
TORSDOF 4
ENDMDL
MODEL 2
REMARK VINA RESULT:      -6.9      1.122      1.823
REMARK  Name = 
REMARK  4 active torsions:
REMARK  status: ('A' for Active; 'I' for Inactive)
REMARK    1  A    between atoms: N_1  and  C_2
REMARK    2  A    between atoms: C_2  and  C_3
REMARK    3  A    between atoms: C_3  and  C_4
REMARK    4  A    between atoms: C_4  and  N_5
REMARK                            x       y       z     vdW  Elec       q    Type
REMARK                         _______ _______ _______ _____ _____    ______ ____
ROOT
ATOM      1  N   UNL     1       5.356   5.050  17.578  0.00  0.00    +0.000 N 
ATOM      2  C   UNL     1       4.858   6.239  17.061  0.00  0.00    +0.000 A 
ATOM      3  O   UNL     1       5.281   6.781  16.041  0.00  0.00    +0.000 OA
ATOM      4  C   UNL     1       3.752   6.879  17.798  0.00  0.00    +0.000 A 
ATOM      5  C   UNL     1       3.357   8.169  17.418  0.00  0.00    +0.000 A 
ATOM      6  C   UNL     1       2.327   8.787  18.103  0.00  0.00    +0.000 A 
ATOM      7  F   UNL     1       1.954  10.025  17.761  0.00  0.00    +0.000 F 
ATOM      8  C   UNL     1       1.687   8.137  19.146  0.00  0.00    +0.000 A 
ATOM      9  C   UNL     1       2.087   6.848  19.523  0.00  0.00    +0.000 A 
ATOM     10  C   UNL     1       3.136   6.199  18.860  0.00  0.00    +0.000 A 
ATOM     11  N   UNL     1       3.632   4.922  19.193  0.00  0.00    +0.000 N 
ATOM     12  C   UNL     1       3.255   3.979  20.132  0.00  0.00    +0.000 A 
ATOM     13  S   UNL     1       2.034   3.898  21.252  0.00  0.00    +0.000 S 
ATOM     14  N   UNL     1       4.164   2.932  19.998  0.00  0.00    +0.000 N 
ATOM     15  N   UNL     1       5.073   3.209  19.026  0.00  0.00    +0.000 NA
ATOM     16  C   UNL     1       4.718   4.380  18.581  0.00  0.00    +0.000 A 
ATOM     17  H   UNL     1       4.176   2.066  20.523  0.00  0.00    +0.000 HD
ENDROOT
BRANCH   1  18
ATOM     18  C   UNL     1       6.550   4.488  16.943  0.00  0.00    +0.000 C 
BRANCH  18  19
ATOM     19  C   UNL     1       7.779   4.611  17.857  0.00  0.00    +0.000 C 
BRANCH  19  20
ATOM     20  C   UNL     1       7.753   5.858  18.734  0.00  0.00    +0.000 C 
BRANCH  20  21
ATOM     21  N   UNL     1       7.837   5.522  20.149  0.00  0.00    +0.000 NA
ATOM     22  H   UNL     1       8.815   5.484  20.433  0.00  0.00    +0.000 HD
ATOM     23  H   UNL     1       7.459   4.586  20.305  0.00  0.00    +0.000 HD
ENDBRANCH  20  21
ENDBRANCH  19  20
ENDBRANCH  18  19
ENDBRANCH   1  18
TORSDOF 4
ENDMDL
MODEL 3
REMARK VINA RESULT:      -6.8      1.357      1.680
REMARK  Name = 
REMARK  4 active torsions:
REMARK  status: ('A' for Active; 'I' for Inactive)
REMARK    1  A    between atoms: N_1  and  C_2
REMARK    2  A    between atoms: C_2  and  C_3
REMARK    3  A    between atoms: C_3  and  C_4
REMARK    4  A    between atoms: C_4  and  N_5
REMARK                            x       y       z     vdW  Elec       q    Type
REMARK                         _______ _______ _______ _____ _____    ______ ____
ROOT
ATOM      1  N   UNL     1       4.655   4.910  17.870  0.00  0.00    +0.000 N 
ATOM      2  C   UNL     1       4.070   6.158  17.702  0.00  0.00    +0.000 A 
ATOM      3  O   UNL     1       4.327   6.923  16.774  0.00  0.00    +0.000 OA
ATOM      4  C   UNL     1       3.080   6.575  18.713  0.00  0.00    +0.000 A 
ATOM      5  C   UNL     1       2.616   7.897  18.685  0.00  0.00    +0.000 A 
ATOM      6  C   UNL     1       1.694   8.308  19.630  0.00  0.00    +0.000 A 
ATOM      7  F   UNL     1       1.257   9.573  19.623  0.00  0.00    +0.000 F 
ATOM      8  C   UNL     1       1.228   7.422  20.588  0.00  0.00    +0.000 A 
ATOM      9  C   UNL     1       1.697   6.101  20.613  0.00  0.00    +0.000 A 
ATOM     10  C   UNL     1       2.641   5.657  19.679  0.00  0.00    +0.000 A 
ATOM     11  N   UNL     1       3.198   4.362  19.651  0.00  0.00    +0.000 N 
ATOM     12  C   UNL     1       2.980   3.225  20.407  0.00  0.00    +0.000 A 
ATOM     13  S   UNL     1       1.945   2.852  21.648  0.00  0.00    +0.000 S 
ATOM     14  N   UNL     1       3.872   2.273  19.918  0.00  0.00    +0.000 N 
ATOM     15  N   UNL     1       4.619   2.792  18.908  0.00  0.00    +0.000 NA
ATOM     16  C   UNL     1       4.186   4.013  18.785  0.00  0.00    +0.000 A 
ATOM     17  H   UNL     1       3.974   1.316  20.235  0.00  0.00    +0.000 HD
ENDROOT
BRANCH   1  18
ATOM     18  C   UNL     1       5.746   4.551  16.961  0.00  0.00    +0.000 C 
BRANCH  18  19
ATOM     19  C   UNL     1       7.113   4.663  17.656  0.00  0.00    +0.000 C 
BRANCH  19  20
ATOM     20  C   UNL     1       7.541   6.106  17.909  0.00  0.00    +0.000 C 
BRANCH  20  21
ATOM     21  N   UNL     1       7.522   6.894  16.684  0.00  0.00    +0.000 NA
ATOM     22  H   UNL     1       8.024   6.396  15.950  0.00  0.00    +0.000 HD
ATOM     23  H   UNL     1       8.027   7.770  16.828  0.00  0.00    +0.000 HD
ENDBRANCH  20  21
ENDBRANCH  19  20
ENDBRANCH  18  19
ENDBRANCH   1  18
TORSDOF 4
ENDMDL
MODEL 4
REMARK VINA RESULT:      -6.8      2.862      3.976
REMARK  Name = 
REMARK  4 active torsions:
REMARK  status: ('A' for Active; 'I' for Inactive)
REMARK    1  A    between atoms: N_1  and  C_2
REMARK    2  A    between atoms: C_2  and  C_3
REMARK    3  A    between atoms: C_3  and  C_4
REMARK    4  A    between atoms: C_4  and  N_5
REMARK                            x       y       z     vdW  Elec       q    Type
REMARK                         _______ _______ _______ _____ _____    ______ ____
ROOT
ATOM      1  N   UNL     1       5.230   4.698  17.948  0.00  0.00    +0.000 N 
ATOM      2  C   UNL     1       4.809   3.829  18.946  0.00  0.00    +0.000 A 
ATOM      3  O   UNL     1       5.440   2.840  19.314  0.00  0.00    +0.000 OA
ATOM      4  C   UNL     1       3.517   4.128  19.593  0.00  0.00    +0.000 A 
ATOM      5  C   UNL     1       2.971   3.173  20.461  0.00  0.00    +0.000 A 
ATOM      6  C   UNL     1       1.757   3.434  21.070  0.00  0.00    +0.000 A 
ATOM      7  F   UNL     1       1.217   2.522  21.888  0.00  0.00    +0.000 F 
ATOM      8  C   UNL     1       1.092   4.626  20.832  0.00  0.00    +0.000 A 
ATOM      9  C   UNL     1       1.643   5.576  19.961  0.00  0.00    +0.000 A 
ATOM     10  C   UNL     1       2.863   5.338  19.317  0.00  0.00    +0.000 A 
ATOM     11  N   UNL     1       3.472   6.216  18.397  0.00  0.00    +0.000 N 
ATOM     12  C   UNL     1       3.137   7.473  17.928  0.00  0.00    +0.000 A 
ATOM     13  S   UNL     1       1.905   8.532  18.261  0.00  0.00    +0.000 S 
ATOM     14  N   UNL     1       4.121   7.801  16.999  0.00  0.00    +0.000 N 
ATOM     15  N   UNL     1       5.026   6.793  16.884  0.00  0.00    +0.000 NA
ATOM     16  C   UNL     1       4.608   5.892  17.724  0.00  0.00    +0.000 A 
ATOM     17  H   UNL     1       4.194   8.661  16.468  0.00  0.00    +0.000 HD
ENDROOT
BRANCH   1  18
ATOM     18  C   UNL     1       6.432   4.328  17.197  0.00  0.00    +0.000 C 
BRANCH  18  19
ATOM     19  C   UNL     1       6.072   3.708  15.837  0.00  0.00    +0.000 C 
BRANCH  19  20
ATOM     20  C   UNL     1       6.653   4.476  14.654  0.00  0.00    +0.000 C 
BRANCH  20  21
ATOM     21  N   UNL     1       7.483   5.590  15.092  0.00  0.00    +0.000 NA
ATOM     22  H   UNL     1       7.577   6.265  14.334  0.00  0.00    +0.000 HD
ATOM     23  H   UNL     1       8.427   5.259  15.296  0.00  0.00    +0.000 HD
ENDBRANCH  20  21
ENDBRANCH  19  20
ENDBRANCH  18  19
ENDBRANCH   1  18
TORSDOF 4
ENDMDL
MODEL 5
REMARK VINA RESULT:      -6.6      3.166      5.210
REMARK  Name = 
REMARK  4 active torsions:
REMARK  status: ('A' for Active; 'I' for Inactive)
REMARK    1  A    between atoms: N_1  and  C_2
REMARK    2  A    between atoms: C_2  and  C_3
REMARK    3  A    between atoms: C_3  and  C_4
REMARK    4  A    between atoms: C_4  and  N_5
REMARK                            x       y       z     vdW  Elec       q    Type
REMARK                         _______ _______ _______ _____ _____    ______ ____
ROOT
ATOM      1  N   UNL     1       3.124   4.265  19.662  0.00  0.00    +0.000 N 
ATOM      2  C   UNL     1       3.864   3.695  18.635  0.00  0.00    +0.000 A 
ATOM      3  O   UNL     1       4.123   2.496  18.552  0.00  0.00    +0.000 OA
ATOM      4  C   UNL     1       4.367   4.604  17.588  0.00  0.00    +0.000 A 
ATOM      5  C   UNL     1       5.275   4.099  16.648  0.00  0.00    +0.000 A 
ATOM      6  C   UNL     1       5.763   4.939  15.663  0.00  0.00    +0.000 A 
ATOM      7  F   UNL     1       6.644   4.472  14.771  0.00  0.00    +0.000 F 
ATOM      8  C   UNL     1       5.352   6.261  15.600  0.00  0.00    +0.000 A 
ATOM      9  C   UNL     1       4.445   6.761  16.545  0.00  0.00    +0.000 A 
ATOM     10  C   UNL     1       3.943   5.941  17.563  0.00  0.00    +0.000 A 
ATOM     11  N   UNL     1       3.060   6.366  18.577  0.00  0.00    +0.000 N 
ATOM     12  C   UNL     1       2.429   7.569  18.835  0.00  0.00    +0.000 A 
ATOM     13  S   UNL     1       2.385   9.033  18.057  0.00  0.00    +0.000 S 
ATOM     14  N   UNL     1       1.711   7.370  20.012  0.00  0.00    +0.000 N 
ATOM     15  N   UNL     1       1.891   6.105  20.475  0.00  0.00    +0.000 NA
ATOM     16  C   UNL     1       2.682   5.555  19.599  0.00  0.00    +0.000 A 
ATOM     17  H   UNL     1       1.120   8.044  20.485  0.00  0.00    +0.000 HD
ENDROOT
BRANCH   1  18
ATOM     18  C   UNL     1       2.751   3.399  20.783  0.00  0.00    +0.000 C 
BRANCH  18  19
ATOM     19  C   UNL     1       1.257   3.038  20.738  0.00  0.00    +0.000 C 
BRANCH  19  20
ATOM     20  C   UNL     1       0.764   2.697  19.335  0.00  0.00    +0.000 C 
BRANCH  20  21
ATOM     21  N   UNL     1       1.323   1.439  18.861  0.00  0.00    +0.000 NA
ATOM     22  H   UNL     1       2.050   1.125  19.502  0.00  0.00    +0.000 HD
ATOM     23  H   UNL     1       1.782   1.581  17.960  0.00  0.00    +0.000 HD
ENDBRANCH  20  21
ENDBRANCH  19  20
ENDBRANCH  18  19
ENDBRANCH   1  18
TORSDOF 4
ENDMDL
MODEL 6
REMARK VINA RESULT:      -6.6      1.643      1.903
REMARK  Name = 
REMARK  4 active torsions:
REMARK  status: ('A' for Active; 'I' for Inactive)
REMARK    1  A    between atoms: N_1  and  C_2
REMARK    2  A    between atoms: C_2  and  C_3
REMARK    3  A    between atoms: C_3  and  C_4
REMARK    4  A    between atoms: C_4  and  N_5
REMARK                            x       y       z     vdW  Elec       q    Type
REMARK                         _______ _______ _______ _____ _____    ______ ____
ROOT
ATOM      1  N   UNL     1       4.081   5.629  17.504  0.00  0.00    +0.000 N 
ATOM      2  C   UNL     1       3.430   6.854  17.565  0.00  0.00    +0.000 A 
ATOM      3  O   UNL     1       3.488   7.713  16.688  0.00  0.00    +0.000 OA
ATOM      4  C   UNL     1       2.625   7.124  18.771  0.00  0.00    +0.000 A 
ATOM      5  C   UNL     1       2.116   8.417  18.957  0.00  0.00    +0.000 A 
ATOM      6  C   UNL     1       1.366   8.690  20.085  0.00  0.00    +0.000 A 
ATOM      7  F   UNL     1       0.889   9.925  20.281  0.00  0.00    +0.000 F 
ATOM      8  C   UNL     1       1.112   7.698  21.018  0.00  0.00    +0.000 A 
ATOM      9  C   UNL     1       1.625   6.407  20.829  0.00  0.00    +0.000 A 
ATOM     10  C   UNL     1       2.401   6.100  19.704  0.00  0.00    +0.000 A 
ATOM     11  N   UNL     1       2.990   4.844  19.450  0.00  0.00    +0.000 N 
ATOM     12  C   UNL     1       2.953   3.633  20.116  0.00  0.00    +0.000 A 
ATOM     13  S   UNL     1       2.172   3.094  21.477  0.00  0.00    +0.000 S 
ATOM     14  N   UNL     1       3.774   2.779  19.386  0.00  0.00    +0.000 N 
ATOM     15  N   UNL     1       4.309   3.426  18.316  0.00  0.00    +0.000 NA
ATOM     16  C   UNL     1       3.816   4.629  18.394  0.00  0.00    +0.000 A 
ATOM     17  H   UNL     1       3.967   1.803  19.583  0.00  0.00    +0.000 HD
ENDROOT
BRANCH   1  18
ATOM     18  C   UNL     1       5.002   5.412  16.386  0.00  0.00    +0.000 C 
BRANCH  18  19
ATOM     19  C   UNL     1       6.430   5.855  16.744  0.00  0.00    +0.000 C 
BRANCH  19  20
ATOM     20  C   UNL     1       7.378   4.686  16.990  0.00  0.00    +0.000 C 
BRANCH  20  21
ATOM     21  N   UNL     1       7.429   4.323  18.400  0.00  0.00    +0.000 NA
ATOM     22  H   UNL     1       6.873   4.984  18.942  0.00  0.00    +0.000 HD
ATOM     23  H   UNL     1       8.386   4.408  18.745  0.00  0.00    +0.000 HD
ENDBRANCH  20  21
ENDBRANCH  19  20
ENDBRANCH  18  19
ENDBRANCH   1  18
TORSDOF 4
ENDMDL
MODEL 7
REMARK VINA RESULT:      -6.6      3.085      4.403
REMARK  Name = 
REMARK  4 active torsions:
REMARK  status: ('A' for Active; 'I' for Inactive)
REMARK    1  A    between atoms: N_1  and  C_2
REMARK    2  A    between atoms: C_2  and  C_3
REMARK    3  A    between atoms: C_3  and  C_4
REMARK    4  A    between atoms: C_4  and  N_5
REMARK                            x       y       z     vdW  Elec       q    Type
REMARK                         _______ _______ _______ _____ _____    ______ ____
ROOT
ATOM      1  N   UNL     1       5.224   4.795  17.939  0.00  0.00    +0.000 N 
ATOM      2  C   UNL     1       4.834   3.894  18.920  0.00  0.00    +0.000 A 
ATOM      3  O   UNL     1       5.493   2.915  19.263  0.00  0.00    +0.000 OA
ATOM      4  C   UNL     1       3.538   4.144  19.581  0.00  0.00    +0.000 A 
ATOM      5  C   UNL     1       3.023   3.157  20.431  0.00  0.00    +0.000 A 
ATOM      6  C   UNL     1       1.806   3.371  21.053  0.00  0.00    +0.000 A 
ATOM      7  F   UNL     1       1.296   2.428  21.854  0.00  0.00    +0.000 F 
ATOM      8  C   UNL     1       1.108   4.550  20.844  0.00  0.00    +0.000 A 
ATOM      9  C   UNL     1       1.628   5.533  19.990  0.00  0.00    +0.000 A 
ATOM     10  C   UNL     1       2.850   5.342  19.334  0.00  0.00    +0.000 A 
ATOM     11  N   UNL     1       3.429   6.255  18.430  0.00  0.00    +0.000 N 
ATOM     12  C   UNL     1       3.057   7.512  17.989  0.00  0.00    +0.000 A 
ATOM     13  S   UNL     1       1.799   8.530  18.352  0.00  0.00    +0.000 S 
ATOM     14  N   UNL     1       4.026   7.886  17.062  0.00  0.00    +0.000 N 
ATOM     15  N   UNL     1       4.958   6.906  16.920  0.00  0.00    +0.000 NA
ATOM     16  C   UNL     1       4.569   5.976  17.744  0.00  0.00    +0.000 A 
ATOM     17  H   UNL     1       4.073   8.759  16.549  0.00  0.00    +0.000 HD
ENDROOT
BRANCH   1  18
ATOM     18  C   UNL     1       6.431   4.473  17.173  0.00  0.00    +0.000 C 
BRANCH  18  19
ATOM     19  C   UNL     1       7.695   4.614  18.037  0.00  0.00    +0.000 C 
BRANCH  19  20
ATOM     20  C   UNL     1       7.672   5.844  18.939  0.00  0.00    +0.000 C 
BRANCH  20  21
ATOM     21  N   UNL     1       7.989   5.504  20.319  0.00  0.00    +0.000 NA
ATOM     22  H   UNL     1       7.776   6.297  20.923  0.00  0.00    +0.000 HD
ATOM     23  H   UNL     1       8.992   5.338  20.413  0.00  0.00    +0.000 HD
ENDBRANCH  20  21
ENDBRANCH  19  20
ENDBRANCH  18  19
ENDBRANCH   1  18
TORSDOF 4
ENDMDL
MODEL 8
REMARK VINA RESULT:      -6.5      2.686      4.243
REMARK  Name = 
REMARK  4 active torsions:
REMARK  status: ('A' for Active; 'I' for Inactive)
REMARK    1  A    between atoms: N_1  and  C_2
REMARK    2  A    between atoms: C_2  and  C_3
REMARK    3  A    between atoms: C_3  and  C_4
REMARK    4  A    between atoms: C_4  and  N_5
REMARK                            x       y       z     vdW  Elec       q    Type
REMARK                         _______ _______ _______ _____ _____    ______ ____
ROOT
ATOM      1  N   UNL     1       2.945   4.432  20.188  0.00  0.00    +0.000 N 
ATOM      2  C   UNL     1       2.195   5.600  20.231  0.00  0.00    +0.000 A 
ATOM      3  O   UNL     1       1.291   5.812  21.037  0.00  0.00    +0.000 OA
ATOM      4  C   UNL     1       2.518   6.640  19.236  0.00  0.00    +0.000 A 
ATOM      5  C   UNL     1       1.660   7.743  19.123  0.00  0.00    +0.000 A 
ATOM      6  C   UNL     1       1.943   8.723  18.190  0.00  0.00    +0.000 A 
ATOM      7  F   UNL     1       1.122   9.772  18.063  0.00  0.00    +0.000 F 
ATOM      8  C   UNL     1       3.064   8.622  17.382  0.00  0.00    +0.000 A 
ATOM      9  C   UNL     1       3.917   7.516  17.497  0.00  0.00    +0.000 A 
ATOM     10  C   UNL     1       3.652   6.498  18.422  0.00  0.00    +0.000 A 
ATOM     11  N   UNL     1       4.429   5.332  18.581  0.00  0.00    +0.000 N 
ATOM     12  C   UNL     1       5.598   4.891  17.990  0.00  0.00    +0.000 A 
ATOM     13  S   UNL     1       6.636   5.540  16.870  0.00  0.00    +0.000 S 
ATOM     14  N   UNL     1       5.846   3.636  18.542  0.00  0.00    +0.000 N 
ATOM     15  N   UNL     1       4.874   3.304  19.432  0.00  0.00    +0.000 NA
ATOM     16  C   UNL     1       4.071   4.329  19.424  0.00  0.00    +0.000 A 
ATOM     17  H   UNL     1       6.633   3.029  18.344  0.00  0.00    +0.000 HD
ENDROOT
BRANCH   1  18
ATOM     18  C   UNL     1       2.534   3.336  21.068  0.00  0.00    +0.000 C 
BRANCH  18  19
ATOM     19  C   UNL     1       1.242   2.672  20.568  0.00  0.00    +0.000 C 
BRANCH  19  20
ATOM     20  C   UNL     1       1.242   2.413  19.065  0.00  0.00    +0.000 C 
BRANCH  20  21
ATOM     21  N   UNL     1       2.239   1.419  18.691  0.00  0.00    +0.000 NA
ATOM     22  H   UNL     1       2.970   1.385  19.401  0.00  0.00    +0.000 HD
ATOM     23  H   UNL     1       2.700   1.700  17.824  0.00  0.00    +0.000 HD
ENDBRANCH  20  21
ENDBRANCH  19  20
ENDBRANCH  18  19
ENDBRANCH   1  18
TORSDOF 4
ENDMDL
MODEL 9
REMARK VINA RESULT:      -6.3      1.914      2.323
REMARK  Name = 
REMARK  4 active torsions:
REMARK  status: ('A' for Active; 'I' for Inactive)
REMARK    1  A    between atoms: N_1  and  C_2
REMARK    2  A    between atoms: C_2  and  C_3
REMARK    3  A    between atoms: C_3  and  C_4
REMARK    4  A    between atoms: C_4  and  N_5
REMARK                            x       y       z     vdW  Elec       q    Type
REMARK                         _______ _______ _______ _____ _____    ______ ____
ROOT
ATOM      1  N   UNL     1       4.498   5.662  17.202  0.00  0.00    +0.000 N 
ATOM      2  C   UNL     1       3.839   6.777  17.701  0.00  0.00    +0.000 A 
ATOM      3  O   UNL     1       3.979   7.918  17.264  0.00  0.00    +0.000 OA
ATOM      4  C   UNL     1       2.918   6.559  18.833  0.00  0.00    +0.000 A 
ATOM      5  C   UNL     1       2.388   7.680  19.486  0.00  0.00    +0.000 A 
ATOM      6  C   UNL     1       1.529   7.494  20.554  0.00  0.00    +0.000 A 
ATOM      7  F   UNL     1       1.030   8.557  21.196  0.00  0.00    +0.000 F 
ATOM      8  C   UNL     1       1.190   6.216  20.969  0.00  0.00    +0.000 A 
ATOM      9  C   UNL     1       1.725   5.098  20.313  0.00  0.00    +0.000 A 
ATOM     10  C   UNL     1       2.609   5.251  19.238  0.00  0.00    +0.000 A 
ATOM     11  N   UNL     1       3.225   4.189  18.545  0.00  0.00    +0.000 N 
ATOM     12  C   UNL     1       3.129   2.814  18.648  0.00  0.00    +0.000 A 
ATOM     13  S   UNL     1       2.221   1.793  19.590  0.00  0.00    +0.000 S 
ATOM     14  N   UNL     1       4.023   2.304  17.709  0.00  0.00    +0.000 N 
ATOM     15  N   UNL     1       4.656   3.313  17.054  0.00  0.00    +0.000 NA
ATOM     16  C   UNL     1       4.153   4.395  17.573  0.00  0.00    +0.000 A 
ATOM     17  H   UNL     1       4.199   1.327  17.505  0.00  0.00    +0.000 HD
ENDROOT
BRANCH   1  18
ATOM     18  C   UNL     1       5.526   5.889  16.182  0.00  0.00    +0.000 C 
BRANCH  18  19
ATOM     19  C   UNL     1       6.828   6.413  16.808  0.00  0.00    +0.000 C 
BRANCH  19  20
ATOM     20  C   UNL     1       7.451   5.438  17.802  0.00  0.00    +0.000 C 
BRANCH  20  21
ATOM     21  N   UNL     1       7.864   4.201  17.154  0.00  0.00    +0.000 NA
ATOM     22  H   UNL     1       8.819   4.297  16.811  0.00  0.00    +0.000 HD
ATOM     23  H   UNL     1       7.283   4.031  16.332  0.00  0.00    +0.000 HD
ENDBRANCH  20  21
ENDBRANCH  19  20
ENDBRANCH  18  19
ENDBRANCH   1  18
TORSDOF 4
ENDMDL
