MODEL 1
REMARK VINA RESULT:      -6.7      0.000      0.000
REMARK  Name = 
REMARK  8 active torsions:
REMARK  status: ('A' for Active; 'I' for Inactive)
REMARK    1  A    between atoms: C_4  and  C_5
REMARK    2  A    between atoms: C_5  and  N_6
REMARK    3  A    between atoms: N_6  and  C_7
REMARK    4  A    between atoms: C_7  and  C_8
REMARK    5  A    between atoms: C_11  and  O_12
REMARK    6  A    between atoms: O_12  and  C_13
REMARK    7  A    between atoms: C_13  and  C_14
REMARK    8  A    between atoms: N_20  and  C_21
REMARK                            x       y       z     vdW  Elec       q    Type
REMARK                         _______ _______ _______ _____ _____    ______ ____
ROOT
ATOM      1  N   UNL     1       6.416   4.515  18.227  0.00  0.00    +0.000 NA
ATOM      2  H   UNL     1       5.705   3.961  17.754  0.00  0.00    +0.000 HD
ENDROOT
BRANCH   1   3
ATOM      3  C   UNL     1       5.807   5.688  18.839  0.00  0.00    +0.000 C 
BRANCH   3   7
ATOM      4  O   UNL     1       1.366   4.320  17.348  0.00  0.00    +0.000 OA
ATOM      5  C   UNL     1       2.340   4.523  18.053  0.00  0.00    +0.000 C 
ATOM      6  C   UNL     1       3.496   5.438  17.697  0.00  0.00    +0.000 C 
ATOM      7  C   UNL     1       4.297   5.527  18.997  0.00  0.00    +0.000 C 
ATOM      8  C   UNL     1       3.985   4.205  19.676  0.00  0.00    +0.000 C 
ATOM      9  N   UNL     1       2.641   3.917  19.274  0.00  0.00    +0.000 N 
BRANCH   9  10
ATOM     10  C   UNL     1       1.993   2.734  19.747  0.00  0.00    +0.000 C 
ATOM     11  C   UNL     1       0.968   2.813  20.848  0.00  0.00    +0.000 C 
ATOM     12  C   UNL     1       0.548   2.443  19.458  0.00  0.00    +0.000 C 
ENDBRANCH   9  10
ENDBRANCH   3   7
ENDBRANCH   1   3
BRANCH   1  13
ATOM     13  C   UNL     1       7.443   4.912  17.255  0.00  0.00    +0.000 C 
BRANCH  13  14
ATOM     14  C   UNL     1       7.028   4.529  15.858  0.00  0.00    +0.000 A 
ATOM     15  C   UNL     1       7.703   5.086  14.769  0.00  0.00    +0.000 A 
ATOM     16  C   UNL     1       7.303   4.809  13.472  0.00  0.00    +0.000 A 
ATOM     17  C   UNL     1       6.226   3.951  13.219  0.00  0.00    +0.000 A 
ATOM     18  C   UNL     1       5.575   3.354  14.297  0.00  0.00    +0.000 A 
ATOM     19  C   UNL     1       5.970   3.643  15.614  0.00  0.00    +0.000 A 
BRANCH  17  20
ATOM     20  O   UNL     1       5.752   3.656  11.965  0.00  0.00    +0.000 OA
BRANCH  20  21
ATOM     21  C   UNL     1       5.447   2.271  11.760  0.00  0.00    +0.000 C 
BRANCH  21  22
ATOM     22  C   UNL     1       6.451   1.581  10.859  0.00  0.00    +0.000 C 
ATOM     23  F   UNL     1       7.702   1.966  11.236  0.00  0.00    +0.000 F 
ATOM     24  F   UNL     1       6.399   0.239  11.040  0.00  0.00    +0.000 F 
ENDBRANCH  21  22
ENDBRANCH  20  21
ENDBRANCH  17  20
ENDBRANCH  13  14
ENDBRANCH   1  13
TORSDOF 8
ENDMDL
MODEL 2
REMARK VINA RESULT:      -6.7      1.708      2.176
REMARK  Name = 
REMARK  8 active torsions:
REMARK  status: ('A' for Active; 'I' for Inactive)
REMARK    1  A    between atoms: C_4  and  C_5
REMARK    2  A    between atoms: C_5  and  N_6
REMARK    3  A    between atoms: N_6  and  C_7
REMARK    4  A    between atoms: C_7  and  C_8
REMARK    5  A    between atoms: C_11  and  O_12
REMARK    6  A    between atoms: O_12  and  C_13
REMARK    7  A    between atoms: C_13  and  C_14
REMARK    8  A    between atoms: N_20  and  C_21
REMARK                            x       y       z     vdW  Elec       q    Type
REMARK                         _______ _______ _______ _____ _____    ______ ____
ROOT
ATOM      1  N   UNL     1       6.196   4.351  17.930  0.00  0.00    +0.000 NA
ATOM      2  H   UNL     1       5.405   3.955  17.427  0.00  0.00    +0.000 HD
ENDROOT
BRANCH   1   3
ATOM      3  C   UNL     1       5.733   5.369  18.863  0.00  0.00    +0.000 C 
BRANCH   3   7
ATOM      4  O   UNL     1       1.231   4.214  17.373  0.00  0.00    +0.000 OA
ATOM      5  C   UNL     1       2.163   4.579  18.070  0.00  0.00    +0.000 C 
ATOM      6  C   UNL     1       3.535   4.969  17.552  0.00  0.00    +0.000 C 
ATOM      7  C   UNL     1       4.222   5.573  18.778  0.00  0.00    +0.000 C 
ATOM      8  C   UNL     1       3.538   4.861  19.933  0.00  0.00    +0.000 C 
ATOM      9  N   UNL     1       2.203   4.643  19.463  0.00  0.00    +0.000 N 
BRANCH   9  10
ATOM     10  C   UNL     1       1.245   4.000  20.309  0.00  0.00    +0.000 C 
ATOM     11  C   UNL     1       1.142   2.498  20.340  0.00  0.00    +0.000 C 
ATOM     12  C   UNL     1       1.649   3.240  21.540  0.00  0.00    +0.000 C 
ENDBRANCH   9  10
ENDBRANCH   3   7
ENDBRANCH   1   3
BRANCH   1  13
ATOM     13  C   UNL     1       7.142   4.925  16.965  0.00  0.00    +0.000 C 
BRANCH  13  14
ATOM     14  C   UNL     1       6.723   4.603  15.554  0.00  0.00    +0.000 A 
ATOM     15  C   UNL     1       5.532   3.904  15.340  0.00  0.00    +0.000 A 
ATOM     16  C   UNL     1       5.151   3.531  14.060  0.00  0.00    +0.000 A 
ATOM     17  C   UNL     1       5.940   3.860  12.951  0.00  0.00    +0.000 A 
ATOM     18  C   UNL     1       7.105   4.596  13.150  0.00  0.00    +0.000 A 
ATOM     19  C   UNL     1       7.501   4.965  14.447  0.00  0.00    +0.000 A 
BRANCH  17  20
ATOM     20  O   UNL     1       5.645   3.496  11.660  0.00  0.00    +0.000 OA
BRANCH  20  21
ATOM     21  C   UNL     1       4.303   3.028  11.472  0.00  0.00    +0.000 C 
BRANCH  21  22
ATOM     22  C   UNL     1       3.684   3.539  10.187  0.00  0.00    +0.000 C 
ATOM     23  F   UNL     1       2.658   2.710   9.846  0.00  0.00    +0.000 F 
ATOM     24  F   UNL     1       3.132   4.761  10.386  0.00  0.00    +0.000 F 
ENDBRANCH  21  22
ENDBRANCH  20  21
ENDBRANCH  17  20
ENDBRANCH  13  14
ENDBRANCH   1  13
TORSDOF 8
ENDMDL
MODEL 3
REMARK VINA RESULT:      -6.7      5.115      8.257
REMARK  Name = 
REMARK  8 active torsions:
REMARK  status: ('A' for Active; 'I' for Inactive)
REMARK    1  A    between atoms: C_4  and  C_5
REMARK    2  A    between atoms: C_5  and  N_6
REMARK    3  A    between atoms: N_6  and  C_7
REMARK    4  A    between atoms: C_7  and  C_8
REMARK    5  A    between atoms: C_11  and  O_12
REMARK    6  A    between atoms: O_12  and  C_13
REMARK    7  A    between atoms: C_13  and  C_14
REMARK    8  A    between atoms: N_20  and  C_21
REMARK                            x       y       z     vdW  Elec       q    Type
REMARK                         _______ _______ _______ _____ _____    ______ ____
ROOT
ATOM      1  N   UNL     1       2.489   2.866  17.206  0.00  0.00    +0.000 NA
ATOM      2  H   UNL     1       2.122   2.161  16.570  0.00  0.00    +0.000 HD
ENDROOT
BRANCH   1   3
ATOM      3  C   UNL     1       3.721   2.392  17.818  0.00  0.00    +0.000 C 
BRANCH   3   7
ATOM      4  O   UNL     1       5.896   6.130  15.556  0.00  0.00    +0.000 OA
ATOM      5  C   UNL     1       5.635   5.263  16.374  0.00  0.00    +0.000 C 
ATOM      6  C   UNL     1       4.716   4.083  16.127  0.00  0.00    +0.000 C 
ATOM      7  C   UNL     1       4.934   3.196  17.353  0.00  0.00    +0.000 C 
ATOM      8  C   UNL     1       5.334   4.194  18.425  0.00  0.00    +0.000 C 
ATOM      9  N   UNL     1       6.048   5.207  17.706  0.00  0.00    +0.000 N 
BRANCH   9  10
ATOM     10  C   UNL     1       6.603   6.323  18.408  0.00  0.00    +0.000 C 
ATOM     11  C   UNL     1       8.042   6.306  18.851  0.00  0.00    +0.000 C 
ATOM     12  C   UNL     1       7.600   7.250  17.773  0.00  0.00    +0.000 C 
ENDBRANCH   9  10
ENDBRANCH   3   7
ENDBRANCH   1   3
BRANCH   1  13
ATOM     13  C   UNL     1       1.480   3.159  18.232  0.00  0.00    +0.000 C 
BRANCH  13  14
ATOM     14  C   UNL     1       1.693   4.534  18.810  0.00  0.00    +0.000 A 
ATOM     15  C   UNL     1       1.508   4.734  20.180  0.00  0.00    +0.000 A 
ATOM     16  C   UNL     1       1.629   5.999  20.733  0.00  0.00    +0.000 A 
ATOM     17  C   UNL     1       1.955   7.103  19.937  0.00  0.00    +0.000 A 
ATOM     18  C   UNL     1       2.186   6.907  18.578  0.00  0.00    +0.000 A 
ATOM     19  C   UNL     1       2.052   5.628  18.011  0.00  0.00    +0.000 A 
BRANCH  17  20
ATOM     20  O   UNL     1       2.058   8.389  20.407  0.00  0.00    +0.000 OA
BRANCH  20  21
ATOM     21  C   UNL     1       1.489   8.589  21.707  0.00  0.00    +0.000 C 
BRANCH  21  22
ATOM     22  C   UNL     1       0.068   9.110  21.646  0.00  0.00    +0.000 C 
ATOM     23  F   UNL     1      -0.115   9.720  20.442  0.00  0.00    +0.000 F 
ATOM     24  F   UNL     1      -0.812   8.079  21.685  0.00  0.00    +0.000 F 
ENDBRANCH  21  22
ENDBRANCH  20  21
ENDBRANCH  17  20
ENDBRANCH  13  14
ENDBRANCH   1  13
TORSDOF 8
ENDMDL
MODEL 4
REMARK VINA RESULT:      -6.6      6.173      7.828
REMARK  Name = 
REMARK  8 active torsions:
REMARK  status: ('A' for Active; 'I' for Inactive)
REMARK    1  A    between atoms: C_4  and  C_5
REMARK    2  A    between atoms: C_5  and  N_6
REMARK    3  A    between atoms: N_6  and  C_7
REMARK    4  A    between atoms: C_7  and  C_8
REMARK    5  A    between atoms: C_11  and  O_12
REMARK    6  A    between atoms: O_12  and  C_13
REMARK    7  A    between atoms: C_13  and  C_14
REMARK    8  A    between atoms: N_20  and  C_21
REMARK                            x       y       z     vdW  Elec       q    Type
REMARK                         _______ _______ _______ _____ _____    ______ ____
ROOT
ATOM      1  N   UNL     1       1.184   8.941  18.028  0.00  0.00    +0.000 NA
ATOM      2  H   UNL     1       0.727   9.057  17.125  0.00  0.00    +0.000 HD
ENDROOT
BRANCH   1   3
ATOM      3  C   UNL     1       1.049  10.159  18.814  0.00  0.00    +0.000 C 
BRANCH   3   7
ATOM      4  O   UNL     1       0.094   9.902  23.594  0.00  0.00    +0.000 OA
ATOM      5  C   UNL     1      -0.009  10.145  22.403  0.00  0.00    +0.000 C 
ATOM      6  C   UNL     1       0.821   9.501  21.309  0.00  0.00    +0.000 C 
ATOM      7  C   UNL     1       0.135   9.957  20.022  0.00  0.00    +0.000 C 
ATOM      8  C   UNL     1      -0.490  11.282  20.424  0.00  0.00    +0.000 C 
ATOM      9  N   UNL     1      -0.831  11.100  21.803  0.00  0.00    +0.000 N 
BRANCH   9  10
ATOM     10  C   UNL     1      -1.471  12.156  22.525  0.00  0.00    +0.000 C 
ATOM     11  C   UNL     1      -2.831  12.649  22.110  0.00  0.00    +0.000 C 
ATOM     12  C   UNL     1      -2.664  11.914  23.405  0.00  0.00    +0.000 C 
ENDBRANCH   9  10
ENDBRANCH   3   7
ENDBRANCH   1   3
BRANCH   1  13
ATOM     13  C   UNL     1       2.600   8.618  17.812  0.00  0.00    +0.000 C 
BRANCH  13  14
ATOM     14  C   UNL     1       2.912   7.232  18.311  0.00  0.00    +0.000 A 
ATOM     15  C   UNL     1       3.708   6.389  17.531  0.00  0.00    +0.000 A 
ATOM     16  C   UNL     1       3.957   5.085  17.927  0.00  0.00    +0.000 A 
ATOM     17  C   UNL     1       3.434   4.585  19.125  0.00  0.00    +0.000 A 
ATOM     18  C   UNL     1       2.677   5.431  19.932  0.00  0.00    +0.000 A 
ATOM     19  C   UNL     1       2.411   6.750  19.527  0.00  0.00    +0.000 A 
BRANCH  17  20
ATOM     20  O   UNL     1       3.610   3.296  19.565  0.00  0.00    +0.000 OA
BRANCH  20  21
ATOM     21  C   UNL     1       2.402   2.645  19.978  0.00  0.00    +0.000 C 
BRANCH  21  22
ATOM     22  C   UNL     1       1.625   2.067  18.812  0.00  0.00    +0.000 C 
ATOM     23  F   UNL     1       0.728   3.001  18.389  0.00  0.00    +0.000 F 
ATOM     24  F   UNL     1       2.454   1.837  17.764  0.00  0.00    +0.000 F 
ENDBRANCH  21  22
ENDBRANCH  20  21
ENDBRANCH  17  20
ENDBRANCH  13  14
ENDBRANCH   1  13
TORSDOF 8
ENDMDL
MODEL 5
REMARK VINA RESULT:      -6.5      2.217      3.614
REMARK  Name = 
REMARK  8 active torsions:
REMARK  status: ('A' for Active; 'I' for Inactive)
REMARK    1  A    between atoms: C_4  and  C_5
REMARK    2  A    between atoms: C_5  and  N_6
REMARK    3  A    between atoms: N_6  and  C_7
REMARK    4  A    between atoms: C_7  and  C_8
REMARK    5  A    between atoms: C_11  and  O_12
REMARK    6  A    between atoms: O_12  and  C_13
REMARK    7  A    between atoms: C_13  and  C_14
REMARK    8  A    between atoms: N_20  and  C_21
REMARK                            x       y       z     vdW  Elec       q    Type
REMARK                         _______ _______ _______ _____ _____    ______ ____
ROOT
ATOM      1  N   UNL     1       3.002   6.194  20.160  0.00  0.00    +0.000 NA
ATOM      2  H   UNL     1       3.551   5.353  19.991  0.00  0.00    +0.000 HD
ENDROOT
BRANCH   1   3
ATOM      3  C   UNL     1       1.801   5.861  20.913  0.00  0.00    +0.000 C 
BRANCH   3   7
ATOM      4  O   UNL     1       0.280   1.943  18.432  0.00  0.00    +0.000 OA
ATOM      5  C   UNL     1       0.896   2.659  19.204  0.00  0.00    +0.000 C 
ATOM      6  C   UNL     1       0.464   4.047  19.636  0.00  0.00    +0.000 C 
ATOM      7  C   UNL     1       1.431   4.386  20.771  0.00  0.00    +0.000 C 
ATOM      8  C   UNL     1       2.666   3.575  20.416  0.00  0.00    +0.000 C 
ATOM      9  N   UNL     1       2.140   2.403  19.783  0.00  0.00    +0.000 N 
BRANCH   9  10
ATOM     10  C   UNL     1       3.029   1.381  19.324  0.00  0.00    +0.000 C 
ATOM     11  C   UNL     1       3.719   1.513  17.992  0.00  0.00    +0.000 C 
ATOM     12  C   UNL     1       4.516   1.584  19.260  0.00  0.00    +0.000 C 
ENDBRANCH   9  10
ENDBRANCH   3   7
ENDBRANCH   1   3
BRANCH   1  13
ATOM     13  C   UNL     1       2.652   6.806  18.872  0.00  0.00    +0.000 C 
BRANCH  13  14
ATOM     14  C   UNL     1       3.649   6.419  17.811  0.00  0.00    +0.000 A 
ATOM     15  C   UNL     1       4.281   7.421  17.070  0.00  0.00    +0.000 A 
ATOM     16  C   UNL     1       5.151   7.098  16.041  0.00  0.00    +0.000 A 
ATOM     17  C   UNL     1       5.433   5.763  15.731  0.00  0.00    +0.000 A 
ATOM     18  C   UNL     1       4.844   4.757  16.493  0.00  0.00    +0.000 A 
ATOM     19  C   UNL     1       3.951   5.080  17.529  0.00  0.00    +0.000 A 
BRANCH  17  20
ATOM     20  O   UNL     1       6.257   5.367  14.706  0.00  0.00    +0.000 OA
BRANCH  20  21
ATOM     21  C   UNL     1       6.345   3.946  14.537  0.00  0.00    +0.000 C 
BRANCH  21  22
ATOM     22  C   UNL     1       6.076   3.512  13.111  0.00  0.00    +0.000 C 
ATOM     23  F   UNL     1       4.808   3.882  12.781  0.00  0.00    +0.000 F 
ATOM     24  F   UNL     1       6.897   4.172  12.256  0.00  0.00    +0.000 F 
ENDBRANCH  21  22
ENDBRANCH  20  21
ENDBRANCH  17  20
ENDBRANCH  13  14
ENDBRANCH   1  13
TORSDOF 8
ENDMDL
MODEL 6
REMARK VINA RESULT:      -6.4      6.880      9.463
REMARK  Name = 
REMARK  8 active torsions:
REMARK  status: ('A' for Active; 'I' for Inactive)
REMARK    1  A    between atoms: C_4  and  C_5
REMARK    2  A    between atoms: C_5  and  N_6
REMARK    3  A    between atoms: N_6  and  C_7
REMARK    4  A    between atoms: C_7  and  C_8
REMARK    5  A    between atoms: C_11  and  O_12
REMARK    6  A    between atoms: O_12  and  C_13
REMARK    7  A    between atoms: C_13  and  C_14
REMARK    8  A    between atoms: N_20  and  C_21
REMARK                            x       y       z     vdW  Elec       q    Type
REMARK                         _______ _______ _______ _____ _____    ______ ____
ROOT
ATOM      1  N   UNL     1       2.646   6.810  17.698  0.00  0.00    +0.000 NA
ATOM      2  H   UNL     1       2.086   6.385  18.435  0.00  0.00    +0.000 HD
ENDROOT
BRANCH   1   3
ATOM      3  C   UNL     1       3.989   6.247  17.708  0.00  0.00    +0.000 C 
BRANCH   3   7
ATOM      4  O   UNL     1       5.054   2.235  20.275  0.00  0.00    +0.000 OA
ATOM      5  C   UNL     1       4.456   3.048  19.589  0.00  0.00    +0.000 C 
ATOM      6  C   UNL     1       5.100   4.208  18.856  0.00  0.00    +0.000 C 
ATOM      7  C   UNL     1       3.973   4.743  17.971  0.00  0.00    +0.000 C 
ATOM      8  C   UNL     1       2.725   4.367  18.750  0.00  0.00    +0.000 C 
ATOM      9  N   UNL     1       3.076   3.138  19.396  0.00  0.00    +0.000 N 
BRANCH   9  10
ATOM     10  C   UNL     1       2.120   2.465  20.218  0.00  0.00    +0.000 C 
ATOM     11  C   UNL     1       1.929   2.871  21.656  0.00  0.00    +0.000 C 
ATOM     12  C   UNL     1       0.840   3.119  20.656  0.00  0.00    +0.000 C 
ENDBRANCH   9  10
ENDBRANCH   3   7
ENDBRANCH   1   3
BRANCH   1  13
ATOM     13  C   UNL     1       2.692   8.263  17.907  0.00  0.00    +0.000 C 
BRANCH  13  14
ATOM     14  C   UNL     1       1.774   8.668  19.029  0.00  0.00    +0.000 A 
ATOM     15  C   UNL     1       0.969   9.800  18.877  0.00  0.00    +0.000 A 
ATOM     16  C   UNL     1       0.163  10.240  19.916  0.00  0.00    +0.000 A 
ATOM     17  C   UNL     1       0.122   9.553  21.134  0.00  0.00    +0.000 A 
ATOM     18  C   UNL     1       0.885   8.397  21.280  0.00  0.00    +0.000 A 
ATOM     19  C   UNL     1       1.713   7.955  20.234  0.00  0.00    +0.000 A 
BRANCH  17  20
ATOM     20  O   UNL     1      -0.624   9.947  22.217  0.00  0.00    +0.000 OA
BRANCH  20  21
ATOM     21  C   UNL     1      -0.518  11.342  22.529  0.00  0.00    +0.000 C 
BRANCH  21  22
ATOM     22  C   UNL     1      -1.869  12.020  22.632  0.00  0.00    +0.000 C 
ATOM     23  F   UNL     1      -2.492  11.922  21.424  0.00  0.00    +0.000 F 
ATOM     24  F   UNL     1      -2.658  11.363  23.518  0.00  0.00    +0.000 F 
ENDBRANCH  21  22
ENDBRANCH  20  21
ENDBRANCH  17  20
ENDBRANCH  13  14
ENDBRANCH   1  13
TORSDOF 8
ENDMDL
MODEL 7
REMARK VINA RESULT:      -6.4      5.960      9.098
REMARK  Name = 
REMARK  8 active torsions:
REMARK  status: ('A' for Active; 'I' for Inactive)
REMARK    1  A    between atoms: C_4  and  C_5
REMARK    2  A    between atoms: C_5  and  N_6
REMARK    3  A    between atoms: N_6  and  C_7
REMARK    4  A    between atoms: C_7  and  C_8
REMARK    5  A    between atoms: C_11  and  O_12
REMARK    6  A    between atoms: O_12  and  C_13
REMARK    7  A    between atoms: C_13  and  C_14
REMARK    8  A    between atoms: N_20  and  C_21
REMARK                            x       y       z     vdW  Elec       q    Type
REMARK                         _______ _______ _______ _____ _____    ______ ____
ROOT
ATOM      1  N   UNL     1       3.124   5.371  18.109  0.00  0.00    +0.000 NA
ATOM      2  H   UNL     1       2.374   4.706  18.290  0.00  0.00    +0.000 HD
ENDROOT
BRANCH   1   3
ATOM      3  C   UNL     1       4.347   4.660  17.766  0.00  0.00    +0.000 C 
BRANCH   3   7
ATOM      4  O   UNL     1       7.937   5.485  14.564  0.00  0.00    +0.000 OA
ATOM      5  C   UNL     1       6.864   5.156  15.044  0.00  0.00    +0.000 C 
ATOM      6  C   UNL     1       6.365   5.564  16.416  0.00  0.00    +0.000 C 
ATOM      7  C   UNL     1       4.905   5.108  16.416  0.00  0.00    +0.000 C 
ATOM      8  C   UNL     1       4.917   3.938  15.447  0.00  0.00    +0.000 C 
ATOM      9  N   UNL     1       5.919   4.293  14.488  0.00  0.00    +0.000 N 
BRANCH   9  10
ATOM     10  C   UNL     1       6.198   3.419  13.391  0.00  0.00    +0.000 C 
ATOM     11  C   UNL     1       5.320   3.425  12.168  0.00  0.00    +0.000 C 
ATOM     12  C   UNL     1       6.730   3.925  12.081  0.00  0.00    +0.000 C 
ENDBRANCH   9  10
ENDBRANCH   3   7
ENDBRANCH   1   3
BRANCH   1  13
ATOM     13  C   UNL     1       3.326   6.202  19.303  0.00  0.00    +0.000 C 
BRANCH  13  14
ATOM     14  C   UNL     1       2.435   7.416  19.262  0.00  0.00    +0.000 A 
ATOM     15  C   UNL     1       1.794   7.831  20.432  0.00  0.00    +0.000 A 
ATOM     16  C   UNL     1       0.913   8.901  20.416  0.00  0.00    +0.000 A 
ATOM     17  C   UNL     1       0.658   9.603  19.232  0.00  0.00    +0.000 A 
ATOM     18  C   UNL     1       1.327   9.227  18.070  0.00  0.00    +0.000 A 
ATOM     19  C   UNL     1       2.211   8.134  18.080  0.00  0.00    +0.000 A 
BRANCH  17  20
ATOM     20  O   UNL     1      -0.225  10.650  19.131  0.00  0.00    +0.000 OA
BRANCH  20  21
ATOM     21  C   UNL     1      -1.166  10.526  18.058  0.00  0.00    +0.000 C 
BRANCH  21  22
ATOM     22  C   UNL     1      -1.899  11.821  17.774  0.00  0.00    +0.000 C 
ATOM     23  F   UNL     1      -2.725  12.086  18.824  0.00  0.00    +0.000 F 
ATOM     24  F   UNL     1      -1.022  12.853  17.713  0.00  0.00    +0.000 F 
ENDBRANCH  21  22
ENDBRANCH  20  21
ENDBRANCH  17  20
ENDBRANCH  13  14
ENDBRANCH   1  13
TORSDOF 8
ENDMDL
MODEL 8
REMARK VINA RESULT:      -6.4      7.069      9.665
REMARK  Name = 
REMARK  8 active torsions:
REMARK  status: ('A' for Active; 'I' for Inactive)
REMARK    1  A    between atoms: C_4  and  C_5
REMARK    2  A    between atoms: C_5  and  N_6
REMARK    3  A    between atoms: N_6  and  C_7
REMARK    4  A    between atoms: C_7  and  C_8
REMARK    5  A    between atoms: C_11  and  O_12
REMARK    6  A    between atoms: O_12  and  C_13
REMARK    7  A    between atoms: C_13  and  C_14
REMARK    8  A    between atoms: N_20  and  C_21
REMARK                            x       y       z     vdW  Elec       q    Type
REMARK                         _______ _______ _______ _____ _____    ______ ____
ROOT
ATOM      1  N   UNL     1       2.780   6.906  17.915  0.00  0.00    +0.000 NA
ATOM      2  H   UNL     1       2.482   6.527  18.812  0.00  0.00    +0.000 HD
ENDROOT
BRANCH   1   3
ATOM      3  C   UNL     1       4.151   6.503  17.636  0.00  0.00    +0.000 C 
BRANCH   3   7
ATOM      4  O   UNL     1       5.004   2.375  20.097  0.00  0.00    +0.000 OA
ATOM      5  C   UNL     1       4.539   3.177  19.304  0.00  0.00    +0.000 C 
ATOM      6  C   UNL     1       5.162   4.514  18.952  0.00  0.00    +0.000 C 
ATOM      7  C   UNL     1       4.335   4.991  17.757  0.00  0.00    +0.000 C 
ATOM      8  C   UNL     1       2.991   4.324  17.989  0.00  0.00    +0.000 C 
ATOM      9  N   UNL     1       3.324   3.083  18.622  0.00  0.00    +0.000 N 
BRANCH   9  10
ATOM     10  C   UNL     1       2.290   2.163  18.978  0.00  0.00    +0.000 C 
ATOM     11  C   UNL     1       1.391   2.442  20.154  0.00  0.00    +0.000 C 
ATOM     12  C   UNL     1       0.836   2.472  18.762  0.00  0.00    +0.000 C 
ENDBRANCH   9  10
ENDBRANCH   3   7
ENDBRANCH   1   3
BRANCH   1  13
ATOM     13  C   UNL     1       2.669   8.370  17.952  0.00  0.00    +0.000 C 
BRANCH  13  14
ATOM     14  C   UNL     1       1.715   8.803  19.034  0.00  0.00    +0.000 A 
ATOM     15  C   UNL     1       1.765   8.173  20.280  0.00  0.00    +0.000 A 
ATOM     16  C   UNL     1       0.858   8.499  21.276  0.00  0.00    +0.000 A 
ATOM     17  C   UNL     1      -0.119   9.479  21.065  0.00  0.00    +0.000 A 
ATOM     18  C   UNL     1      -0.149  10.145  19.842  0.00  0.00    +0.000 A 
ATOM     19  C   UNL     1       0.761   9.809  18.826  0.00  0.00    +0.000 A 
BRANCH  17  20
ATOM     20  O   UNL     1      -1.071   9.830  21.990  0.00  0.00    +0.000 OA
BRANCH  20  21
ATOM     21  C   UNL     1      -0.664  10.869  22.888  0.00  0.00    +0.000 C 
BRANCH  21  22
ATOM     22  C   UNL     1      -1.657  12.012  22.946  0.00  0.00    +0.000 C 
ATOM     23  F   UNL     1      -2.712  11.626  23.716  0.00  0.00    +0.000 F 
ATOM     24  F   UNL     1      -1.106  13.082  23.569  0.00  0.00    +0.000 F 
ENDBRANCH  21  22
ENDBRANCH  20  21
ENDBRANCH  17  20
ENDBRANCH  13  14
ENDBRANCH   1  13
TORSDOF 8
ENDMDL
MODEL 9
REMARK VINA RESULT:      -6.4      5.934      8.815
REMARK  Name = 
REMARK  8 active torsions:
REMARK  status: ('A' for Active; 'I' for Inactive)
REMARK    1  A    between atoms: C_4  and  C_5
REMARK    2  A    between atoms: C_5  and  N_6
REMARK    3  A    between atoms: N_6  and  C_7
REMARK    4  A    between atoms: C_7  and  C_8
REMARK    5  A    between atoms: C_11  and  O_12
REMARK    6  A    between atoms: O_12  and  C_13
REMARK    7  A    between atoms: C_13  and  C_14
REMARK    8  A    between atoms: N_20  and  C_21
REMARK                            x       y       z     vdW  Elec       q    Type
REMARK                         _______ _______ _______ _____ _____    ______ ____
ROOT
ATOM      1  N   UNL     1       2.343   5.080  19.166  0.00  0.00    +0.000 NA
ATOM      2  H   UNL     1       1.415   4.816  18.842  0.00  0.00    +0.000 HD
ENDROOT
BRANCH   1   3
ATOM      3  C   UNL     1       3.094   3.892  19.548  0.00  0.00    +0.000 C 
BRANCH   3   7
ATOM      4  O   UNL     1       5.594   4.530  15.405  0.00  0.00    +0.000 OA
ATOM      5  C   UNL     1       5.327   4.353  16.582  0.00  0.00    +0.000 C 
ATOM      6  C   UNL     1       3.972   3.924  17.111  0.00  0.00    +0.000 C 
ATOM      7  C   UNL     1       4.244   3.612  18.583  0.00  0.00    +0.000 C 
ATOM      8  C   UNL     1       5.423   4.514  18.907  0.00  0.00    +0.000 C 
ATOM      9  N   UNL     1       6.159   4.576  17.680  0.00  0.00    +0.000 N 
BRANCH   9  10
ATOM     10  C   UNL     1       7.368   5.336  17.612  0.00  0.00    +0.000 C 
ATOM     11  C   UNL     1       7.320   6.835  17.479  0.00  0.00    +0.000 C 
ATOM     12  C   UNL     1       7.828   6.211  18.743  0.00  0.00    +0.000 C 
ENDBRANCH   9  10
ENDBRANCH   3   7
ENDBRANCH   1   3
BRANCH   1  13
ATOM     13  C   UNL     1       2.212   5.998  20.305  0.00  0.00    +0.000 C 
BRANCH  13  14
ATOM     14  C   UNL     1       1.914   7.395  19.829  0.00  0.00    +0.000 A 
ATOM     15  C   UNL     1       1.309   8.300  20.706  0.00  0.00    +0.000 A 
ATOM     16  C   UNL     1       0.959   9.571  20.280  0.00  0.00    +0.000 A 
ATOM     17  C   UNL     1       1.220   9.988  18.969  0.00  0.00    +0.000 A 
ATOM     18  C   UNL     1       1.865   9.110  18.101  0.00  0.00    +0.000 A 
ATOM     19  C   UNL     1       2.209   7.815  18.525  0.00  0.00    +0.000 A 
BRANCH  17  20
ATOM     20  O   UNL     1       0.873  11.218  18.467  0.00  0.00    +0.000 OA
BRANCH  20  21
ATOM     21  C   UNL     1       0.196  12.066  19.403  0.00  0.00    +0.000 C 
BRANCH  21  22
ATOM     22  C   UNL     1      -1.235  12.354  18.998  0.00  0.00    +0.000 C 
ATOM     23  F   UNL     1      -1.362  12.108  17.665  0.00  0.00    +0.000 F 
ATOM     24  F   UNL     1      -2.081  11.498  19.623  0.00  0.00    +0.000 F 
ENDBRANCH  21  22
ENDBRANCH  20  21
ENDBRANCH  17  20
ENDBRANCH  13  14
ENDBRANCH   1  13
TORSDOF 8
ENDMDL
