MODEL 1
REMARK VINA RESULT:      -7.9      0.000      0.000
REMARK  Name = 
REMARK  7 active torsions:
REMARK  status: ('A' for Active; 'I' for Inactive)
REMARK    1  A    between atoms: C_1  and  C_2
REMARK    2  A    between atoms: C_12  and  O_13
REMARK    3  A    between atoms: O_13  and  C_14
REMARK    4  A    between atoms: C_14  and  C_16
REMARK    5  A    between atoms: C_23  and  O_24
REMARK    6  A    between atoms: O_24  and  C_25
REMARK    7  A    between atoms: C_25  and  C_27
REMARK                            x       y       z     vdW  Elec       q    Type
REMARK                         _______ _______ _______ _____ _____    ______ ____
ROOT
ATOM      1  C   UNL     1      -1.713  16.414  20.366  0.00  0.00    +0.000 C 
ATOM      2  C   UNL     1      -0.475  15.789  21.014  0.00  0.00    +0.000 C 
ATOM      3  C   UNL     1       0.734  16.743  20.866  0.00  0.00    +0.000 C 
ATOM      4  C   UNL     1       1.100  16.926  19.397  0.00  0.00    +0.000 C 
ATOM      5  C   UNL     1       2.564  17.248  19.137  0.00  0.00    +0.000 C 
ATOM      6  C   UNL     1       2.927  16.963  17.672  0.00  0.00    +0.000 C 
ATOM      7  C   UNL     1       3.481  15.553  17.396  0.00  0.00    +0.000 C 
ATOM      8  C   UNL     1       2.500  14.364  17.506  0.00  0.00    +0.000 C 
ATOM      9  C   UNL     1       2.945  13.360  18.584  0.00  0.00    +0.000 C 
ATOM     10  C   UNL     1       1.918  12.303  18.951  0.00  0.00    +0.000 A 
ATOM     11  C   UNL     1       2.090  10.997  18.444  0.00  0.00    +0.000 A 
ATOM     12  C   UNL     1       1.209   9.972  18.798  0.00  0.00    +0.000 A 
ATOM     13  C   UNL     1       0.113  10.223  19.619  0.00  0.00    +0.000 A 
ATOM     14  C   UNL     1      -0.088  11.511  20.121  0.00  0.00    +0.000 A 
ATOM     15  C   UNL     1       0.833  12.538  19.831  0.00  0.00    +0.000 A 
ATOM     16  C   UNL     1       0.792  13.767  20.651  0.00  0.00    +0.000 C 
ATOM     17  O   UNL     1       1.660  14.029  21.468  0.00  0.00    +0.000 OA
ATOM     18  O   UNL     1      -0.296  14.509  20.347  0.00  0.00    +0.000 OA
ENDROOT
BRANCH  12  19
ATOM     19  O   UNL     1       1.420   8.614  18.456  0.00  0.00    +0.000 OA
BRANCH  19  20
ATOM     20  C   UNL     1       2.080   7.730  19.295  0.00  0.00    +0.000 C 
ATOM     21  O   UNL     1       2.017   7.679  20.514  0.00  0.00    +0.000 OA
BRANCH  20  22
ATOM     22  C   UNL     1       2.986   6.862  18.497  0.00  0.00    +0.000 A 
ATOM     23  C   UNL     1       3.777   7.353  17.451  0.00  0.00    +0.000 A 
ATOM     24  C   UNL     1       4.607   6.482  16.738  0.00  0.00    +0.000 A 
ATOM     25  C   UNL     1       4.644   5.124  17.063  0.00  0.00    +0.000 A 
ATOM     26  C   UNL     1       3.849   4.631  18.095  0.00  0.00    +0.000 A 
ATOM     27  C   UNL     1       3.017   5.495  18.806  0.00  0.00    +0.000 A 
ENDBRANCH  20  22
ENDBRANCH  19  20
ENDBRANCH  12  19
BRANCH  14  28
ATOM     28  O   UNL     1      -1.144  11.790  21.024  0.00  0.00    +0.000 OA
BRANCH  28  29
ATOM     29  C   UNL     1      -0.977  11.606  22.391  0.00  0.00    +0.000 C 
ATOM     30  O   UNL     1      -0.227  10.807  22.940  0.00  0.00    +0.000 OA
BRANCH  29  31
ATOM     31  C   UNL     1      -1.901  12.489  23.143  0.00  0.00    +0.000 A 
ATOM     32  C   UNL     1      -3.226  12.126  23.436  0.00  0.00    +0.000 A 
ATOM     33  C   UNL     1      -4.045  12.992  24.160  0.00  0.00    +0.000 A 
ATOM     34  C   UNL     1      -3.557  14.225  24.600  0.00  0.00    +0.000 A 
ATOM     35  C   UNL     1      -2.246  14.596  24.306  0.00  0.00    +0.000 A 
ATOM     36  C   UNL     1      -1.423  13.736  23.576  0.00  0.00    +0.000 A 
ENDBRANCH  29  31
ENDBRANCH  28  29
ENDBRANCH  14  28
TORSDOF 6
ENDMDL
MODEL 2
REMARK VINA RESULT:      -7.7      1.309      2.032
REMARK  Name = 
REMARK  7 active torsions:
REMARK  status: ('A' for Active; 'I' for Inactive)
REMARK    1  A    between atoms: C_1  and  C_2
REMARK    2  A    between atoms: C_12  and  O_13
REMARK    3  A    between atoms: O_13  and  C_14
REMARK    4  A    between atoms: C_14  and  C_16
REMARK    5  A    between atoms: C_23  and  O_24
REMARK    6  A    between atoms: O_24  and  C_25
REMARK    7  A    between atoms: C_25  and  C_27
REMARK                            x       y       z     vdW  Elec       q    Type
REMARK                         _______ _______ _______ _____ _____    ______ ____
ROOT
ATOM      1  C   UNL     1      -1.585  16.030  20.624  0.00  0.00    +0.000 C 
ATOM      2  C   UNL     1      -0.369  15.299  21.199  0.00  0.00    +0.000 C 
ATOM      3  C   UNL     1       0.854  16.248  21.215  0.00  0.00    +0.000 C 
ATOM      4  C   UNL     1       1.253  16.637  19.795  0.00  0.00    +0.000 C 
ATOM      5  C   UNL     1       2.726  16.972  19.614  0.00  0.00    +0.000 C 
ATOM      6  C   UNL     1       3.118  16.898  18.131  0.00  0.00    +0.000 C 
ATOM      7  C   UNL     1       3.662  15.534  17.664  0.00  0.00    +0.000 C 
ATOM      8  C   UNL     1       2.666  14.356  17.581  0.00  0.00    +0.000 C 
ATOM      9  C   UNL     1       3.075  13.201  18.510  0.00  0.00    +0.000 C 
ATOM     10  C   UNL     1       2.030  12.116  18.699  0.00  0.00    +0.000 A 
ATOM     11  C   UNL     1       2.197  10.895  18.011  0.00  0.00    +0.000 A 
ATOM     12  C   UNL     1       1.298   9.842  18.196  0.00  0.00    +0.000 A 
ATOM     13  C   UNL     1       0.187   9.986  19.022  0.00  0.00    +0.000 A 
ATOM     14  C   UNL     1      -0.010  11.191  19.702  0.00  0.00    +0.000 A 
ATOM     15  C   UNL     1       0.928  12.236  19.583  0.00  0.00    +0.000 A 
ATOM     16  C   UNL     1       0.884  13.334  20.572  0.00  0.00    +0.000 C 
ATOM     17  O   UNL     1       1.736  13.463  21.435  0.00  0.00    +0.000 OA
ATOM     18  O   UNL     1      -0.190  14.128  20.356  0.00  0.00    +0.000 OA
ENDROOT
BRANCH  12  19
ATOM     19  O   UNL     1       1.501   8.545  17.665  0.00  0.00    +0.000 OA
BRANCH  19  20
ATOM     20  C   UNL     1       2.635   7.797  17.942  0.00  0.00    +0.000 C 
ATOM     21  O   UNL     1       3.779   8.025  17.579  0.00  0.00    +0.000 OA
BRANCH  20  22
ATOM     22  C   UNL     1       2.257   6.576  18.701  0.00  0.00    +0.000 A 
ATOM     23  C   UNL     1       2.080   6.572  20.090  0.00  0.00    +0.000 A 
ATOM     24  C   UNL     1       1.726   5.387  20.743  0.00  0.00    +0.000 A 
ATOM     25  C   UNL     1       1.552   4.208  20.014  0.00  0.00    +0.000 A 
ATOM     26  C   UNL     1       1.739   4.207  18.633  0.00  0.00    +0.000 A 
ATOM     27  C   UNL     1       2.098   5.385  17.978  0.00  0.00    +0.000 A 
ENDBRANCH  20  22
ENDBRANCH  19  20
ENDBRANCH  12  19
BRANCH  14  28
ATOM     28  O   UNL     1      -1.082  11.351  20.615  0.00  0.00    +0.000 OA
BRANCH  28  29
ATOM     29  C   UNL     1      -2.292  11.896  20.202  0.00  0.00    +0.000 C 
ATOM     30  O   UNL     1      -2.682  12.031  19.049  0.00  0.00    +0.000 OA
BRANCH  29  31
ATOM     31  C   UNL     1      -3.064  12.375  21.374  0.00  0.00    +0.000 A 
ATOM     32  C   UNL     1      -2.583  12.275  22.690  0.00  0.00    +0.000 A 
ATOM     33  C   UNL     1      -3.348  12.756  23.753  0.00  0.00    +0.000 A 
ATOM     34  C   UNL     1      -4.597  13.339  23.519  0.00  0.00    +0.000 A 
ATOM     35  C   UNL     1      -5.084  13.434  22.216  0.00  0.00    +0.000 A 
ATOM     36  C   UNL     1      -4.326  12.949  21.149  0.00  0.00    +0.000 A 
ENDBRANCH  29  31
ENDBRANCH  28  29
ENDBRANCH  14  28
TORSDOF 6
ENDMDL
MODEL 3
REMARK VINA RESULT:      -7.6      0.576      1.188
REMARK  Name = 
REMARK  7 active torsions:
REMARK  status: ('A' for Active; 'I' for Inactive)
REMARK    1  A    between atoms: C_1  and  C_2
REMARK    2  A    between atoms: C_12  and  O_13
REMARK    3  A    between atoms: O_13  and  C_14
REMARK    4  A    between atoms: C_14  and  C_16
REMARK    5  A    between atoms: C_23  and  O_24
REMARK    6  A    between atoms: O_24  and  C_25
REMARK    7  A    between atoms: C_25  and  C_27
REMARK                            x       y       z     vdW  Elec       q    Type
REMARK                         _______ _______ _______ _____ _____    ______ ____
ROOT
ATOM      1  C   UNL     1      -1.869  16.052  20.345  0.00  0.00    +0.000 C 
ATOM      2  C   UNL     1      -0.618  15.457  20.997  0.00  0.00    +0.000 C 
ATOM      3  C   UNL     1       0.551  16.467  20.907  0.00  0.00    +0.000 C 
ATOM      4  C   UNL     1       0.936  16.717  19.452  0.00  0.00    +0.000 C 
ATOM      5  C   UNL     1       2.390  17.109  19.234  0.00  0.00    +0.000 C 
ATOM      6  C   UNL     1       2.793  16.892  17.768  0.00  0.00    +0.000 C 
ATOM      7  C   UNL     1       3.413  15.517  17.456  0.00  0.00    +0.000 C 
ATOM      8  C   UNL     1       2.483  14.284  17.505  0.00  0.00    +0.000 C 
ATOM      9  C   UNL     1       2.949  13.263  18.556  0.00  0.00    +0.000 C 
ATOM     10  C   UNL     1       1.963  12.152  18.866  0.00  0.00    +0.000 A 
ATOM     11  C   UNL     1       2.201  10.872  18.318  0.00  0.00    +0.000 A 
ATOM     12  C   UNL     1       1.359   9.798  18.620  0.00  0.00    +0.000 A 
ATOM     13  C   UNL     1       0.238   9.973  19.426  0.00  0.00    +0.000 A 
ATOM     14  C   UNL     1      -0.029  11.233  19.967  0.00  0.00    +0.000 A 
ATOM     15  C   UNL     1       0.852  12.309  19.732  0.00  0.00    +0.000 A 
ATOM     16  C   UNL     1       0.743  13.506  20.592  0.00  0.00    +0.000 C 
ATOM     17  O   UNL     1       1.582  13.776  21.435  0.00  0.00    +0.000 OA
ATOM     18  O   UNL     1      -0.371  14.211  20.290  0.00  0.00    +0.000 OA
ENDROOT
BRANCH  12  19
ATOM     19  O   UNL     1       1.636   8.464  18.236  0.00  0.00    +0.000 OA
BRANCH  19  20
ATOM     20  C   UNL     1       2.127   7.521  19.126  0.00  0.00    +0.000 C 
ATOM     21  O   UNL     1       2.185   7.611  20.342  0.00  0.00    +0.000 OA
BRANCH  20  22
ATOM     22  C   UNL     1       2.683   6.365  18.374  0.00  0.00    +0.000 A 
ATOM     23  C   UNL     1       1.967   5.179  18.172  0.00  0.00    +0.000 A 
ATOM     24  C   UNL     1       2.550   4.127  17.456  0.00  0.00    +0.000 A 
ATOM     25  C   UNL     1       3.844   4.257  16.948  0.00  0.00    +0.000 A 
ATOM     26  C   UNL     1       4.563   5.431  17.158  0.00  0.00    +0.000 A 
ATOM     27  C   UNL     1       3.988   6.480  17.875  0.00  0.00    +0.000 A 
ENDBRANCH  20  22
ENDBRANCH  19  20
ENDBRANCH  12  19
BRANCH  14  28
ATOM     28  O   UNL     1      -1.113  11.435  20.858  0.00  0.00    +0.000 OA
BRANCH  28  29
ATOM     29  C   UNL     1      -0.902  11.509  22.229  0.00  0.00    +0.000 C 
ATOM     30  O   UNL     1      -0.143  10.815  22.895  0.00  0.00    +0.000 OA
BRANCH  29  31
ATOM     31  C   UNL     1      -1.790  12.534  22.829  0.00  0.00    +0.000 A 
ATOM     32  C   UNL     1      -1.322  13.512  23.722  0.00  0.00    +0.000 A 
ATOM     33  C   UNL     1      -2.202  14.461  24.244  0.00  0.00    +0.000 A 
ATOM     34  C   UNL     1      -3.552  14.446  23.885  0.00  0.00    +0.000 A 
ATOM     35  C   UNL     1      -4.025  13.473  23.006  0.00  0.00    +0.000 A 
ATOM     36  C   UNL     1      -3.151  12.517  22.485  0.00  0.00    +0.000 A 
ENDBRANCH  29  31
ENDBRANCH  28  29
ENDBRANCH  14  28
TORSDOF 6
ENDMDL
MODEL 4
REMARK VINA RESULT:      -7.6      0.931      1.499
REMARK  Name = 
REMARK  7 active torsions:
REMARK  status: ('A' for Active; 'I' for Inactive)
REMARK    1  A    between atoms: C_1  and  C_2
REMARK    2  A    between atoms: C_12  and  O_13
REMARK    3  A    between atoms: O_13  and  C_14
REMARK    4  A    between atoms: C_14  and  C_16
REMARK    5  A    between atoms: C_23  and  O_24
REMARK    6  A    between atoms: O_24  and  C_25
REMARK    7  A    between atoms: C_25  and  C_27
REMARK                            x       y       z     vdW  Elec       q    Type
REMARK                         _______ _______ _______ _____ _____    ______ ____
ROOT
ATOM      1  C   UNL     1      -1.767  16.262  20.484  0.00  0.00    +0.000 C 
ATOM      2  C   UNL     1      -0.531  15.617  21.118  0.00  0.00    +0.000 C 
ATOM      3  C   UNL     1       0.664  16.597  21.052  0.00  0.00    +0.000 C 
ATOM      4  C   UNL     1       1.055  16.875  19.604  0.00  0.00    +0.000 C 
ATOM      5  C   UNL     1       2.518  17.234  19.395  0.00  0.00    +0.000 C 
ATOM      6  C   UNL     1       2.914  17.046  17.923  0.00  0.00    +0.000 C 
ATOM      7  C   UNL     1       3.497  15.663  17.573  0.00  0.00    +0.000 C 
ATOM      8  C   UNL     1       2.534  14.455  17.590  0.00  0.00    +0.000 C 
ATOM      9  C   UNL     1       2.974  13.394  18.614  0.00  0.00    +0.000 C 
ATOM     10  C   UNL     1       1.959  12.301  18.896  0.00  0.00    +0.000 A 
ATOM     11  C   UNL     1       2.161  11.031  18.313  0.00  0.00    +0.000 A 
ATOM     12  C   UNL     1       1.291   9.973  18.587  0.00  0.00    +0.000 A 
ATOM     13  C   UNL     1       0.175  10.156  19.399  0.00  0.00    +0.000 A 
ATOM     14  C   UNL     1      -0.057  11.408  19.975  0.00  0.00    +0.000 A 
ATOM     15  C   UNL     1       0.853  12.465  19.766  0.00  0.00    +0.000 A 
ATOM     16  C   UNL     1       0.776  13.641  20.659  0.00  0.00    +0.000 C 
ATOM     17  O   UNL     1       1.623  13.866  21.507  0.00  0.00    +0.000 OA
ATOM     18  O   UNL     1      -0.319  14.384  20.377  0.00  0.00    +0.000 OA
ENDROOT
BRANCH  12  19
ATOM     19  O   UNL     1       1.531   8.642  18.168  0.00  0.00    +0.000 OA
BRANCH  19  20
ATOM     20  C   UNL     1       2.097   7.690  19.002  0.00  0.00    +0.000 C 
ATOM     21  O   UNL     1       2.012   7.628  20.218  0.00  0.00    +0.000 OA
BRANCH  20  22
ATOM     22  C   UNL     1       2.932   6.756  18.202  0.00  0.00    +0.000 A 
ATOM     23  C   UNL     1       2.720   5.372  18.189  0.00  0.00    +0.000 A 
ATOM     24  C   UNL     1       3.544   4.548  17.415  0.00  0.00    +0.000 A 
ATOM     25  C   UNL     1       4.579   5.102  16.659  0.00  0.00    +0.000 A 
ATOM     26  C   UNL     1       4.801   6.477  16.679  0.00  0.00    +0.000 A 
ATOM     27  C   UNL     1       3.984   7.302  17.453  0.00  0.00    +0.000 A 
ENDBRANCH  20  22
ENDBRANCH  19  20
ENDBRANCH  12  19
BRANCH  14  28
ATOM     28  O   UNL     1      -1.134  11.615  20.871  0.00  0.00    +0.000 OA
BRANCH  28  29
ATOM     29  C   UNL     1      -2.353  12.105  20.417  0.00  0.00    +0.000 C 
ATOM     30  O   UNL     1      -2.740  12.150  19.255  0.00  0.00    +0.000 OA
BRANCH  29  31
ATOM     31  C   UNL     1      -3.141  12.648  21.550  0.00  0.00    +0.000 A 
ATOM     32  C   UNL     1      -4.177  13.579  21.374  0.00  0.00    +0.000 A 
ATOM     33  C   UNL     1      -4.895  14.044  22.476  0.00  0.00    +0.000 A 
ATOM     34  C   UNL     1      -4.590  13.590  23.762  0.00  0.00    +0.000 A 
ATOM     35  C   UNL     1      -3.556  12.672  23.945  0.00  0.00    +0.000 A 
ATOM     36  C   UNL     1      -2.831  12.207  22.847  0.00  0.00    +0.000 A 
ENDBRANCH  29  31
ENDBRANCH  28  29
ENDBRANCH  14  28
TORSDOF 6
ENDMDL
MODEL 5
REMARK VINA RESULT:      -7.5      1.590      2.146
REMARK  Name = 
REMARK  7 active torsions:
REMARK  status: ('A' for Active; 'I' for Inactive)
REMARK    1  A    between atoms: C_1  and  C_2
REMARK    2  A    between atoms: C_12  and  O_13
REMARK    3  A    between atoms: O_13  and  C_14
REMARK    4  A    between atoms: C_14  and  C_16
REMARK    5  A    between atoms: C_23  and  O_24
REMARK    6  A    between atoms: O_24  and  C_25
REMARK    7  A    between atoms: C_25  and  C_27
REMARK                            x       y       z     vdW  Elec       q    Type
REMARK                         _______ _______ _______ _____ _____    ______ ____
ROOT
ATOM      1  C   UNL     1      -1.310  17.478  18.373  0.00  0.00    +0.000 C 
ATOM      2  C   UNL     1      -0.588  16.988  19.630  0.00  0.00    +0.000 C 
ATOM      3  C   UNL     1       0.807  17.652  19.726  0.00  0.00    +0.000 C 
ATOM      4  C   UNL     1       1.691  17.219  18.562  0.00  0.00    +0.000 C 
ATOM      5  C   UNL     1       3.184  17.228  18.854  0.00  0.00    +0.000 C 
ATOM      6  C   UNL     1       3.939  16.369  17.829  0.00  0.00    +0.000 C 
ATOM      7  C   UNL     1       4.155  14.899  18.237  0.00  0.00    +0.000 C 
ATOM      8  C   UNL     1       2.916  13.976  18.272  0.00  0.00    +0.000 C 
ATOM      9  C   UNL     1       2.675  13.403  19.679  0.00  0.00    +0.000 C 
ATOM     10  C   UNL     1       1.342  12.705  19.877  0.00  0.00    +0.000 A 
ATOM     11  C   UNL     1       1.321  11.293  19.896  0.00  0.00    +0.000 A 
ATOM     12  C   UNL     1       0.132  10.599  20.135  0.00  0.00    +0.000 A 
ATOM     13  C   UNL     1      -1.070  11.280  20.311  0.00  0.00    +0.000 A 
ATOM     14  C   UNL     1      -1.079  12.677  20.280  0.00  0.00    +0.000 A 
ATOM     15  C   UNL     1       0.125  13.391  20.113  0.00  0.00    +0.000 A 
ATOM     16  C   UNL     1       0.136  14.833  20.440  0.00  0.00    +0.000 C 
ATOM     17  O   UNL     1       0.705  15.268  21.428  0.00  0.00    +0.000 OA
ATOM     18  O   UNL     1      -0.540  15.540  19.506  0.00  0.00    +0.000 OA
ENDROOT
BRANCH  12  19
ATOM     19  O   UNL     1       0.075   9.198  20.328  0.00  0.00    +0.000 OA
BRANCH  19  20
ATOM     20  C   UNL     1       1.036   8.508  21.051  0.00  0.00    +0.000 C 
ATOM     21  O   UNL     1       1.372   8.702  22.208  0.00  0.00    +0.000 OA
BRANCH  20  22
ATOM     22  C   UNL     1       1.700   7.507  20.174  0.00  0.00    +0.000 A 
ATOM     23  C   UNL     1       2.221   7.831  18.915  0.00  0.00    +0.000 A 
ATOM     24  C   UNL     1       2.833   6.841  18.139  0.00  0.00    +0.000 A 
ATOM     25  C   UNL     1       2.921   5.531  18.615  0.00  0.00    +0.000 A 
ATOM     26  C   UNL     1       2.393   5.203  19.862  0.00  0.00    +0.000 A 
ATOM     27  C   UNL     1       1.778   6.186  20.637  0.00  0.00    +0.000 A 
ENDBRANCH  20  22
ENDBRANCH  19  20
ENDBRANCH  12  19
BRANCH  14  28
ATOM     28  O   UNL     1      -2.265  13.409  20.535  0.00  0.00    +0.000 OA
BRANCH  28  29
ATOM     29  C   UNL     1      -3.508  12.791  20.475  0.00  0.00    +0.000 C 
ATOM     30  O   UNL     1      -4.068  12.360  19.474  0.00  0.00    +0.000 OA
BRANCH  29  31
ATOM     31  C   UNL     1      -4.133  12.769  21.820  0.00  0.00    +0.000 A 
ATOM     32  C   UNL     1      -5.508  12.979  22.019  0.00  0.00    +0.000 A 
ATOM     33  C   UNL     1      -6.044  12.932  23.307  0.00  0.00    +0.000 A 
ATOM     34  C   UNL     1      -5.220  12.676  24.406  0.00  0.00    +0.000 A 
ATOM     35  C   UNL     1      -3.853  12.475  24.217  0.00  0.00    +0.000 A 
ATOM     36  C   UNL     1      -3.310  12.527  22.932  0.00  0.00    +0.000 A 
ENDBRANCH  29  31
ENDBRANCH  28  29
ENDBRANCH  14  28
TORSDOF 6
ENDMDL
MODEL 6
REMARK VINA RESULT:      -7.4      2.520      4.282
REMARK  Name = 
REMARK  7 active torsions:
REMARK  status: ('A' for Active; 'I' for Inactive)
REMARK    1  A    between atoms: C_1  and  C_2
REMARK    2  A    between atoms: C_12  and  O_13
REMARK    3  A    between atoms: O_13  and  C_14
REMARK    4  A    between atoms: C_14  and  C_16
REMARK    5  A    between atoms: C_23  and  O_24
REMARK    6  A    between atoms: O_24  and  C_25
REMARK    7  A    between atoms: C_25  and  C_27
REMARK                            x       y       z     vdW  Elec       q    Type
REMARK                         _______ _______ _______ _____ _____    ______ ____
ROOT
ATOM      1  C   UNL     1      -4.783  12.903  22.529  0.00  0.00    +0.000 C 
ATOM      2  C   UNL     1      -3.935  13.505  21.406  0.00  0.00    +0.000 C 
ATOM      3  C   UNL     1      -4.848  13.947  20.238  0.00  0.00    +0.000 C 
ATOM      4  C   UNL     1      -5.545  12.742  19.612  0.00  0.00    +0.000 C 
ATOM      5  C   UNL     1      -5.904  12.902  18.143  0.00  0.00    +0.000 C 
ATOM      6  C   UNL     1      -6.164  11.532  17.499  0.00  0.00    +0.000 C 
ATOM      7  C   UNL     1      -4.938  10.876  16.837  0.00  0.00    +0.000 C 
ATOM      8  C   UNL     1      -3.815  10.358  17.763  0.00  0.00    +0.000 C 
ATOM      9  C   UNL     1      -2.477  11.062  17.481  0.00  0.00    +0.000 C 
ATOM     10  C   UNL     1      -1.384  10.819  18.506  0.00  0.00    +0.000 A 
ATOM     11  C   UNL     1      -0.348   9.915  18.181  0.00  0.00    +0.000 A 
ATOM     12  C   UNL     1       0.714   9.699  19.062  0.00  0.00    +0.000 A 
ATOM     13  C   UNL     1       0.753  10.329  20.303  0.00  0.00    +0.000 A 
ATOM     14  C   UNL     1      -0.268  11.215  20.655  0.00  0.00    +0.000 A 
ATOM     15  C   UNL     1      -1.308  11.499  19.746  0.00  0.00    +0.000 A 
ATOM     16  C   UNL     1      -2.154  12.684  19.998  0.00  0.00    +0.000 C 
ATOM     17  O   UNL     1      -2.080  13.690  19.312  0.00  0.00    +0.000 OA
ATOM     18  O   UNL     1      -2.983  12.467  21.045  0.00  0.00    +0.000 OA
ENDROOT
BRANCH  12  19
ATOM     19  O   UNL     1       1.858   8.936  18.726  0.00  0.00    +0.000 OA
BRANCH  19  20
ATOM     20  C   UNL     1       2.134   7.711  19.313  0.00  0.00    +0.000 C 
ATOM     21  O   UNL     1       1.826   7.343  20.436  0.00  0.00    +0.000 OA
BRANCH  20  22
ATOM     22  C   UNL     1       2.966   6.891  18.394  0.00  0.00    +0.000 A 
ATOM     23  C   UNL     1       3.946   7.445  17.562  0.00  0.00    +0.000 A 
ATOM     24  C   UNL     1       4.694   6.616  16.719  0.00  0.00    +0.000 A 
ATOM     25  C   UNL     1       4.461   5.240  16.702  0.00  0.00    +0.000 A 
ATOM     26  C   UNL     1       3.478   4.686  17.519  0.00  0.00    +0.000 A 
ATOM     27  C   UNL     1       2.727   5.510  18.358  0.00  0.00    +0.000 A 
ENDBRANCH  20  22
ENDBRANCH  19  20
ENDBRANCH  12  19
BRANCH  14  28
ATOM     28  O   UNL     1      -0.224  11.938  21.874  0.00  0.00    +0.000 OA
BRANCH  28  29
ATOM     29  C   UNL     1       0.387  13.184  21.939  0.00  0.00    +0.000 C 
ATOM     30  O   UNL     1       1.522  13.467  21.571  0.00  0.00    +0.000 OA
BRANCH  29  31
ATOM     31  C   UNL     1      -0.514  14.163  22.593  0.00  0.00    +0.000 A 
ATOM     32  C   UNL     1      -1.262  13.855  23.741  0.00  0.00    +0.000 A 
ATOM     33  C   UNL     1      -2.083  14.822  24.322  0.00  0.00    +0.000 A 
ATOM     34  C   UNL     1      -2.169  16.102  23.768  0.00  0.00    +0.000 A 
ATOM     35  C   UNL     1      -1.436  16.413  22.624  0.00  0.00    +0.000 A 
ATOM     36  C   UNL     1      -0.617  15.448  22.034  0.00  0.00    +0.000 A 
ENDBRANCH  29  31
ENDBRANCH  28  29
ENDBRANCH  14  28
TORSDOF 6
ENDMDL
MODEL 7
REMARK VINA RESULT:      -7.3      2.539      4.424
REMARK  Name = 
REMARK  7 active torsions:
REMARK  status: ('A' for Active; 'I' for Inactive)
REMARK    1  A    between atoms: C_1  and  C_2
REMARK    2  A    between atoms: C_12  and  O_13
REMARK    3  A    between atoms: O_13  and  C_14
REMARK    4  A    between atoms: C_14  and  C_16
REMARK    5  A    between atoms: C_23  and  O_24
REMARK    6  A    between atoms: O_24  and  C_25
REMARK    7  A    between atoms: C_25  and  C_27
REMARK                            x       y       z     vdW  Elec       q    Type
REMARK                         _______ _______ _______ _____ _____    ______ ____
ROOT
ATOM      1  C   UNL     1      -4.817  13.388  22.688  0.00  0.00    +0.000 C 
ATOM      2  C   UNL     1      -3.935  13.853  21.525  0.00  0.00    +0.000 C 
ATOM      3  C   UNL     1      -4.820  14.219  20.310  0.00  0.00    +0.000 C 
ATOM      4  C   UNL     1      -5.556  12.990  19.788  0.00  0.00    +0.000 C 
ATOM      5  C   UNL     1      -5.895  13.028  18.306  0.00  0.00    +0.000 C 
ATOM      6  C   UNL     1      -6.201  11.615  17.786  0.00  0.00    +0.000 C 
ATOM      7  C   UNL     1      -4.995  10.856  17.202  0.00  0.00    +0.000 C 
ATOM      8  C   UNL     1      -3.901  10.383  18.186  0.00  0.00    +0.000 C 
ATOM      9  C   UNL     1      -2.535  11.009  17.858  0.00  0.00    +0.000 C 
ATOM     10  C   UNL     1      -1.462  10.819  18.915  0.00  0.00    +0.000 A 
ATOM     11  C   UNL     1      -0.458   9.853  18.687  0.00  0.00    +0.000 A 
ATOM     12  C   UNL     1       0.586   9.678  19.598  0.00  0.00    +0.000 A 
ATOM     13  C   UNL     1       0.638  10.418  20.776  0.00  0.00    +0.000 A 
ATOM     14  C   UNL     1      -0.352  11.369  21.034  0.00  0.00    +0.000 A 
ATOM     15  C   UNL     1      -1.371  11.607  20.089  0.00  0.00    +0.000 A 
ATOM     16  C   UNL     1      -2.174  12.841  20.221  0.00  0.00    +0.000 C 
ATOM     17  O   UNL     1      -2.055  13.777  19.447  0.00  0.00    +0.000 OA
ATOM     18  O   UNL     1      -3.020  12.751  21.272  0.00  0.00    +0.000 OA
ENDROOT
BRANCH  12  19
ATOM     19  O   UNL     1       1.704   8.846  19.348  0.00  0.00    +0.000 OA
BRANCH  19  20
ATOM     20  C   UNL     1       2.304   8.761  18.101  0.00  0.00    +0.000 C 
ATOM     21  O   UNL     1       2.359   9.631  17.246  0.00  0.00    +0.000 OA
BRANCH  20  22
ATOM     22  C   UNL     1       2.824   7.385  17.887  0.00  0.00    +0.000 A 
ATOM     23  C   UNL     1       2.113   6.240  18.267  0.00  0.00    +0.000 A 
ATOM     24  C   UNL     1       2.661   4.973  18.039  0.00  0.00    +0.000 A 
ATOM     25  C   UNL     1       3.915   4.848  17.438  0.00  0.00    +0.000 A 
ATOM     26  C   UNL     1       4.630   5.986  17.070  0.00  0.00    +0.000 A 
ATOM     27  C   UNL     1       4.090   7.251  17.300  0.00  0.00    +0.000 A 
ENDBRANCH  20  22
ENDBRANCH  19  20
ENDBRANCH  12  19
BRANCH  14  28
ATOM     28  O   UNL     1      -0.292  12.199  22.181  0.00  0.00    +0.000 OA
BRANCH  28  29
ATOM     29  C   UNL     1       0.311  13.449  22.124  0.00  0.00    +0.000 C 
ATOM     30  O   UNL     1       1.424  13.710  21.682  0.00  0.00    +0.000 OA
BRANCH  29  31
ATOM     31  C   UNL     1      -0.568  14.470  22.744  0.00  0.00    +0.000 A 
ATOM     32  C   UNL     1      -1.269  14.240  23.939  0.00  0.00    +0.000 A 
ATOM     33  C   UNL     1      -2.070  15.244  24.485  0.00  0.00    +0.000 A 
ATOM     34  C   UNL     1      -2.182  16.483  23.849  0.00  0.00    +0.000 A 
ATOM     35  C   UNL     1      -1.495  16.716  22.658  0.00  0.00    +0.000 A 
ATOM     36  C   UNL     1      -0.697  15.713  22.104  0.00  0.00    +0.000 A 
ENDBRANCH  29  31
ENDBRANCH  28  29
ENDBRANCH  14  28
TORSDOF 6
ENDMDL
MODEL 8
REMARK VINA RESULT:      -7.3      1.118      1.588
REMARK  Name = 
REMARK  7 active torsions:
REMARK  status: ('A' for Active; 'I' for Inactive)
REMARK    1  A    between atoms: C_1  and  C_2
REMARK    2  A    between atoms: C_12  and  O_13
REMARK    3  A    between atoms: O_13  and  C_14
REMARK    4  A    between atoms: C_14  and  C_16
REMARK    5  A    between atoms: C_23  and  O_24
REMARK    6  A    between atoms: O_24  and  C_25
REMARK    7  A    between atoms: C_25  and  C_27
REMARK                            x       y       z     vdW  Elec       q    Type
REMARK                         _______ _______ _______ _____ _____    ______ ____
ROOT
ATOM      1  C   UNL     1      -1.766  16.350  20.107  0.00  0.00    +0.000 C 
ATOM      2  C   UNL     1      -0.651  15.601  20.841  0.00  0.00    +0.000 C 
ATOM      3  C   UNL     1       0.612  16.492  20.927  0.00  0.00    +0.000 C 
ATOM      4  C   UNL     1       1.167  16.775  19.535  0.00  0.00    +0.000 C 
ATOM      5  C   UNL     1       2.666  17.031  19.484  0.00  0.00    +0.000 C 
ATOM      6  C   UNL     1       3.196  16.850  18.054  0.00  0.00    +0.000 C 
ATOM      7  C   UNL     1       3.712  15.438  17.721  0.00  0.00    +0.000 C 
ATOM      8  C   UNL     1       2.670  14.303  17.603  0.00  0.00    +0.000 C 
ATOM      9  C   UNL     1       2.927  13.188  18.631  0.00  0.00    +0.000 C 
ATOM     10  C   UNL     1       1.813  12.166  18.775  0.00  0.00    +0.000 A 
ATOM     11  C   UNL     1       1.984  10.899  18.176  0.00  0.00    +0.000 A 
ATOM     12  C   UNL     1       1.018   9.901  18.327  0.00  0.00    +0.000 A 
ATOM     13  C   UNL     1      -0.159  10.146  19.029  0.00  0.00    +0.000 A 
ATOM     14  C   UNL     1      -0.360  11.397  19.617  0.00  0.00    +0.000 A 
ATOM     15  C   UNL     1       0.638  12.390  19.535  0.00  0.00    +0.000 A 
ATOM     16  C   UNL     1       0.554  13.546  20.452  0.00  0.00    +0.000 C 
ATOM     17  O   UNL     1       1.324  13.687  21.388  0.00  0.00    +0.000 OA
ATOM     18  O   UNL     1      -0.451  14.374  20.086  0.00  0.00    +0.000 OA
ENDROOT
BRANCH  12  19
ATOM     19  O   UNL     1       1.205   8.567  17.892  0.00  0.00    +0.000 OA
BRANCH  19  20
ATOM     20  C   UNL     1       2.455   7.971  17.837  0.00  0.00    +0.000 C 
ATOM     21  O   UNL     1       3.429   8.352  17.206  0.00  0.00    +0.000 OA
BRANCH  20  22
ATOM     22  C   UNL     1       2.440   6.701  18.609  0.00  0.00    +0.000 A 
ATOM     23  C   UNL     1       2.793   5.468  18.047  0.00  0.00    +0.000 A 
ATOM     24  C   UNL     1       2.755   4.310  18.830  0.00  0.00    +0.000 A 
ATOM     25  C   UNL     1       2.361   4.379  20.168  0.00  0.00    +0.000 A 
ATOM     26  C   UNL     1       1.997   5.602  20.727  0.00  0.00    +0.000 A 
ATOM     27  C   UNL     1       2.029   6.759  19.949  0.00  0.00    +0.000 A 
ENDBRANCH  20  22
ENDBRANCH  19  20
ENDBRANCH  12  19
BRANCH  14  28
ATOM     28  O   UNL     1      -1.506  11.661  20.408  0.00  0.00    +0.000 OA
BRANCH  28  29
ATOM     29  C   UNL     1      -1.467  11.512  21.789  0.00  0.00    +0.000 C 
ATOM     30  O   UNL     1      -0.665  10.847  22.434  0.00  0.00    +0.000 OA
BRANCH  29  31
ATOM     31  C   UNL     1      -2.599  12.237  22.415  0.00  0.00    +0.000 A 
ATOM     32  C   UNL     1      -2.944  12.080  23.767  0.00  0.00    +0.000 A 
ATOM     33  C   UNL     1      -4.011  12.800  24.305  0.00  0.00    +0.000 A 
ATOM     34  C   UNL     1      -4.744  13.681  23.506  0.00  0.00    +0.000 A 
ATOM     35  C   UNL     1      -4.413  13.836  22.161  0.00  0.00    +0.000 A 
ATOM     36  C   UNL     1      -3.350  13.113  21.615  0.00  0.00    +0.000 A 
ENDBRANCH  29  31
ENDBRANCH  28  29
ENDBRANCH  14  28
TORSDOF 6
ENDMDL
MODEL 9
REMARK VINA RESULT:      -7.3      1.053      1.672
REMARK  Name = 
REMARK  7 active torsions:
REMARK  status: ('A' for Active; 'I' for Inactive)
REMARK    1  A    between atoms: C_1  and  C_2
REMARK    2  A    between atoms: C_12  and  O_13
REMARK    3  A    between atoms: O_13  and  C_14
REMARK    4  A    between atoms: C_14  and  C_16
REMARK    5  A    between atoms: C_23  and  O_24
REMARK    6  A    between atoms: O_24  and  C_25
REMARK    7  A    between atoms: C_25  and  C_27
REMARK                            x       y       z     vdW  Elec       q    Type
REMARK                         _______ _______ _______ _____ _____    ______ ____
ROOT
ATOM      1  C   UNL     1      -1.877  16.887  20.052  0.00  0.00    +0.000 C 
ATOM      2  C   UNL     1      -0.772  16.241  20.893  0.00  0.00    +0.000 C 
ATOM      3  C   UNL     1       0.501  17.119  20.848  0.00  0.00    +0.000 C 
ATOM      4  C   UNL     1       1.062  17.184  19.431  0.00  0.00    +0.000 C 
ATOM      5  C   UNL     1       2.563  17.410  19.347  0.00  0.00    +0.000 C 
ATOM      6  C   UNL     1       3.092  17.010  17.961  0.00  0.00    +0.000 C 
ATOM      7  C   UNL     1       3.590  15.558  17.844  0.00  0.00    +0.000 C 
ATOM      8  C   UNL     1       2.533  14.432  17.894  0.00  0.00    +0.000 C 
ATOM      9  C   UNL     1       2.775  13.480  19.078  0.00  0.00    +0.000 C 
ATOM     10  C   UNL     1       1.648  12.505  19.370  0.00  0.00    +0.000 A 
ATOM     11  C   UNL     1       1.802  11.161  18.968  0.00  0.00    +0.000 A 
ATOM     12  C   UNL     1       0.823  10.209  19.264  0.00  0.00    +0.000 A 
ATOM     13  C   UNL     1      -0.351  10.571  19.918  0.00  0.00    +0.000 A 
ATOM     14  C   UNL     1      -0.536  11.899  20.312  0.00  0.00    +0.000 A 
ATOM     15  C   UNL     1       0.475  12.855  20.085  0.00  0.00    +0.000 A 
ATOM     16  C   UNL     1       0.405  14.136  20.819  0.00  0.00    +0.000 C 
ATOM     17  O   UNL     1       1.176  14.406  21.725  0.00  0.00    +0.000 OA
ATOM     18  O   UNL     1      -0.588  14.913  20.331  0.00  0.00    +0.000 OA
ENDROOT
BRANCH  12  19
ATOM     19  O   UNL     1       0.993   8.823  19.033  0.00  0.00    +0.000 OA
BRANCH  19  20
ATOM     20  C   UNL     1       2.010   8.320  18.236  0.00  0.00    +0.000 C 
ATOM     21  O   UNL     1       2.435   8.793  17.194  0.00  0.00    +0.000 OA
BRANCH  20  22
ATOM     22  C   UNL     1       2.487   7.025  18.789  0.00  0.00    +0.000 A 
ATOM     23  C   UNL     1       2.020   6.501  20.001  0.00  0.00    +0.000 A 
ATOM     24  C   UNL     1       2.512   5.277  20.466  0.00  0.00    +0.000 A 
ATOM     25  C   UNL     1       3.469   4.579  19.727  0.00  0.00    +0.000 A 
ATOM     26  C   UNL     1       3.945   5.104  18.527  0.00  0.00    +0.000 A 
ATOM     27  C   UNL     1       3.461   6.326  18.062  0.00  0.00    +0.000 A 
ENDBRANCH  20  22
ENDBRANCH  19  20
ENDBRANCH  12  19
BRANCH  14  28
ATOM     28  O   UNL     1      -1.679  12.293  21.051  0.00  0.00    +0.000 OA
BRANCH  28  29
ATOM     29  C   UNL     1      -1.763  12.046  22.416  0.00  0.00    +0.000 C 
ATOM     30  O   UNL     1      -0.877  11.604  23.139  0.00  0.00    +0.000 OA
BRANCH  29  31
ATOM     31  C   UNL     1      -3.132  12.335  22.906  0.00  0.00    +0.000 A 
ATOM     32  C   UNL     1      -3.485  12.251  24.263  0.00  0.00    +0.000 A 
ATOM     33  C   UNL     1      -4.786  12.549  24.668  0.00  0.00    +0.000 A 
ATOM     34  C   UNL     1      -5.748  12.932  23.729  0.00  0.00    +0.000 A 
ATOM     35  C   UNL     1      -5.408  13.009  22.379  0.00  0.00    +0.000 A 
ATOM     36  C   UNL     1      -4.109  12.706  21.967  0.00  0.00    +0.000 A 
ENDBRANCH  29  31
ENDBRANCH  28  29
ENDBRANCH  14  28
TORSDOF 6
ENDMDL
