MODEL 1
REMARK VINA RESULT:      -8.7      0.000      0.000
REMARK  Name = 
REMARK  7 active torsions:
REMARK  status: ('A' for Active; 'I' for Inactive)
REMARK    1  A    between atoms: C_1  and  C_2
REMARK    2  A    between atoms: C_2  and  C_3
REMARK    3  A    between atoms: C_3  and  C_4
REMARK    4  A    between atoms: C_4  and  C_5
REMARK    5  A    between atoms: C_9  and  C_11
REMARK    6  A    between atoms: C_19  and  C_20
REMARK    7  A    between atoms: C_23  and  O_24
REMARK                            x       y       z     vdW  Elec       q    Type
REMARK                         _______ _______ _______ _____ _____    ______ ____
ROOT
ATOM      1  C   UNL     1       3.445   4.018  19.699  0.00  0.00    +0.000 A 
ATOM      2 SE   UNL     1       2.301   4.400  21.073  0.00  0.00    +0.000 Se
ATOM      3  C   UNL     1       2.370   6.088  20.452  0.00  0.00    +0.000 A 
ATOM      4  N   UNL     1       1.570   7.112  21.035  0.00  0.00    +0.000 N 
ATOM      5  C   UNL     1       1.371   8.343  20.481  0.00  0.00    +0.000 C 
ATOM      6  O   UNL     1       1.899   8.617  19.409  0.00  0.00    +0.000 OA
ATOM      7  N   UNL     1       3.189   6.288  19.403  0.00  0.00    +0.000 NA
ATOM      8  C   UNL     1       3.790   5.162  18.965  0.00  0.00    +0.000 A 
ATOM      9  H   UNL     1       1.085   6.852  21.901  0.00  0.00    +0.000 HD
ENDROOT
BRANCH   5  10
ATOM     10  C   UNL     1       0.483   9.370  21.120  0.00  0.00    +0.000 A 
ATOM     11  C   UNL     1       0.004  10.508  20.428  0.00  0.00    +0.000 A 
ATOM     12  C   UNL     1      -0.818  11.439  21.068  0.00  0.00    +0.000 A 
ATOM     13  C   UNL     1      -1.175  11.261  22.406  0.00  0.00    +0.000 A 
ATOM     14 CL   UNL     1      -2.205  12.434  23.204  0.00  0.00    +0.000 Cl
ATOM     15  C   UNL     1      -0.713  10.145  23.105  0.00  0.00    +0.000 A 
ATOM     16  C   UNL     1       0.105   9.207  22.471  0.00  0.00    +0.000 A 
ENDBRANCH   5  10
BRANCH   8  17
ATOM     17  C   UNL     1       4.786   5.239  17.858  0.00  0.00    +0.000 A 
ATOM     18  C   UNL     1       6.068   5.756  18.138  0.00  0.00    +0.000 A 
ATOM     19  C   UNL     1       7.059   5.796  17.150  0.00  0.00    +0.000 A 
ATOM     20  C   UNL     1       6.779   5.347  15.855  0.00  0.00    +0.000 A 
ATOM     21  C   UNL     1       5.502   4.869  15.553  0.00  0.00    +0.000 A 
ATOM     22  C   UNL     1       4.518   4.808  16.543  0.00  0.00    +0.000 A 
BRANCH  20  23
ATOM     23  O   UNL     1       7.727   5.366  14.896  0.00  0.00    +0.000 OA
ATOM     24  H   UNL     1       8.077   4.555  14.503  0.00  0.00    +0.000 HD
ENDBRANCH  20  23
ENDBRANCH   8  17
BRANCH   1  25
ATOM     25  C   UNL     1       4.044   2.638  19.513  0.00  0.00    +0.000 C 
BRANCH  25  26
ATOM     26  C   UNL     1       3.305   1.805  18.456  0.00  0.00    +0.000 C 
BRANCH  26  28
ATOM     27  C   UNL     1       0.828   2.066  18.706  0.00  0.00    +0.000 C 
ATOM     28  C   UNL     1       2.061   2.522  17.931  0.00  0.00    +0.000 C 
ENDBRANCH  26  28
ENDBRANCH  25  26
ENDBRANCH   1  25
TORSDOF 6
ENDMDL
MODEL 2
REMARK VINA RESULT:      -8.6      0.397      1.329
REMARK  Name = 
REMARK  7 active torsions:
REMARK  status: ('A' for Active; 'I' for Inactive)
REMARK    1  A    between atoms: C_1  and  C_2
REMARK    2  A    between atoms: C_2  and  C_3
REMARK    3  A    between atoms: C_3  and  C_4
REMARK    4  A    between atoms: C_4  and  C_5
REMARK    5  A    between atoms: C_9  and  C_11
REMARK    6  A    between atoms: C_19  and  C_20
REMARK    7  A    between atoms: C_23  and  O_24
REMARK                            x       y       z     vdW  Elec       q    Type
REMARK                         _______ _______ _______ _____ _____    ______ ____
ROOT
ATOM      1  C   UNL     1       3.534   3.851  19.733  0.00  0.00    +0.000 A 
ATOM      2 SE   UNL     1       2.360   4.266  21.072  0.00  0.00    +0.000 Se
ATOM      3  C   UNL     1       2.468   5.945  20.432  0.00  0.00    +0.000 A 
ATOM      4  N   UNL     1       1.668   6.987  20.981  0.00  0.00    +0.000 N 
ATOM      5  C   UNL     1       1.500   8.213  20.406  0.00  0.00    +0.000 C 
ATOM      6  O   UNL     1       2.060   8.467  19.346  0.00  0.00    +0.000 OA
ATOM      7  N   UNL     1       3.318   6.121  19.403  0.00  0.00    +0.000 NA
ATOM      8  C   UNL     1       3.914   4.982  18.995  0.00  0.00    +0.000 A 
ATOM      9  H   UNL     1       1.156   6.745  21.837  0.00  0.00    +0.000 HD
ENDROOT
BRANCH   5  10
ATOM     10  C   UNL     1       0.609   9.260  21.008  0.00  0.00    +0.000 A 
ATOM     11  C   UNL     1       0.247   9.264  22.376  0.00  0.00    +0.000 A 
ATOM     12  C   UNL     1      -0.590  10.259  22.889  0.00  0.00    +0.000 A 
ATOM     13  C   UNL     1      -1.085  11.263  22.056  0.00  0.00    +0.000 A 
ATOM     14 CL   UNL     1      -2.137  12.506  22.706  0.00  0.00    +0.000 Cl
ATOM     15  C   UNL     1      -0.740  11.275  20.704  0.00  0.00    +0.000 A 
ATOM     16  C   UNL     1       0.100  10.287  20.183  0.00  0.00    +0.000 A 
ENDBRANCH   5  10
BRANCH   8  17
ATOM     17  C   UNL     1       4.941   5.031  17.914  0.00  0.00    +0.000 A 
ATOM     18  C   UNL     1       4.527   5.354  16.605  0.00  0.00    +0.000 A 
ATOM     19  C   UNL     1       5.457   5.472  15.566  0.00  0.00    +0.000 A 
ATOM     20  C   UNL     1       6.816   5.241  15.808  0.00  0.00    +0.000 A 
ATOM     21  C   UNL     1       7.235   4.882  17.090  0.00  0.00    +0.000 A 
ATOM     22  C   UNL     1       6.311   4.785  18.134  0.00  0.00    +0.000 A 
BRANCH  20  23
ATOM     23  O   UNL     1       7.725   5.364  14.820  0.00  0.00    +0.000 OA
ATOM     24  H   UNL     1       8.159   6.205  14.622  0.00  0.00    +0.000 HD
ENDBRANCH  20  23
ENDBRANCH   8  17
BRANCH   1  25
ATOM     25  C   UNL     1       4.119   2.462  19.581  0.00  0.00    +0.000 C 
BRANCH  25  26
ATOM     26  C   UNL     1       3.246   1.539  18.718  0.00  0.00    +0.000 C 
BRANCH  26  28
ATOM     27  C   UNL     1       0.856   2.243  18.480  0.00  0.00    +0.000 C 
ATOM     28  C   UNL     1       2.250   2.328  17.867  0.00  0.00    +0.000 C 
ENDBRANCH  26  28
ENDBRANCH  25  26
ENDBRANCH   1  25
TORSDOF 6
ENDMDL
MODEL 3
REMARK VINA RESULT:      -8.0      0.767      1.208
REMARK  Name = 
REMARK  7 active torsions:
REMARK  status: ('A' for Active; 'I' for Inactive)
REMARK    1  A    between atoms: C_1  and  C_2
REMARK    2  A    between atoms: C_2  and  C_3
REMARK    3  A    between atoms: C_3  and  C_4
REMARK    4  A    between atoms: C_4  and  C_5
REMARK    5  A    between atoms: C_9  and  C_11
REMARK    6  A    between atoms: C_19  and  C_20
REMARK    7  A    between atoms: C_23  and  O_24
REMARK                            x       y       z     vdW  Elec       q    Type
REMARK                         _______ _______ _______ _____ _____    ______ ____
ROOT
ATOM      1  C   UNL     1       3.414   4.447  19.553  0.00  0.00    +0.000 A 
ATOM      2 SE   UNL     1       2.225   4.972  20.839  0.00  0.00    +0.000 Se
ATOM      3  C   UNL     1       2.305   6.580  20.035  0.00  0.00    +0.000 A 
ATOM      4  N   UNL     1       1.483   7.656  20.474  0.00  0.00    +0.000 N 
ATOM      5  C   UNL     1       1.296   8.815  19.779  0.00  0.00    +0.000 C 
ATOM      6  O   UNL     1       1.858   8.972  18.701  0.00  0.00    +0.000 OA
ATOM      7  N   UNL     1       3.157   6.668  18.997  0.00  0.00    +0.000 NA
ATOM      8  C   UNL     1       3.777   5.505  18.707  0.00  0.00    +0.000 A 
ATOM      9  H   UNL     1       0.971   7.491  21.348  0.00  0.00    +0.000 HD
ENDROOT
BRANCH   5  10
ATOM     10  C   UNL     1       0.383   9.900  20.270  0.00  0.00    +0.000 A 
ATOM     11  C   UNL     1       0.412  10.384  21.599  0.00  0.00    +0.000 A 
ATOM     12  C   UNL     1      -0.462  11.393  22.011  0.00  0.00    +0.000 A 
ATOM     13  C   UNL     1      -1.383  11.937  21.114  0.00  0.00    +0.000 A 
ATOM     14 CL   UNL     1      -2.479  13.201  21.638  0.00  0.00    +0.000 Cl
ATOM     15  C   UNL     1      -1.428  11.472  19.799  0.00  0.00    +0.000 A 
ATOM     16  C   UNL     1      -0.554  10.467  19.378  0.00  0.00    +0.000 A 
ENDBRANCH   5  10
BRANCH   8  17
ATOM     17  C   UNL     1       4.808   5.465  17.630  0.00  0.00    +0.000 A 
ATOM     18  C   UNL     1       6.069   6.045  17.881  0.00  0.00    +0.000 A 
ATOM     19  C   UNL     1       7.092   5.984  16.928  0.00  0.00    +0.000 A 
ATOM     20  C   UNL     1       6.865   5.367  15.693  0.00  0.00    +0.000 A 
ATOM     21  C   UNL     1       5.610   4.823  15.415  0.00  0.00    +0.000 A 
ATOM     22  C   UNL     1       4.594   4.865  16.374  0.00  0.00    +0.000 A 
BRANCH  20  23
ATOM     23  O   UNL     1       7.845   5.288  14.769  0.00  0.00    +0.000 OA
ATOM     24  H   UNL     1       8.641   4.758  14.909  0.00  0.00    +0.000 HD
ENDBRANCH  20  23
ENDBRANCH   8  17
BRANCH   1  25
ATOM     25  C   UNL     1       4.024   3.060  19.543  0.00  0.00    +0.000 C 
BRANCH  25  26
ATOM     26  C   UNL     1       3.338   2.114  18.548  0.00  0.00    +0.000 C 
BRANCH  26  28
ATOM     27  C   UNL     1       0.856   2.113  18.867  0.00  0.00    +0.000 C 
ATOM     28  C   UNL     1       2.009   2.680  18.046  0.00  0.00    +0.000 C 
ENDBRANCH  26  28
ENDBRANCH  25  26
ENDBRANCH   1  25
TORSDOF 6
ENDMDL
MODEL 4
REMARK VINA RESULT:      -8.0      0.989      1.441
REMARK  Name = 
REMARK  7 active torsions:
REMARK  status: ('A' for Active; 'I' for Inactive)
REMARK    1  A    between atoms: C_1  and  C_2
REMARK    2  A    between atoms: C_2  and  C_3
REMARK    3  A    between atoms: C_3  and  C_4
REMARK    4  A    between atoms: C_4  and  C_5
REMARK    5  A    between atoms: C_9  and  C_11
REMARK    6  A    between atoms: C_19  and  C_20
REMARK    7  A    between atoms: C_23  and  O_24
REMARK                            x       y       z     vdW  Elec       q    Type
REMARK                         _______ _______ _______ _____ _____    ______ ____
ROOT
ATOM      1  C   UNL     1       3.327   4.560  19.588  0.00  0.00    +0.000 A 
ATOM      2 SE   UNL     1       2.072   5.142  20.783  0.00  0.00    +0.000 Se
ATOM      3  C   UNL     1       2.237   6.726  19.944  0.00  0.00    +0.000 A 
ATOM      4  N   UNL     1       1.412   7.830  20.303  0.00  0.00    +0.000 N 
ATOM      5  C   UNL     1       1.293   8.973  19.568  0.00  0.00    +0.000 C 
ATOM      6  O   UNL     1       1.924   9.090  18.524  0.00  0.00    +0.000 OA
ATOM      7  N   UNL     1       3.153   6.769  18.959  0.00  0.00    +0.000 NA
ATOM      8  C   UNL     1       3.765   5.587  18.740  0.00  0.00    +0.000 A 
ATOM      9  H   UNL     1       0.844   7.699  21.148  0.00  0.00    +0.000 HD
ENDROOT
BRANCH   5  10
ATOM     10  C   UNL     1       0.375  10.089  19.973  0.00  0.00    +0.000 A 
ATOM     11  C   UNL     1      -0.697  10.533  19.163  0.00  0.00    +0.000 A 
ATOM     12  C   UNL     1      -1.523  11.579  19.583  0.00  0.00    +0.000 A 
ATOM     13  C   UNL     1      -1.298  12.206  20.809  0.00  0.00    +0.000 A 
ATOM     14 CL   UNL     1      -2.336  13.520  21.328  0.00  0.00    +0.000 Cl
ATOM     15  C   UNL     1      -0.245  11.783  21.622  0.00  0.00    +0.000 A 
ATOM     16  C   UNL     1       0.582  10.735  21.212  0.00  0.00    +0.000 A 
ENDBRANCH   5  10
BRANCH   8  17
ATOM     17  C   UNL     1       4.860   5.498  17.731  0.00  0.00    +0.000 A 
ATOM     18  C   UNL     1       4.571   4.940  16.468  0.00  0.00    +0.000 A 
ATOM     19  C   UNL     1       5.545   4.886  15.465  0.00  0.00    +0.000 A 
ATOM     20  C   UNL     1       6.837   5.363  15.714  0.00  0.00    +0.000 A 
ATOM     21  C   UNL     1       7.149   5.883  16.972  0.00  0.00    +0.000 A 
ATOM     22  C   UNL     1       6.171   5.957  17.967  0.00  0.00    +0.000 A 
BRANCH  20  23
ATOM     23  O   UNL     1       7.783   5.331  14.754  0.00  0.00    +0.000 OA
ATOM     24  H   UNL     1       8.570   4.774  14.825  0.00  0.00    +0.000 HD
ENDBRANCH  20  23
ENDBRANCH   8  17
BRANCH   1  25
ATOM     25  C   UNL     1       3.908   3.162  19.652  0.00  0.00    +0.000 C 
BRANCH  25  26
ATOM     26  C   UNL     1       3.286   2.211  18.620  0.00  0.00    +0.000 C 
BRANCH  26  28
ATOM     27  C   UNL     1       0.791   2.202  18.816  0.00  0.00    +0.000 C 
ATOM     28  C   UNL     1       1.981   2.765  18.046  0.00  0.00    +0.000 C 
ENDBRANCH  26  28
ENDBRANCH  25  26
ENDBRANCH   1  25
TORSDOF 6
ENDMDL
MODEL 5
REMARK VINA RESULT:      -8.0      2.178      3.690
REMARK  Name = 
REMARK  7 active torsions:
REMARK  status: ('A' for Active; 'I' for Inactive)
REMARK    1  A    between atoms: C_1  and  C_2
REMARK    2  A    between atoms: C_2  and  C_3
REMARK    3  A    between atoms: C_3  and  C_4
REMARK    4  A    between atoms: C_4  and  C_5
REMARK    5  A    between atoms: C_9  and  C_11
REMARK    6  A    between atoms: C_19  and  C_20
REMARK    7  A    between atoms: C_23  and  O_24
REMARK                            x       y       z     vdW  Elec       q    Type
REMARK                         _______ _______ _______ _____ _____    ______ ____
ROOT
ATOM      1  C   UNL     1       4.004   6.846  17.298  0.00  0.00    +0.000 A 
ATOM      2 SE   UNL     1       3.406   8.573  17.320  0.00  0.00    +0.000 Se
ATOM      3  C   UNL     1       2.342   8.022  18.664  0.00  0.00    +0.000 A 
ATOM      4  N   UNL     1       1.507   8.944  19.356  0.00  0.00    +0.000 N 
ATOM      5  C   UNL     1       0.866   8.670  20.530  0.00  0.00    +0.000 C 
ATOM      6  O   UNL     1       0.999   7.568  21.049  0.00  0.00    +0.000 OA
ATOM      7  N   UNL     1       2.424   6.714  18.970  0.00  0.00    +0.000 NA
ATOM      8  C   UNL     1       3.336   6.044  18.235  0.00  0.00    +0.000 A 
ATOM      9  H   UNL     1       1.450   9.882  18.945  0.00  0.00    +0.000 HD
ENDROOT
BRANCH   5  10
ATOM     10  C   UNL     1       0.031   9.695  21.239  0.00  0.00    +0.000 A 
ATOM     11  C   UNL     1      -0.480  10.847  20.595  0.00  0.00    +0.000 A 
ATOM     12  C   UNL     1      -1.250  11.776  21.300  0.00  0.00    +0.000 A 
ATOM     13  C   UNL     1      -1.522  11.583  22.655  0.00  0.00    +0.000 A 
ATOM     14 CL   UNL     1      -2.487  12.754  23.534  0.00  0.00    +0.000 Cl
ATOM     15  C   UNL     1      -1.026  10.453  23.308  0.00  0.00    +0.000 A 
ATOM     16  C   UNL     1      -0.259   9.518  22.610  0.00  0.00    +0.000 A 
ENDBRANCH   5  10
BRANCH   8  17
ATOM     17  C   UNL     1       3.485   4.570  18.407  0.00  0.00    +0.000 A 
ATOM     18  C   UNL     1       2.772   3.714  17.544  0.00  0.00    +0.000 A 
ATOM     19  C   UNL     1       2.920   2.325  17.623  0.00  0.00    +0.000 A 
ATOM     20  C   UNL     1       3.764   1.762  18.587  0.00  0.00    +0.000 A 
ATOM     21  C   UNL     1       4.447   2.595  19.475  0.00  0.00    +0.000 A 
ATOM     22  C   UNL     1       4.316   3.983  19.383  0.00  0.00    +0.000 A 
BRANCH  20  23
ATOM     23  O   UNL     1       3.928   0.426  18.668  0.00  0.00    +0.000 OA
ATOM     24  H   UNL     1       3.569  -0.093  19.400  0.00  0.00    +0.000 HD
ENDBRANCH  20  23
ENDBRANCH   8  17
BRANCH   1  25
ATOM     25  C   UNL     1       4.995   6.353  16.263  0.00  0.00    +0.000 C 
BRANCH  25  26
ATOM     26  C   UNL     1       6.405   6.152  16.835  0.00  0.00    +0.000 C 
BRANCH  26  28
ATOM     27  C   UNL     1       5.971   3.942  15.742  0.00  0.00    +0.000 C 
ATOM     28  C   UNL     1       6.867   4.699  16.718  0.00  0.00    +0.000 C 
ENDBRANCH  26  28
ENDBRANCH  25  26
ENDBRANCH   1  25
TORSDOF 6
ENDMDL
MODEL 6
REMARK VINA RESULT:      -7.8      1.247      1.337
REMARK  Name = 
REMARK  7 active torsions:
REMARK  status: ('A' for Active; 'I' for Inactive)
REMARK    1  A    between atoms: C_1  and  C_2
REMARK    2  A    between atoms: C_2  and  C_3
REMARK    3  A    between atoms: C_3  and  C_4
REMARK    4  A    between atoms: C_4  and  C_5
REMARK    5  A    between atoms: C_9  and  C_11
REMARK    6  A    between atoms: C_19  and  C_20
REMARK    7  A    between atoms: C_23  and  O_24
REMARK                            x       y       z     vdW  Elec       q    Type
REMARK                         _______ _______ _______ _____ _____    ______ ____
ROOT
ATOM      1  C   UNL     1       3.380   4.740  19.505  0.00  0.00    +0.000 A 
ATOM      2 SE   UNL     1       2.189   5.368  20.741  0.00  0.00    +0.000 Se
ATOM      3  C   UNL     1       2.279   6.909  19.814  0.00  0.00    +0.000 A 
ATOM      4  N   UNL     1       1.459   8.019  20.165  0.00  0.00    +0.000 N 
ATOM      5  C   UNL     1       1.280   9.121  19.381  0.00  0.00    +0.000 C 
ATOM      6  O   UNL     1       1.845   9.191  18.296  0.00  0.00    +0.000 OA
ATOM      7  N   UNL     1       3.135   6.912  18.776  0.00  0.00    +0.000 NA
ATOM      8  C   UNL     1       3.751   5.728  18.580  0.00  0.00    +0.000 A 
ATOM      9  H   UNL     1       0.944   7.924  21.048  0.00  0.00    +0.000 HD
ENDROOT
BRANCH   5  10
ATOM     10  C   UNL     1       0.369  10.244  19.783  0.00  0.00    +0.000 A 
ATOM     11  C   UNL     1      -0.830  10.543  19.095  0.00  0.00    +0.000 A 
ATOM     12  C   UNL     1      -1.643  11.603  19.505  0.00  0.00    +0.000 A 
ATOM     13  C   UNL     1      -1.279  12.387  20.601  0.00  0.00    +0.000 A 
ATOM     14 CL   UNL     1      -2.303  13.717  21.109  0.00  0.00    +0.000 Cl
ATOM     15  C   UNL     1      -0.100  12.108  21.292  0.00  0.00    +0.000 A 
ATOM     16  C   UNL     1       0.716  11.048  20.891  0.00  0.00    +0.000 A 
ENDBRANCH   5  10
BRANCH   8  17
ATOM     17  C   UNL     1       4.786   5.601  17.513  0.00  0.00    +0.000 A 
ATOM     18  C   UNL     1       6.024   6.251  17.693  0.00  0.00    +0.000 A 
ATOM     19  C   UNL     1       7.050   6.117  16.752  0.00  0.00    +0.000 A 
ATOM     20  C   UNL     1       6.850   5.352  15.597  0.00  0.00    +0.000 A 
ATOM     21  C   UNL     1       5.615   4.735  15.386  0.00  0.00    +0.000 A 
ATOM     22  C   UNL     1       4.597   4.850  16.336  0.00  0.00    +0.000 A 
BRANCH  20  23
ATOM     23  O   UNL     1       7.834   5.202  14.687  0.00  0.00    +0.000 OA
ATOM     24  H   UNL     1       8.701   5.615  14.795  0.00  0.00    +0.000 HD
ENDBRANCH  20  23
ENDBRANCH   8  17
BRANCH   1  25
ATOM     25  C   UNL     1       3.985   3.355  19.604  0.00  0.00    +0.000 C 
BRANCH  25  26
ATOM     26  C   UNL     1       3.230   2.313  18.769  0.00  0.00    +0.000 C 
BRANCH  26  28
ATOM     27  C   UNL     1       0.730   2.418  18.689  0.00  0.00    +0.000 C 
ATOM     28  C   UNL     1       1.934   1.868  19.447  0.00  0.00    +0.000 C 
ENDBRANCH  26  28
ENDBRANCH  25  26
ENDBRANCH   1  25
TORSDOF 6
ENDMDL
MODEL 7
REMARK VINA RESULT:      -7.8      2.190      3.937
REMARK  Name = 
REMARK  7 active torsions:
REMARK  status: ('A' for Active; 'I' for Inactive)
REMARK    1  A    between atoms: C_1  and  C_2
REMARK    2  A    between atoms: C_2  and  C_3
REMARK    3  A    between atoms: C_3  and  C_4
REMARK    4  A    between atoms: C_4  and  C_5
REMARK    5  A    between atoms: C_9  and  C_11
REMARK    6  A    between atoms: C_19  and  C_20
REMARK    7  A    between atoms: C_23  and  O_24
REMARK                            x       y       z     vdW  Elec       q    Type
REMARK                         _______ _______ _______ _____ _____    ______ ____
ROOT
ATOM      1  C   UNL     1       4.006   6.711  17.354  0.00  0.00    +0.000 A 
ATOM      2 SE   UNL     1       3.409   8.440  17.373  0.00  0.00    +0.000 Se
ATOM      3  C   UNL     1       2.374   7.901  18.743  0.00  0.00    +0.000 A 
ATOM      4  N   UNL     1       1.554   8.830  19.445  0.00  0.00    +0.000 N 
ATOM      5  C   UNL     1       0.938   8.568  20.634  0.00  0.00    +0.000 C 
ATOM      6  O   UNL     1       1.080   7.471  21.161  0.00  0.00    +0.000 OA
ATOM      7  N   UNL     1       2.461   6.596  19.060  0.00  0.00    +0.000 NA
ATOM      8  C   UNL     1       3.357   5.919  18.312  0.00  0.00    +0.000 A 
ATOM      9  H   UNL     1       1.488   9.764  19.026  0.00  0.00    +0.000 HD
ENDROOT
BRANCH   5  10
ATOM     10  C   UNL     1       0.118   9.600  21.351  0.00  0.00    +0.000 A 
ATOM     11  C   UNL     1      -0.298   9.452  22.695  0.00  0.00    +0.000 A 
ATOM     12  C   UNL     1      -1.064  10.440  23.319  0.00  0.00    +0.000 A 
ATOM     13  C   UNL     1      -1.436  11.589  22.619  0.00  0.00    +0.000 A 
ATOM     14 CL   UNL     1      -2.399  12.824  23.407  0.00  0.00    +0.000 Cl
ATOM     15  C   UNL     1      -1.036  11.754  21.292  0.00  0.00    +0.000 A 
ATOM     16  C   UNL     1      -0.266  10.773  20.664  0.00  0.00    +0.000 A 
ENDBRANCH   5  10
BRANCH   8  17
ATOM     17  C   UNL     1       3.509   4.446  18.495  0.00  0.00    +0.000 A 
ATOM     18  C   UNL     1       2.823   3.583  17.616  0.00  0.00    +0.000 A 
ATOM     19  C   UNL     1       2.977   2.195  17.705  0.00  0.00    +0.000 A 
ATOM     20  C   UNL     1       3.797   1.640  18.695  0.00  0.00    +0.000 A 
ATOM     21  C   UNL     1       4.451   2.481  19.598  0.00  0.00    +0.000 A 
ATOM     22  C   UNL     1       4.315   3.868  19.496  0.00  0.00    +0.000 A 
BRANCH  20  23
ATOM     23  O   UNL     1       3.966   0.306  18.786  0.00  0.00    +0.000 OA
ATOM     24  H   UNL     1       3.751  -0.186  19.590  0.00  0.00    +0.000 HD
ENDBRANCH  20  23
ENDBRANCH   8  17
BRANCH   1  25
ATOM     25  C   UNL     1       4.974   6.208  16.303  0.00  0.00    +0.000 C 
BRANCH  25  26
ATOM     26  C   UNL     1       6.443   6.421  16.695  0.00  0.00    +0.000 C 
BRANCH  26  28
ATOM     27  C   UNL     1       7.559   5.644  18.796  0.00  0.00    +0.000 C 
ATOM     28  C   UNL     1       7.017   5.213  17.436  0.00  0.00    +0.000 C 
ENDBRANCH  26  28
ENDBRANCH  25  26
ENDBRANCH   1  25
TORSDOF 6
ENDMDL
MODEL 8
REMARK VINA RESULT:      -7.8      2.204      3.739
REMARK  Name = 
REMARK  7 active torsions:
REMARK  status: ('A' for Active; 'I' for Inactive)
REMARK    1  A    between atoms: C_1  and  C_2
REMARK    2  A    between atoms: C_2  and  C_3
REMARK    3  A    between atoms: C_3  and  C_4
REMARK    4  A    between atoms: C_4  and  C_5
REMARK    5  A    between atoms: C_9  and  C_11
REMARK    6  A    between atoms: C_19  and  C_20
REMARK    7  A    between atoms: C_23  and  O_24
REMARK                            x       y       z     vdW  Elec       q    Type
REMARK                         _______ _______ _______ _____ _____    ______ ____
ROOT
ATOM      1  C   UNL     1       3.987   6.844  17.271  0.00  0.00    +0.000 A 
ATOM      2 SE   UNL     1       3.423   8.581  17.356  0.00  0.00    +0.000 Se
ATOM      3  C   UNL     1       2.352   8.003  18.682  0.00  0.00    +0.000 A 
ATOM      4  N   UNL     1       1.536   8.916  19.409  0.00  0.00    +0.000 N 
ATOM      5  C   UNL     1       0.893   8.613  20.574  0.00  0.00    +0.000 C 
ATOM      6  O   UNL     1       1.005   7.492  21.054  0.00  0.00    +0.000 OA
ATOM      7  N   UNL     1       2.408   6.684  18.942  0.00  0.00    +0.000 NA
ATOM      8  C   UNL     1       3.306   6.022  18.181  0.00  0.00    +0.000 A 
ATOM      9  H   UNL     1       1.496   9.869  19.031  0.00  0.00    +0.000 HD
ENDROOT
BRANCH   5  10
ATOM     10  C   UNL     1       0.079   9.629  21.321  0.00  0.00    +0.000 A 
ATOM     11  C   UNL     1      -0.273   9.479  22.684  0.00  0.00    +0.000 A 
ATOM     12  C   UNL     1      -1.037  10.451  23.335  0.00  0.00    +0.000 A 
ATOM     13  C   UNL     1      -1.468  11.586  22.647  0.00  0.00    +0.000 A 
ATOM     14 CL   UNL     1      -2.427  12.801  23.470  0.00  0.00    +0.000 Cl
ATOM     15  C   UNL     1      -1.131  11.753  21.303  0.00  0.00    +0.000 A 
ATOM     16  C   UNL     1      -0.364  10.787  20.645  0.00  0.00    +0.000 A 
ENDBRANCH   5  10
BRANCH   8  17
ATOM     17  C   UNL     1       3.426   4.541  18.301  0.00  0.00    +0.000 A 
ATOM     18  C   UNL     1       4.294   4.011  19.278  0.00  0.00    +0.000 A 
ATOM     19  C   UNL     1       4.401   2.629  19.473  0.00  0.00    +0.000 A 
ATOM     20  C   UNL     1       3.662   1.748  18.675  0.00  0.00    +0.000 A 
ATOM     21  C   UNL     1       2.828   2.256  17.677  0.00  0.00    +0.000 A 
ATOM     22  C   UNL     1       2.705   3.637  17.496  0.00  0.00    +0.000 A 
BRANCH  20  23
ATOM     23  O   UNL     1       3.743   0.414  18.859  0.00  0.00    +0.000 OA
ATOM     24  H   UNL     1       3.535  -0.001  19.707  0.00  0.00    +0.000 HD
ENDBRANCH  20  23
ENDBRANCH   8  17
BRANCH   1  25
ATOM     25  C   UNL     1       4.965   6.368  16.217  0.00  0.00    +0.000 C 
BRANCH  25  26
ATOM     26  C   UNL     1       6.396   6.224  16.753  0.00  0.00    +0.000 C 
BRANCH  26  28
ATOM     27  C   UNL     1       6.087   3.987  15.672  0.00  0.00    +0.000 C 
ATOM     28  C   UNL     1       6.877   4.772  16.715  0.00  0.00    +0.000 C 
ENDBRANCH  26  28
ENDBRANCH  25  26
ENDBRANCH   1  25
TORSDOF 6
ENDMDL
MODEL 9
REMARK VINA RESULT:      -7.7      1.316      1.924
REMARK  Name = 
REMARK  7 active torsions:
REMARK  status: ('A' for Active; 'I' for Inactive)
REMARK    1  A    between atoms: C_1  and  C_2
REMARK    2  A    between atoms: C_2  and  C_3
REMARK    3  A    between atoms: C_3  and  C_4
REMARK    4  A    between atoms: C_4  and  C_5
REMARK    5  A    between atoms: C_9  and  C_11
REMARK    6  A    between atoms: C_19  and  C_20
REMARK    7  A    between atoms: C_23  and  O_24
REMARK                            x       y       z     vdW  Elec       q    Type
REMARK                         _______ _______ _______ _____ _____    ______ ____
ROOT
ATOM      1  C   UNL     1       3.287   4.810  19.667  0.00  0.00    +0.000 A 
ATOM      2 SE   UNL     1       2.027   5.464  20.820  0.00  0.00    +0.000 Se
ATOM      3  C   UNL     1       2.195   6.994  19.887  0.00  0.00    +0.000 A 
ATOM      4  N   UNL     1       1.368   8.117  20.176  0.00  0.00    +0.000 N 
ATOM      5  C   UNL     1       1.252   9.214  19.373  0.00  0.00    +0.000 C 
ATOM      6  O   UNL     1       1.886   9.268  18.325  0.00  0.00    +0.000 OA
ATOM      7  N   UNL     1       3.114   6.978  18.905  0.00  0.00    +0.000 NA
ATOM      8  C   UNL     1       3.727   5.785  18.759  0.00  0.00    +0.000 A 
ATOM      9  H   UNL     1       0.797   8.037  21.025  0.00  0.00    +0.000 HD
ENDROOT
BRANCH   5  10
ATOM     10  C   UNL     1       0.332  10.351  19.706  0.00  0.00    +0.000 A 
ATOM     11  C   UNL     1       0.519  11.184  20.835  0.00  0.00    +0.000 A 
ATOM     12  C   UNL     1      -0.369  12.229  21.106  0.00  0.00    +0.000 A 
ATOM     13  C   UNL     1      -1.459  12.463  20.267  0.00  0.00    +0.000 A 
ATOM     14 CL   UNL     1      -2.570  13.774  20.614  0.00  0.00    +0.000 Cl
ATOM     15  C   UNL     1      -1.661  11.652  19.149  0.00  0.00    +0.000 A 
ATOM     16  C   UNL     1      -0.775  10.609  18.868  0.00  0.00    +0.000 A 
ENDBRANCH   5  10
BRANCH   8  17
ATOM     17  C   UNL     1       4.826   5.635  17.762  0.00  0.00    +0.000 A 
ATOM     18  C   UNL     1       4.532   5.040  16.518  0.00  0.00    +0.000 A 
ATOM     19  C   UNL     1       5.510   4.929  15.524  0.00  0.00    +0.000 A 
ATOM     20  C   UNL     1       6.811   5.385  15.764  0.00  0.00    +0.000 A 
ATOM     21  C   UNL     1       7.128   5.941  17.005  0.00  0.00    +0.000 A 
ATOM     22  C   UNL     1       6.146   6.072  17.991  0.00  0.00    +0.000 A 
BRANCH  20  23
ATOM     23  O   UNL     1       7.762   5.297  14.812  0.00  0.00    +0.000 OA
ATOM     24  H   UNL     1       8.664   5.010  15.011  0.00  0.00    +0.000 HD
ENDBRANCH  20  23
ENDBRANCH   8  17
BRANCH   1  25
ATOM     25  C   UNL     1       3.867   3.419  19.817  0.00  0.00    +0.000 C 
BRANCH  25  26
ATOM     26  C   UNL     1       2.790   2.329  19.900  0.00  0.00    +0.000 C 
BRANCH  26  28
ATOM     27  C   UNL     1       2.621   2.145  17.409  0.00  0.00    +0.000 C 
ATOM     28  C   UNL     1       1.841   2.372  18.701  0.00  0.00    +0.000 C 
ENDBRANCH  26  28
ENDBRANCH  25  26
ENDBRANCH   1  25
TORSDOF 6
ENDMDL
