MODEL 1
REMARK VINA RESULT:      -9.0      0.000      0.000
REMARK  Name = 
REMARK  4 active torsions:
REMARK  status: ('A' for Active; 'I' for Inactive)
REMARK    1  A    between atoms: C_1  and  C_2
REMARK    2  A    between atoms: C_8  and  C_10
REMARK    3  A    between atoms: C_14  and  C_15
REMARK    4  A    between atoms: C_22  and  C_23
REMARK                            x       y       z     vdW  Elec       q    Type
REMARK                         _______ _______ _______ _____ _____    ______ ____
ROOT
ATOM      1  C   UNL     1       0.089  12.409  19.485  0.00  0.00    +0.000 A 
ATOM      2  N   UNL     1      -1.255  12.462  19.523  0.00  0.00    +0.000 NA
ATOM      3  C   UNL     1      -1.780  12.239  20.725  0.00  0.00    +0.000 A 
ATOM      4  N   UNL     1      -1.122  11.688  21.742  0.00  0.00    +0.000 NA
ATOM      5  C   UNL     1      -0.003  11.048  21.414  0.00  0.00    +0.000 A 
ATOM      6  C   UNL     1       0.305   9.983  22.262  0.00  0.00    +0.000 A 
ATOM      7  C   UNL     1       1.022   8.830  21.873  0.00  0.00    +0.000 A 
ATOM      8  C   UNL     1       1.483   8.672  20.569  0.00  0.00    +0.000 A 
ATOM      9  C   UNL     1       1.370   9.927  19.781  0.00  0.00    +0.000 A 
ATOM     10  C   UNL     1       0.655  11.237  20.199  0.00  0.00    +0.000 A 
ENDROOT
BRANCH   8  11
ATOM     11  C   UNL     1       1.834   7.211  20.074  0.00  0.00    +0.000 A 
ATOM     12  C   UNL     1       2.529   6.999  18.892  0.00  0.00    +0.000 A 
ATOM     13  N   UNL     1       2.643   5.808  18.201  0.00  0.00    +0.000 NA
ATOM     14  C   UNL     1       2.184   4.666  18.737  0.00  0.00    +0.000 A 
ATOM     15  C   UNL     1       2.266   3.469  17.970  0.00  0.00    +0.000 A 
ATOM     16  C   UNL     1       2.008   2.212  18.512  0.00  0.00    +0.000 A 
ATOM     17  C   UNL     1       1.627   2.128  19.850  0.00  0.00    +0.000 A 
ATOM     18  C   UNL     1       1.418   3.311  20.581  0.00  0.00    +0.000 A 
ATOM     19  C   UNL     1       1.652   4.624  20.013  0.00  0.00    +0.000 A 
ATOM     20  C   UNL     1       1.405   5.951  20.637  0.00  0.00    +0.000 A 
ENDBRANCH   8  11
BRANCH   1  25
ATOM     21  C   UNL     1       1.691  16.149  19.899  0.00  0.00    +0.000 A 
ATOM     22  C   UNL     1       0.765  16.924  19.187  0.00  0.00    +0.000 A 
ATOM     23  C   UNL     1      -0.286  16.285  18.574  0.00  0.00    +0.000 A 
ATOM     24  C   UNL     1      -0.401  14.879  18.678  0.00  0.00    +0.000 A 
ATOM     25  C   UNL     1       0.496  13.991  19.403  0.00  0.00    +0.000 A 
ATOM     26  C   UNL     1       1.568  14.698  19.993  0.00  0.00    +0.000 A 
BRANCH  21  34
ATOM     27  C   UNL     1       8.339  15.676  17.825  0.00  0.00    +0.000 C 
ATOM     28  C   UNL     1       8.061  16.444  19.094  0.00  0.00    +0.000 C 
ATOM     29  O   UNL     1       8.917  17.192  19.564  0.00  0.00    +0.000 OA
ATOM     30  N   UNL     1       6.805  16.299  19.652  0.00  0.00    +0.000 N 
ATOM     31  C   UNL     1       6.406  17.110  20.811  0.00  0.00    +0.000 C 
ATOM     32  C   UNL     1       5.094  17.868  20.529  0.00  0.00    +0.000 C 
ATOM     33  N   UNL     1       4.046  16.994  19.958  0.00  0.00    +0.000 N 
ATOM     34  C   UNL     1       2.778  16.970  20.531  0.00  0.00    +0.000 C 
ATOM     35  O   UNL     1       2.542  17.530  21.602  0.00  0.00    +0.000 OA
ATOM     36  C   UNL     1       4.481  16.156  18.842  0.00  0.00    +0.000 C 
ATOM     37  C   UNL     1       5.764  15.392  19.175  0.00  0.00    +0.000 C 
ENDBRANCH  21  34
ENDBRANCH   1  25
TORSDOF 3
ENDMDL
MODEL 2
REMARK VINA RESULT:      -8.8      1.426      1.881
REMARK  Name = 
REMARK  4 active torsions:
REMARK  status: ('A' for Active; 'I' for Inactive)
REMARK    1  A    between atoms: C_1  and  C_2
REMARK    2  A    between atoms: C_8  and  C_10
REMARK    3  A    between atoms: C_14  and  C_15
REMARK    4  A    between atoms: C_22  and  C_23
REMARK                            x       y       z     vdW  Elec       q    Type
REMARK                         _______ _______ _______ _____ _____    ______ ____
ROOT
ATOM      1  C   UNL     1       0.167  12.136  18.939  0.00  0.00    +0.000 A 
ATOM      2  N   UNL     1      -1.178  12.170  18.939  0.00  0.00    +0.000 NA
ATOM      3  C   UNL     1      -1.732  11.977  20.132  0.00  0.00    +0.000 A 
ATOM      4  N   UNL     1      -1.095  11.469  21.184  0.00  0.00    +0.000 NA
ATOM      5  C   UNL     1       0.042  10.837  20.907  0.00  0.00    +0.000 A 
ATOM      6  C   UNL     1       0.342   9.804  21.797  0.00  0.00    +0.000 A 
ATOM      7  C   UNL     1       1.087   8.651  21.465  0.00  0.00    +0.000 A 
ATOM      8  C   UNL     1       1.587   8.459  20.181  0.00  0.00    +0.000 A 
ATOM      9  C   UNL     1       1.477   9.686  19.349  0.00  0.00    +0.000 A 
ATOM     10  C   UNL     1       0.731  10.997  19.706  0.00  0.00    +0.000 A 
ENDROOT
BRANCH   8  11
ATOM     11  C   UNL     1       1.973   6.988  19.743  0.00  0.00    +0.000 A 
ATOM     12  C   UNL     1       2.687   6.748  18.577  0.00  0.00    +0.000 A 
ATOM     13  N   UNL     1       2.834   5.536  17.931  0.00  0.00    +0.000 NA
ATOM     14  C   UNL     1       2.391   4.405  18.503  0.00  0.00    +0.000 A 
ATOM     15  C   UNL     1       2.507   3.184  17.780  0.00  0.00    +0.000 A 
ATOM     16  C   UNL     1       2.267   1.941  18.364  0.00  0.00    +0.000 A 
ATOM     17  C   UNL     1       1.870   1.898  19.699  0.00  0.00    +0.000 A 
ATOM     18  C   UNL     1       1.629   3.101  20.385  0.00  0.00    +0.000 A 
ATOM     19  C   UNL     1       1.843   4.398  19.772  0.00  0.00    +0.000 A 
ATOM     20  C   UNL     1       1.562   5.741  20.345  0.00  0.00    +0.000 A 
ENDBRANCH   8  11
BRANCH   1  25
ATOM     21  C   UNL     1       1.956  15.804  18.668  0.00  0.00    +0.000 A 
ATOM     22  C   UNL     1       0.863  16.658  18.869  0.00  0.00    +0.000 A 
ATOM     23  C   UNL     1      -0.380  16.097  19.037  0.00  0.00    +0.000 A 
ATOM     24  C   UNL     1      -0.518  14.689  19.004  0.00  0.00    +0.000 A 
ATOM     25  C   UNL     1       0.553  13.721  18.817  0.00  0.00    +0.000 A 
ATOM     26  C   UNL     1       1.801  14.353  18.626  0.00  0.00    +0.000 A 
BRANCH  21  34
ATOM     27  C   UNL     1       6.357  16.676  24.015  0.00  0.00    +0.000 C 
ATOM     28  C   UNL     1       6.629  17.465  22.757  0.00  0.00    +0.000 C 
ATOM     29  O   UNL     1       7.726  17.994  22.584  0.00  0.00    +0.000 OA
ATOM     30  N   UNL     1       5.617  17.513  21.817  0.00  0.00    +0.000 N 
ATOM     31  C   UNL     1       5.844  18.146  20.510  0.00  0.00    +0.000 C 
ATOM     32  C   UNL     1       5.501  17.177  19.361  0.00  0.00    +0.000 C 
ATOM     33  N   UNL     1       4.188  16.522  19.545  0.00  0.00    +0.000 N 
ATOM     34  C   UNL     1       3.254  16.543  18.513  0.00  0.00    +0.000 C 
ATOM     35  O   UNL     1       3.419  17.234  17.507  0.00  0.00    +0.000 OA
ATOM     36  C   UNL     1       3.964  15.949  20.871  0.00  0.00    +0.000 C 
ATOM     37  C   UNL     1       4.278  16.952  21.982  0.00  0.00    +0.000 C 
ENDBRANCH  21  34
ENDBRANCH   1  25
TORSDOF 3
ENDMDL
MODEL 3
REMARK VINA RESULT:      -8.6      1.530      2.012
REMARK  Name = 
REMARK  4 active torsions:
REMARK  status: ('A' for Active; 'I' for Inactive)
REMARK    1  A    between atoms: C_1  and  C_2
REMARK    2  A    between atoms: C_8  and  C_10
REMARK    3  A    between atoms: C_14  and  C_15
REMARK    4  A    between atoms: C_22  and  C_23
REMARK                            x       y       z     vdW  Elec       q    Type
REMARK                         _______ _______ _______ _____ _____    ______ ____
ROOT
ATOM      1  C   UNL     1       0.161  11.931  19.038  0.00  0.00    +0.000 A 
ATOM      2  N   UNL     1      -1.180  12.022  19.115  0.00  0.00    +0.000 NA
ATOM      3  C   UNL     1      -1.668  11.907  20.347  0.00  0.00    +0.000 A 
ATOM      4  N   UNL     1      -0.989  11.420  21.383  0.00  0.00    +0.000 NA
ATOM      5  C   UNL     1       0.103  10.727  21.070  0.00  0.00    +0.000 A 
ATOM      6  C   UNL     1       0.414   9.723  21.989  0.00  0.00    +0.000 A 
ATOM      7  C   UNL     1       1.090   8.525  21.669  0.00  0.00    +0.000 A 
ATOM      8  C   UNL     1       1.503   8.255  20.368  0.00  0.00    +0.000 A 
ATOM      9  C   UNL     1       1.392   9.447  19.487  0.00  0.00    +0.000 A 
ATOM     10  C   UNL     1       0.723  10.804  19.824  0.00  0.00    +0.000 A 
ENDROOT
BRANCH   8  11
ATOM     11  C   UNL     1       1.801   6.751  19.978  0.00  0.00    +0.000 A 
ATOM     12  C   UNL     1       1.459   5.706  20.825  0.00  0.00    +0.000 A 
ATOM     13  N   UNL     1       1.912   4.403  20.757  0.00  0.00    +0.000 NA
ATOM     14  C   UNL     1       2.646   3.994  19.710  0.00  0.00    +0.000 A 
ATOM     15  C   UNL     1       3.144   2.660  19.704  0.00  0.00    +0.000 A 
ATOM     16  C   UNL     1       3.736   2.086  18.580  0.00  0.00    +0.000 A 
ATOM     17  C   UNL     1       3.869   2.858  17.429  0.00  0.00    +0.000 A 
ATOM     18  C   UNL     1       3.498   4.214  17.463  0.00  0.00    +0.000 A 
ATOM     19  C   UNL     1       2.914   4.827  18.640  0.00  0.00    +0.000 A 
ATOM     20  C   UNL     1       2.545   6.254  18.844  0.00  0.00    +0.000 A 
ENDBRANCH   8  11
BRANCH   1  25
ATOM     21  C   UNL     1       2.077  15.502  18.493  0.00  0.00    +0.000 A 
ATOM     22  C   UNL     1       1.032  16.410  18.711  0.00  0.00    +0.000 A 
ATOM     23  C   UNL     1      -0.221  15.911  18.975  0.00  0.00    +0.000 A 
ATOM     24  C   UNL     1      -0.417  14.511  19.017  0.00  0.00    +0.000 A 
ATOM     25  C   UNL     1       0.602  13.490  18.819  0.00  0.00    +0.000 A 
ATOM     26  C   UNL     1       1.862  14.059  18.529  0.00  0.00    +0.000 A 
BRANCH  21  34
ATOM     27  C   UNL     1       7.606  14.520  22.639  0.00  0.00    +0.000 C 
ATOM     28  C   UNL     1       7.695  15.623  21.613  0.00  0.00    +0.000 C 
ATOM     29  O   UNL     1       8.787  16.115  21.327  0.00  0.00    +0.000 OA
ATOM     30  N   UNL     1       6.518  16.002  20.996  0.00  0.00    +0.000 N 
ATOM     31  C   UNL     1       6.534  16.974  19.894  0.00  0.00    +0.000 C 
ATOM     32  C   UNL     1       5.832  16.403  18.645  0.00  0.00    +0.000 C 
ATOM     33  N   UNL     1       4.518  15.801  18.960  0.00  0.00    +0.000 N 
ATOM     34  C   UNL     1       3.393  16.177  18.231  0.00  0.00    +0.000 C 
ATOM     35  O   UNL     1       3.421  17.120  17.440  0.00  0.00    +0.000 OA
ATOM     36  C   UNL     1       4.517  14.881  20.095  0.00  0.00    +0.000 C 
ATOM     37  C   UNL     1       5.187  15.497  21.324  0.00  0.00    +0.000 C 
ENDBRANCH  21  34
ENDBRANCH   1  25
TORSDOF 3
ENDMDL
MODEL 4
REMARK VINA RESULT:      -8.4      1.165      1.251
REMARK  Name = 
REMARK  4 active torsions:
REMARK  status: ('A' for Active; 'I' for Inactive)
REMARK    1  A    between atoms: C_1  and  C_2
REMARK    2  A    between atoms: C_8  and  C_10
REMARK    3  A    between atoms: C_14  and  C_15
REMARK    4  A    between atoms: C_22  and  C_23
REMARK                            x       y       z     vdW  Elec       q    Type
REMARK                         _______ _______ _______ _____ _____    ______ ____
ROOT
ATOM      1  C   UNL     1      -0.078  12.243  19.856  0.00  0.00    +0.000 A 
ATOM      2  N   UNL     1      -1.419  12.250  19.979  0.00  0.00    +0.000 NA
ATOM      3  C   UNL     1      -1.860  11.943  21.196  0.00  0.00    +0.000 A 
ATOM      4  N   UNL     1      -1.123  11.359  22.138  0.00  0.00    +0.000 NA
ATOM      5  C   UNL     1      -0.009  10.775  21.705  0.00  0.00    +0.000 A 
ATOM      6  C   UNL     1       0.383   9.676  22.470  0.00  0.00    +0.000 A 
ATOM      7  C   UNL     1       1.108   8.570  21.973  0.00  0.00    +0.000 A 
ATOM      8  C   UNL     1       1.491   8.501  20.637  0.00  0.00    +0.000 A 
ATOM      9  C   UNL     1       1.292   9.793  19.930  0.00  0.00    +0.000 A 
ATOM     10  C   UNL     1       0.566  11.053  20.466  0.00  0.00    +0.000 A 
ENDROOT
BRANCH   8  11
ATOM     11  C   UNL     1       1.853   7.081  20.039  0.00  0.00    +0.000 A 
ATOM     12  C   UNL     1       2.531   6.960  18.834  0.00  0.00    +0.000 A 
ATOM     13  N   UNL     1       2.650   5.820  18.062  0.00  0.00    +0.000 NA
ATOM     14  C   UNL     1       2.216   4.638  18.527  0.00  0.00    +0.000 A 
ATOM     15  C   UNL     1       2.301   3.497  17.679  0.00  0.00    +0.000 A 
ATOM     16  C   UNL     1       2.069   2.202  18.139  0.00  0.00    +0.000 A 
ATOM     17  C   UNL     1       1.712   2.023  19.474  0.00  0.00    +0.000 A 
ATOM     18  C   UNL     1       1.500   3.150  20.287  0.00  0.00    +0.000 A 
ATOM     19  C   UNL     1       1.706   4.502  19.805  0.00  0.00    +0.000 A 
ATOM     20  C   UNL     1       1.452   5.780  20.522  0.00  0.00    +0.000 A 
ENDBRANCH   8  11
BRANCH   1  25
ATOM     21  C   UNL     1       1.597  15.962  19.554  0.00  0.00    +0.000 A 
ATOM     22  C   UNL     1       0.633  16.750  20.196  0.00  0.00    +0.000 A 
ATOM     23  C   UNL     1      -0.507  16.137  20.660  0.00  0.00    +0.000 A 
ATOM     24  C   UNL     1      -0.670  14.744  20.479  0.00  0.00    +0.000 A 
ATOM     25  C   UNL     1       0.275  13.840  19.840  0.00  0.00    +0.000 A 
ATOM     26  C   UNL     1       1.414  14.526  19.362  0.00  0.00    +0.000 A 
BRANCH  21  34
ATOM     27  C   UNL     1       8.075  14.209  21.474  0.00  0.00    +0.000 C 
ATOM     28  C   UNL     1       7.888  15.548  20.803  0.00  0.00    +0.000 C 
ATOM     29  O   UNL     1       8.860  16.155  20.353  0.00  0.00    +0.000 OA
ATOM     30  N   UNL     1       6.593  16.014  20.683  0.00  0.00    +0.000 N 
ATOM     31  C   UNL     1       6.310  17.243  19.929  0.00  0.00    +0.000 C 
ATOM     32  C   UNL     1       5.253  16.987  18.836  0.00  0.00    +0.000 C 
ATOM     33  N   UNL     1       4.075  16.255  19.348  0.00  0.00    +0.000 N 
ATOM     34  C   UNL     1       2.795  16.750  19.110  0.00  0.00    +0.000 C 
ATOM     35  O   UNL     1       2.615  17.870  18.629  0.00  0.00    +0.000 OA
ATOM     36  C   UNL     1       4.382  15.068  20.142  0.00  0.00    +0.000 C 
ATOM     37  C   UNL     1       5.405  15.371  21.239  0.00  0.00    +0.000 C 
ENDBRANCH  21  34
ENDBRANCH   1  25
TORSDOF 3
ENDMDL
MODEL 5
REMARK VINA RESULT:      -8.4      1.663      2.305
REMARK  Name = 
REMARK  4 active torsions:
REMARK  status: ('A' for Active; 'I' for Inactive)
REMARK    1  A    between atoms: C_1  and  C_2
REMARK    2  A    between atoms: C_8  and  C_10
REMARK    3  A    between atoms: C_14  and  C_15
REMARK    4  A    between atoms: C_22  and  C_23
REMARK                            x       y       z     vdW  Elec       q    Type
REMARK                         _______ _______ _______ _____ _____    ______ ____
ROOT
ATOM      1  C   UNL     1       0.477  12.461  18.523  0.00  0.00    +0.000 A 
ATOM      2  N   UNL     1      -0.852  12.403  18.319  0.00  0.00    +0.000 NA
ATOM      3  C   UNL     1      -1.536  11.841  19.312  0.00  0.00    +0.000 A 
ATOM      4  N   UNL     1      -0.993  11.099  20.274  0.00  0.00    +0.000 NA
ATOM      5  C   UNL     1       0.233  10.649  20.019  0.00  0.00    +0.000 A 
ATOM      6  C   UNL     1       0.522   9.429  20.631  0.00  0.00    +0.000 A 
ATOM      7  C   UNL     1       1.425   8.470  20.121  0.00  0.00    +0.000 A 
ATOM      8  C   UNL     1       2.109   8.686  18.929  0.00  0.00    +0.000 A 
ATOM      9  C   UNL     1       1.978  10.089  18.455  0.00  0.00    +0.000 A 
ATOM     10  C   UNL     1       1.054  11.191  19.031  0.00  0.00    +0.000 A 
ENDROOT
BRANCH   8  11
ATOM     11  C   UNL     1       2.708   7.430  18.175  0.00  0.00    +0.000 A 
ATOM     12  C   UNL     1       2.246   6.147  18.435  0.00  0.00    +0.000 A 
ATOM     13  N   UNL     1       2.859   4.960  18.084  0.00  0.00    +0.000 NA
ATOM     14  C   UNL     1       3.939   4.965  17.285  0.00  0.00    +0.000 A 
ATOM     15  C   UNL     1       4.578   3.726  16.994  0.00  0.00    +0.000 A 
ATOM     16  C   UNL     1       5.569   3.605  16.022  0.00  0.00    +0.000 A 
ATOM     17  C   UNL     1       5.968   4.746  15.330  0.00  0.00    +0.000 A 
ATOM     18  C   UNL     1       5.436   5.995  15.698  0.00  0.00    +0.000 A 
ATOM     19  C   UNL     1       4.429   6.133  16.732  0.00  0.00    +0.000 A 
ATOM     20  C   UNL     1       3.835   7.384  17.273  0.00  0.00    +0.000 A 
ENDBRANCH   8  11
BRANCH   1  25
ATOM     21  C   UNL     1       1.707  16.096  19.937  0.00  0.00    +0.000 A 
ATOM     22  C   UNL     1       0.628  16.912  19.571  0.00  0.00    +0.000 A 
ATOM     23  C   UNL     1      -0.413  16.344  18.876  0.00  0.00    +0.000 A 
ATOM     24  C   UNL     1      -0.364  14.968  18.553  0.00  0.00    +0.000 A 
ATOM     25  C   UNL     1       0.700  14.037  18.899  0.00  0.00    +0.000 A 
ATOM     26  C   UNL     1       1.752  14.679  19.591  0.00  0.00    +0.000 A 
BRANCH  21  34
ATOM     27  C   UNL     1       8.381  16.130  17.894  0.00  0.00    +0.000 C 
ATOM     28  C   UNL     1       8.072  16.680  19.265  0.00  0.00    +0.000 C 
ATOM     29  O   UNL     1       8.904  17.367  19.857  0.00  0.00    +0.000 OA
ATOM     30  N   UNL     1       6.817  16.417  19.778  0.00  0.00    +0.000 N 
ATOM     31  C   UNL     1       6.387  17.024  21.045  0.00  0.00    +0.000 C 
ATOM     32  C   UNL     1       5.056  17.782  20.870  0.00  0.00    +0.000 C 
ATOM     33  N   UNL     1       4.038  16.982  20.156  0.00  0.00    +0.000 N 
ATOM     34  C   UNL     1       2.766  16.836  20.703  0.00  0.00    +0.000 C 
ATOM     35  O   UNL     1       2.507  17.213  21.847  0.00  0.00    +0.000 OA
ATOM     36  C   UNL     1       4.504  16.342  18.928  0.00  0.00    +0.000 C 
ATOM     37  C   UNL     1       5.805  15.569  19.152  0.00  0.00    +0.000 C 
ENDBRANCH  21  34
ENDBRANCH   1  25
TORSDOF 3
ENDMDL
MODEL 6
REMARK VINA RESULT:      -8.4      3.327      5.561
REMARK  Name = 
REMARK  4 active torsions:
REMARK  status: ('A' for Active; 'I' for Inactive)
REMARK    1  A    between atoms: C_1  and  C_2
REMARK    2  A    between atoms: C_8  and  C_10
REMARK    3  A    between atoms: C_14  and  C_15
REMARK    4  A    between atoms: C_22  and  C_23
REMARK                            x       y       z     vdW  Elec       q    Type
REMARK                         _______ _______ _______ _____ _____    ______ ____
ROOT
ATOM      1  C   UNL     1       0.266  11.812  18.632  0.00  0.00    +0.000 A 
ATOM      2  N   UNL     1      -1.064  11.738  18.437  0.00  0.00    +0.000 NA
ATOM      3  C   UNL     1      -1.761  11.418  19.523  0.00  0.00    +0.000 A 
ATOM      4  N   UNL     1      -1.236  10.889  20.626  0.00  0.00    +0.000 NA
ATOM      5  C   UNL     1      -0.020  10.371  20.482  0.00  0.00    +0.000 A 
ATOM      6  C   UNL     1       0.242   9.305  21.344  0.00  0.00    +0.000 A 
ATOM      7  C   UNL     1       1.127   8.242  21.059  0.00  0.00    +0.000 A 
ATOM      8  C   UNL     1       1.818   8.182  19.853  0.00  0.00    +0.000 A 
ATOM      9  C   UNL     1       1.717   9.452  19.087  0.00  0.00    +0.000 A 
ATOM     10  C   UNL     1       0.815  10.671  19.406  0.00  0.00    +0.000 A 
ENDROOT
BRANCH   8  11
ATOM     11  C   UNL     1       2.392   6.781  19.391  0.00  0.00    +0.000 A 
ATOM     12  C   UNL     1       3.300   6.684  18.346  0.00  0.00    +0.000 A 
ATOM     13  N   UNL     1       3.650   5.540  17.657  0.00  0.00    +0.000 NA
ATOM     14  C   UNL     1       3.219   4.338  18.074  0.00  0.00    +0.000 A 
ATOM     15  C   UNL     1       3.551   3.188  17.304  0.00  0.00    +0.000 A 
ATOM     16  C   UNL     1       3.327   1.890  17.760  0.00  0.00    +0.000 A 
ATOM     17  C   UNL     1       2.728   1.715  19.006  0.00  0.00    +0.000 A 
ATOM     18  C   UNL     1       2.280   2.842  19.718  0.00  0.00    +0.000 A 
ATOM     19  C   UNL     1       2.479   4.194  19.233  0.00  0.00    +0.000 A 
ATOM     20  C   UNL     1       1.998   5.465  19.837  0.00  0.00    +0.000 A 
ENDBRANCH   8  11
BRANCH   1  25
ATOM     21  C   UNL     1       0.030  15.895  18.667  0.00  0.00    +0.000 A 
ATOM     22  C   UNL     1       1.368  16.249  18.449  0.00  0.00    +0.000 A 
ATOM     23  C   UNL     1       2.299  15.244  18.340  0.00  0.00    +0.000 A 
ATOM     24  C   UNL     1       1.883  13.897  18.450  0.00  0.00    +0.000 A 
ATOM     25  C   UNL     1       0.522  13.428  18.661  0.00  0.00    +0.000 A 
ATOM     26  C   UNL     1      -0.387  14.502  18.789  0.00  0.00    +0.000 A 
BRANCH  21  34
ATOM     27  C   UNL     1      -4.563  16.648  23.869  0.00  0.00    +0.000 C 
ATOM     28  C   UNL     1      -4.683  17.589  22.695  0.00  0.00    +0.000 C 
ATOM     29  O   UNL     1      -5.356  18.615  22.792  0.00  0.00    +0.000 OA
ATOM     30  N   UNL     1      -3.972  17.264  21.556  0.00  0.00    +0.000 N 
ATOM     31  C   UNL     1      -3.928  18.190  20.416  0.00  0.00    +0.000 C 
ATOM     32  C   UNL     1      -2.472  18.510  20.021  0.00  0.00    +0.000 C 
ATOM     33  N   UNL     1      -1.638  17.295  19.902  0.00  0.00    +0.000 N 
ATOM     34  C   UNL     1      -0.883  17.084  18.751  0.00  0.00    +0.000 C 
ATOM     35  O   UNL     1      -1.014  17.795  17.754  0.00  0.00    +0.000 OA
ATOM     36  C   UNL     1      -1.742  16.362  21.022  0.00  0.00    +0.000 C 
ATOM     37  C   UNL     1      -3.199  16.041  21.358  0.00  0.00    +0.000 C 
ENDBRANCH  21  34
ENDBRANCH   1  25
TORSDOF 3
ENDMDL
MODEL 7
REMARK VINA RESULT:      -8.3      1.573      1.748
REMARK  Name = 
REMARK  4 active torsions:
REMARK  status: ('A' for Active; 'I' for Inactive)
REMARK    1  A    between atoms: C_1  and  C_2
REMARK    2  A    between atoms: C_8  and  C_10
REMARK    3  A    between atoms: C_14  and  C_15
REMARK    4  A    between atoms: C_22  and  C_23
REMARK                            x       y       z     vdW  Elec       q    Type
REMARK                         _______ _______ _______ _____ _____    ______ ____
ROOT
ATOM      1  C   UNL     1       0.214  12.263  19.110  0.00  0.00    +0.000 A 
ATOM      2  N   UNL     1      -1.131  12.312  19.056  0.00  0.00    +0.000 NA
ATOM      3  C   UNL     1      -1.736  12.074  20.216  0.00  0.00    +0.000 A 
ATOM      4  N   UNL     1      -1.148  11.513  21.270  0.00  0.00    +0.000 NA
ATOM      5  C   UNL     1      -0.007  10.880  21.013  0.00  0.00    +0.000 A 
ATOM      6  C   UNL     1       0.246   9.807  21.868  0.00  0.00    +0.000 A 
ATOM      7  C   UNL     1       0.992   8.660  21.517  0.00  0.00    +0.000 A 
ATOM      8  C   UNL     1       1.543   8.519  20.247  0.00  0.00    +0.000 A 
ATOM      9  C   UNL     1       1.480   9.782  19.466  0.00  0.00    +0.000 A 
ATOM     10  C   UNL     1       0.733  11.085  19.849  0.00  0.00    +0.000 A 
ENDROOT
BRANCH   8  11
ATOM     11  C   UNL     1       1.932   7.063  19.761  0.00  0.00    +0.000 A 
ATOM     12  C   UNL     1       2.644   6.863  18.587  0.00  0.00    +0.000 A 
ATOM     13  N   UNL     1       2.793   5.673  17.902  0.00  0.00    +0.000 NA
ATOM     14  C   UNL     1       2.354   4.522  18.438  0.00  0.00    +0.000 A 
ATOM     15  C   UNL     1       2.472   3.325  17.676  0.00  0.00    +0.000 A 
ATOM     16  C   UNL     1       2.236   2.064  18.220  0.00  0.00    +0.000 A 
ATOM     17  C   UNL     1       1.842   1.977  19.554  0.00  0.00    +0.000 A 
ATOM     18  C   UNL     1       1.599   3.157  20.278  0.00  0.00    +0.000 A 
ATOM     19  C   UNL     1       1.809   4.473  19.707  0.00  0.00    +0.000 A 
ATOM     20  C   UNL     1       1.526   5.797  20.324  0.00  0.00    +0.000 A 
ENDBRANCH   8  11
BRANCH   1  25
ATOM     21  C   UNL     1       1.942  15.953  19.453  0.00  0.00    +0.000 A 
ATOM     22  C   UNL     1       0.886  16.788  19.063  0.00  0.00    +0.000 A 
ATOM     23  C   UNL     1      -0.296  16.205  18.671  0.00  0.00    +0.000 A 
ATOM     24  C   UNL     1      -0.410  14.795  18.674  0.00  0.00    +0.000 A 
ATOM     25  C   UNL     1       0.620  13.847  19.074  0.00  0.00    +0.000 A 
ATOM     26  C   UNL     1       1.817  14.499  19.443  0.00  0.00    +0.000 A 
BRANCH  21  34
ATOM     27  C   UNL     1       7.140  12.922  22.990  0.00  0.00    +0.000 C 
ATOM     28  C   UNL     1       7.166  14.426  22.871  0.00  0.00    +0.000 C 
ATOM     29  O   UNL     1       8.198  15.047  23.121  0.00  0.00    +0.000 OA
ATOM     30  N   UNL     1       6.011  15.040  22.427  0.00  0.00    +0.000 N 
ATOM     31  C   UNL     1       5.991  16.484  22.157  0.00  0.00    +0.000 C 
ATOM     32  C   UNL     1       5.498  16.771  20.725  0.00  0.00    +0.000 C 
ATOM     33  N   UNL     1       4.260  16.032  20.394  0.00  0.00    +0.000 N 
ATOM     34  C   UNL     1       3.166  16.716  19.870  0.00  0.00    +0.000 C 
ATOM     35  O   UNL     1       3.134  17.946  19.827  0.00  0.00    +0.000 OA
ATOM     36  C   UNL     1       4.283  14.609  20.723  0.00  0.00    +0.000 C 
ATOM     37  C   UNL     1       4.740  14.368  22.163  0.00  0.00    +0.000 C 
ENDBRANCH  21  34
ENDBRANCH   1  25
TORSDOF 3
ENDMDL
MODEL 8
REMARK VINA RESULT:      -8.3      3.894      6.681
REMARK  Name = 
REMARK  4 active torsions:
REMARK  status: ('A' for Active; 'I' for Inactive)
REMARK    1  A    between atoms: C_1  and  C_2
REMARK    2  A    between atoms: C_8  and  C_10
REMARK    3  A    between atoms: C_14  and  C_15
REMARK    4  A    between atoms: C_22  and  C_23
REMARK                            x       y       z     vdW  Elec       q    Type
REMARK                         _______ _______ _______ _____ _____    ______ ____
ROOT
ATOM      1  C   UNL     1       1.829   6.974  19.314  0.00  0.00    +0.000 A 
ATOM      2  N   UNL     1       0.972   5.988  19.638  0.00  0.00    +0.000 NA
ATOM      3  C   UNL     1       1.457   5.101  20.502  0.00  0.00    +0.000 A 
ATOM      4  N   UNL     1       2.748   4.961  20.792  0.00  0.00    +0.000 NA
ATOM      5  C   UNL     1       3.587   5.519  19.924  0.00  0.00    +0.000 A 
ATOM      6  C   UNL     1       4.816   4.865  19.829  0.00  0.00    +0.000 A 
ATOM      7  C   UNL     1       5.624   4.838  18.671  0.00  0.00    +0.000 A 
ATOM      8  C   UNL     1       5.231   5.484  17.502  0.00  0.00    +0.000 A 
ATOM      9  C   UNL     1       4.064   6.378  17.723  0.00  0.00    +0.000 A 
ATOM     10  C   UNL     1       3.197   6.490  19.002  0.00  0.00    +0.000 A 
ENDROOT
BRANCH   8  11
ATOM     11  C   UNL     1       5.899   5.033  16.140  0.00  0.00    +0.000 A 
ATOM     12  C   UNL     1       7.143   5.511  15.756  0.00  0.00    +0.000 A 
ATOM     13  N   UNL     1       7.703   5.442  14.495  0.00  0.00    +0.000 NA
ATOM     14  C   UNL     1       7.107   4.728  13.526  0.00  0.00    +0.000 A 
ATOM     15  C   UNL     1       7.683   4.729  12.224  0.00  0.00    +0.000 A 
ATOM     16  C   UNL     1       7.258   3.865  11.216  0.00  0.00    +0.000 A 
ATOM     17  C   UNL     1       6.210   2.988  11.488  0.00  0.00    +0.000 A 
ATOM     18  C   UNL     1       5.550   3.067  12.727  0.00  0.00    +0.000 A 
ATOM     19  C   UNL     1       5.965   3.988  13.768  0.00  0.00    +0.000 A 
ATOM     20  C   UNL     1       5.322   4.232  15.086  0.00  0.00    +0.000 A 
ENDBRANCH   8  11
BRANCH   1  25
ATOM     21  C   UNL     1       0.274  10.506  20.668  0.00  0.00    +0.000 A 
ATOM     22  C   UNL     1       0.508  10.399  22.046  0.00  0.00    +0.000 A 
ATOM     23  C   UNL     1       1.090   9.248  22.520  0.00  0.00    +0.000 A 
ATOM     24  C   UNL     1       1.431   8.217  21.614  0.00  0.00    +0.000 A 
ATOM     25  C   UNL     1       1.242   8.238  20.171  0.00  0.00    +0.000 A 
ATOM     26  C   UNL     1       0.620   9.432  19.743  0.00  0.00    +0.000 A 
BRANCH  21  34
ATOM     27  C   UNL     1       3.993  15.636  17.740  0.00  0.00    +0.000 C 
ATOM     28  C   UNL     1       2.596  15.969  18.203  0.00  0.00    +0.000 C 
ATOM     29  O   UNL     1       2.044  16.997  17.812  0.00  0.00    +0.000 OA
ATOM     30  N   UNL     1       1.973  15.051  19.027  0.00  0.00    +0.000 N 
ATOM     31  C   UNL     1       0.567  15.232  19.416  0.00  0.00    +0.000 C 
ATOM     32  C   UNL     1      -0.266  13.982  19.069  0.00  0.00    +0.000 C 
ATOM     33  N   UNL     1       0.376  12.730  19.523  0.00  0.00    +0.000 N 
ATOM     34  C   UNL     1      -0.351  11.816  20.281  0.00  0.00    +0.000 C 
ATOM     35  O   UNL     1      -1.464  12.090  20.731  0.00  0.00    +0.000 OA
ATOM     36  C   UNL     1       1.788  12.598  19.173  0.00  0.00    +0.000 C 
ATOM     37  C   UNL     1       2.588  13.841  19.567  0.00  0.00    +0.000 C 
ENDBRANCH  21  34
ENDBRANCH   1  25
TORSDOF 3
ENDMDL
MODEL 9
REMARK VINA RESULT:      -8.3      5.221      7.937
REMARK  Name = 
REMARK  4 active torsions:
REMARK  status: ('A' for Active; 'I' for Inactive)
REMARK    1  A    between atoms: C_1  and  C_2
REMARK    2  A    between atoms: C_8  and  C_10
REMARK    3  A    between atoms: C_14  and  C_15
REMARK    4  A    between atoms: C_22  and  C_23
REMARK                            x       y       z     vdW  Elec       q    Type
REMARK                         _______ _______ _______ _____ _____    ______ ____
ROOT
ATOM      1  C   UNL     1      -1.831  11.031  19.343  0.00  0.00    +0.000 A 
ATOM      2  N   UNL     1      -1.674  11.616  20.545  0.00  0.00    +0.000 NA
ATOM      3  C   UNL     1      -0.786  12.606  20.562  0.00  0.00    +0.000 A 
ATOM      4  N   UNL     1       0.122  12.819  19.612  0.00  0.00    +0.000 NA
ATOM      5  C   UNL     1       0.336  11.793  18.793  0.00  0.00    +0.000 A 
ATOM      6  C   UNL     1       1.634  11.743  18.283  0.00  0.00    +0.000 A 
ATOM      7  C   UNL     1       2.303  10.557  17.907  0.00  0.00    +0.000 A 
ATOM      8  C   UNL     1       1.690   9.314  18.027  0.00  0.00    +0.000 A 
ATOM      9  C   UNL     1       0.237   9.432  18.317  0.00  0.00    +0.000 A 
ATOM     10  C   UNL     1      -0.549  10.723  18.663  0.00  0.00    +0.000 A 
ENDROOT
BRANCH   8  11
ATOM     11  C   UNL     1       2.612   8.028  18.060  0.00  0.00    +0.000 A 
ATOM     12  C   UNL     1       2.500   7.087  19.074  0.00  0.00    +0.000 A 
ATOM     13  N   UNL     1       3.411   6.097  19.389  0.00  0.00    +0.000 NA
ATOM     14  C   UNL     1       4.466   5.867  18.590  0.00  0.00    +0.000 A 
ATOM     15  C   UNL     1       5.414   4.879  18.979  0.00  0.00    +0.000 A 
ATOM     16  C   UNL     1       6.420   4.429  18.126  0.00  0.00    +0.000 A 
ATOM     17  C   UNL     1       6.518   4.991  16.855  0.00  0.00    +0.000 A 
ATOM     18  C   UNL     1       5.668   6.056  16.507  0.00  0.00    +0.000 A 
ATOM     19  C   UNL     1       4.642   6.553  17.403  0.00  0.00    +0.000 A 
ATOM     20  C   UNL     1       3.729   7.709  17.201  0.00  0.00    +0.000 A 
ENDBRANCH   8  11
BRANCH   1  25
ATOM     21  C   UNL     1      -5.564  12.654  18.948  0.00  0.00    +0.000 A 
ATOM     22  C   UNL     1      -5.811  12.447  17.584  0.00  0.00    +0.000 A 
ATOM     23  C   UNL     1      -4.825  11.861  16.826  0.00  0.00    +0.000 A 
ATOM     24  C   UNL     1      -3.605  11.490  17.437  0.00  0.00    +0.000 A 
ATOM     25  C   UNL     1      -3.260  11.650  18.842  0.00  0.00    +0.000 A 
ATOM     26  C   UNL     1      -4.297  12.276  19.567  0.00  0.00    +0.000 A 
BRANCH  21  34
ATOM     27  C   UNL     1      -4.806  18.399  22.839  0.00  0.00    +0.000 C 
ATOM     28  C   UNL     1      -6.120  17.665  22.935  0.00  0.00    +0.000 C 
ATOM     29  O   UNL     1      -7.100  18.215  23.436  0.00  0.00    +0.000 OA
ATOM     30  N   UNL     1      -6.169  16.393  22.397  0.00  0.00    +0.000 N 
ATOM     31  C   UNL     1      -7.441  15.660  22.329  0.00  0.00    +0.000 C 
ATOM     32  C   UNL     1      -7.734  15.195  20.889  0.00  0.00    +0.000 C 
ATOM     33  N   UNL     1      -6.570  14.534  20.260  0.00  0.00    +0.000 N 
ATOM     34  C   UNL     1      -6.724  13.286  19.663  0.00  0.00    +0.000 C 
ATOM     35  O   UNL     1      -7.762  12.634  19.785  0.00  0.00    +0.000 OA
ATOM     36  C   UNL     1      -5.306  15.255  20.388  0.00  0.00    +0.000 C 
ATOM     37  C   UNL     1      -5.033  15.665  21.836  0.00  0.00    +0.000 C 
ENDBRANCH  21  34
ENDBRANCH   1  25
TORSDOF 3
ENDMDL
