MODEL 1
REMARK VINA RESULT:      -6.8      0.000      0.000
REMARK  Name = 
REMARK  15 active torsions:
REMARK  status: ('A' for Active; 'I' for Inactive)
REMARK    1  A    between atoms: C_1  and  O_2
REMARK    2  A    between atoms: O_2  and  C_3
REMARK    3  A    between atoms: C_6  and  C_7
REMARK    4  A    between atoms: C_7  and  N_8
REMARK    5  A    between atoms: N_8  and  C_9
REMARK    6  A    between atoms: C_10  and  C_12
REMARK    7  A    between atoms: C_12  and  C_13
REMARK    8  A    between atoms: C_13  and  C_14
REMARK    9  A    between atoms: C_14  and  C_16
REMARK   10  A    between atoms: C_18  and  C_19
REMARK   11  A    between atoms: C_21  and  C_22
REMARK   12  A    between atoms: C_23  and  O_24
REMARK   13  A    between atoms: O_24  and  C_25
REMARK   14  A    between atoms: C_26  and  O_27
REMARK   15  A    between atoms: O_27  and  C_28
REMARK                            x       y       z     vdW  Elec       q    Type
REMARK                         _______ _______ _______ _____ _____    ______ ____
ROOT
ATOM      1  N   UNL     1       1.623   9.078  19.139  0.00  0.00    +0.000 N 
ATOM      2  C   UNL     1       1.015   8.831  20.440  0.00  0.00    +0.000 C 
ATOM      3  C   UNL     1       2.252   8.075  18.394  0.00  0.00    +0.000 C 
ATOM      4  O   UNL     1       2.702   8.256  17.262  0.00  0.00    +0.000 OA
ENDROOT
BRANCH   1   5
ATOM      5  C   UNL     1       1.370  10.399  18.534  0.00  0.00    +0.000 C 
BRANCH   5   9
ATOM      6  C   UNL     1      -2.888  11.282  18.455  0.00  0.00    +0.000 A 
ATOM      7  C   UNL     1      -2.339  10.305  17.622  0.00  0.00    +0.000 A 
ATOM      8  C   UNL     1      -0.972  10.041  17.641  0.00  0.00    +0.000 A 
ATOM      9  C   UNL     1      -0.105  10.786  18.454  0.00  0.00    +0.000 A 
ATOM     10  C   UNL     1      -0.648  11.820  19.262  0.00  0.00    +0.000 A 
ATOM     11  C   UNL     1      -2.045  12.085  19.250  0.00  0.00    +0.000 A 
BRANCH   6  13
ATOM     12  C   UNL     1      -4.908  11.583  17.254  0.00  0.00    +0.000 C 
ATOM     13  O   UNL     1      -4.245  11.479  18.513  0.00  0.00    +0.000 OA
ENDBRANCH   6  13
BRANCH  10  14
ATOM     14  O   UNL     1       0.290  12.460  20.046  0.00  0.00    +0.000 OA
ATOM     15  C   UNL     1       0.738  13.754  19.661  0.00  0.00    +0.000 C 
ENDBRANCH  10  14
BRANCH  11  16
ATOM     16  O   UNL     1      -2.513  13.041  20.118  0.00  0.00    +0.000 OA
ATOM     17  C   UNL     1      -2.899  12.650  21.430  0.00  0.00    +0.000 C 
ENDBRANCH  11  16
ENDBRANCH   5   9
ENDBRANCH   1   5
BRANCH   3  18
ATOM     18  C   UNL     1       2.373   6.728  19.083  0.00  0.00    +0.000 C 
BRANCH  18  19
ATOM     19  C   UNL     1       2.342   5.515  18.154  0.00  0.00    +0.000 C 
BRANCH  19  20
ATOM     20  C   UNL     1       3.516   4.593  18.480  0.00  0.00    +0.000 C 
ATOM     21  O   UNL     1       3.485   3.883  19.488  0.00  0.00    +0.000 OA
BRANCH  20  22
ATOM     22  C   UNL     1       4.674   4.568  17.570  0.00  0.00    +0.000 A 
ATOM     23  C   UNL     1       4.655   4.179  16.185  0.00  0.00    +0.000 A 
ATOM     24  C   UNL     1       5.898   4.227  15.590  0.00  0.00    +0.000 A 
ATOM     25  C   UNL     1       6.272   3.863  14.195  0.00  0.00    +0.000 C 
ATOM     26  S   UNL     1       7.090   4.771  16.677  0.00  0.00    +0.000 S 
ATOM     27  C   UNL     1       5.963   4.923  17.956  0.00  0.00    +0.000 A 
ATOM     28  C   UNL     1       6.451   5.393  19.292  0.00  0.00    +0.000 C 
ENDBRANCH  20  22
ENDBRANCH  19  20
ENDBRANCH  18  19
ENDBRANCH   3  18
TORSDOF 9
ENDMDL
MODEL 2
REMARK VINA RESULT:      -6.7      1.113      1.327
REMARK  Name = 
REMARK  15 active torsions:
REMARK  status: ('A' for Active; 'I' for Inactive)
REMARK    1  A    between atoms: C_1  and  O_2
REMARK    2  A    between atoms: O_2  and  C_3
REMARK    3  A    between atoms: C_6  and  C_7
REMARK    4  A    between atoms: C_7  and  N_8
REMARK    5  A    between atoms: N_8  and  C_9
REMARK    6  A    between atoms: C_10  and  C_12
REMARK    7  A    between atoms: C_12  and  C_13
REMARK    8  A    between atoms: C_13  and  C_14
REMARK    9  A    between atoms: C_14  and  C_16
REMARK   10  A    between atoms: C_18  and  C_19
REMARK   11  A    between atoms: C_21  and  C_22
REMARK   12  A    between atoms: C_23  and  O_24
REMARK   13  A    between atoms: O_24  and  C_25
REMARK   14  A    between atoms: C_26  and  O_27
REMARK   15  A    between atoms: O_27  and  C_28
REMARK                            x       y       z     vdW  Elec       q    Type
REMARK                         _______ _______ _______ _____ _____    ______ ____
ROOT
ATOM      1  N   UNL     1       1.532   9.025  19.135  0.00  0.00    +0.000 N 
ATOM      2  C   UNL     1       1.970   9.635  17.887  0.00  0.00    +0.000 C 
ATOM      3  C   UNL     1       1.979   7.771  19.564  0.00  0.00    +0.000 C 
ATOM      4  O   UNL     1       1.673   7.280  20.652  0.00  0.00    +0.000 OA
ENDROOT
BRANCH   1   5
ATOM      5  C   UNL     1       0.745   9.880  20.044  0.00  0.00    +0.000 C 
BRANCH   5   9
ATOM      6  C   UNL     1      -2.961  11.408  18.360  0.00  0.00    +0.000 A 
ATOM      7  C   UNL     1      -2.287  10.339  17.766  0.00  0.00    +0.000 A 
ATOM      8  C   UNL     1      -1.092   9.867  18.302  0.00  0.00    +0.000 A 
ATOM      9  C   UNL     1      -0.506  10.488  19.416  0.00  0.00    +0.000 A 
ATOM     10  C   UNL     1      -1.156  11.612  19.990  0.00  0.00    +0.000 A 
ATOM     11  C   UNL     1      -2.382  12.089  19.449  0.00  0.00    +0.000 A 
BRANCH   6  13
ATOM     12  C   UNL     1      -5.264  10.906  18.121  0.00  0.00    +0.000 C 
ATOM     13  O   UNL     1      -4.188  11.814  17.896  0.00  0.00    +0.000 OA
ENDBRANCH   6  13
BRANCH  10  14
ATOM     14  O   UNL     1      -0.511  12.117  21.100  0.00  0.00    +0.000 OA
ATOM     15  C   UNL     1      -0.877  11.633  22.386  0.00  0.00    +0.000 C 
ENDBRANCH  10  14
BRANCH  11  16
ATOM     16  O   UNL     1      -3.000  13.126  20.105  0.00  0.00    +0.000 OA
ATOM     17  C   UNL     1      -3.995  12.830  21.077  0.00  0.00    +0.000 C 
ENDBRANCH  11  16
ENDBRANCH   5   9
ENDBRANCH   1   5
BRANCH   3  18
ATOM     18  C   UNL     1       2.861   7.021  18.582  0.00  0.00    +0.000 C 
BRANCH  18  19
ATOM     19  C   UNL     1       2.350   5.641  18.170  0.00  0.00    +0.000 C 
BRANCH  19  20
ATOM     20  C   UNL     1       3.440   4.600  18.414  0.00  0.00    +0.000 C 
ATOM     21  O   UNL     1       3.334   3.797  19.345  0.00  0.00    +0.000 OA
BRANCH  20  22
ATOM     22  C   UNL     1       4.610   4.573  17.519  0.00  0.00    +0.000 A 
ATOM     23  C   UNL     1       4.603   4.213  16.127  0.00  0.00    +0.000 A 
ATOM     24  C   UNL     1       5.855   4.251  15.550  0.00  0.00    +0.000 A 
ATOM     25  C   UNL     1       6.242   3.909  14.152  0.00  0.00    +0.000 C 
ATOM     26  S   UNL     1       7.042   4.752  16.663  0.00  0.00    +0.000 S 
ATOM     27  C   UNL     1       5.900   4.897  17.929  0.00  0.00    +0.000 A 
ATOM     28  C   UNL     1       6.378   5.331  19.281  0.00  0.00    +0.000 C 
ENDBRANCH  20  22
ENDBRANCH  19  20
ENDBRANCH  18  19
ENDBRANCH   3  18
TORSDOF 9
ENDMDL
MODEL 3
REMARK VINA RESULT:      -6.5      0.974      1.038
REMARK  Name = 
REMARK  15 active torsions:
REMARK  status: ('A' for Active; 'I' for Inactive)
REMARK    1  A    between atoms: C_1  and  O_2
REMARK    2  A    between atoms: O_2  and  C_3
REMARK    3  A    between atoms: C_6  and  C_7
REMARK    4  A    between atoms: C_7  and  N_8
REMARK    5  A    between atoms: N_8  and  C_9
REMARK    6  A    between atoms: C_10  and  C_12
REMARK    7  A    between atoms: C_12  and  C_13
REMARK    8  A    between atoms: C_13  and  C_14
REMARK    9  A    between atoms: C_14  and  C_16
REMARK   10  A    between atoms: C_18  and  C_19
REMARK   11  A    between atoms: C_21  and  C_22
REMARK   12  A    between atoms: C_23  and  O_24
REMARK   13  A    between atoms: O_24  and  C_25
REMARK   14  A    between atoms: C_26  and  O_27
REMARK   15  A    between atoms: O_27  and  C_28
REMARK                            x       y       z     vdW  Elec       q    Type
REMARK                         _______ _______ _______ _____ _____    ______ ____
ROOT
ATOM      1  N   UNL     1       2.140   8.355  18.966  0.00  0.00    +0.000 N 
ATOM      2  C   UNL     1       1.428   8.146  20.220  0.00  0.00    +0.000 C 
ATOM      3  C   UNL     1       2.743   7.312  18.255  0.00  0.00    +0.000 C 
ATOM      4  O   UNL     1       3.281   7.466  17.158  0.00  0.00    +0.000 OA
ENDROOT
BRANCH   1   5
ATOM      5  C   UNL     1       2.026   9.694  18.360  0.00  0.00    +0.000 C 
BRANCH   5   9
ATOM      6  C   UNL     1      -2.053  11.179  18.628  0.00  0.00    +0.000 A 
ATOM      7  C   UNL     1      -1.714  10.161  17.734  0.00  0.00    +0.000 A 
ATOM      8  C   UNL     1      -0.402   9.704  17.642  0.00  0.00    +0.000 A 
ATOM      9  C   UNL     1       0.621  10.290  18.402  0.00  0.00    +0.000 A 
ATOM     10  C   UNL     1       0.294  11.365  19.271  0.00  0.00    +0.000 A 
ATOM     11  C   UNL     1      -1.047  11.827  19.372  0.00  0.00    +0.000 A 
BRANCH   6  13
ATOM     12  C   UNL     1      -4.296  10.981  17.891  0.00  0.00    +0.000 C 
ATOM     13  O   UNL     1      -3.360  11.566  18.794  0.00  0.00    +0.000 OA
ENDBRANCH   6  13
BRANCH  10  14
ATOM     14  O   UNL     1       1.370  11.839  19.994  0.00  0.00    +0.000 OA
ATOM     15  C   UNL     1       1.969  13.068  19.605  0.00  0.00    +0.000 C 
ENDBRANCH  10  14
BRANCH  11  16
ATOM     16  O   UNL     1      -1.307  12.812  20.294  0.00  0.00    +0.000 OA
ATOM     17  C   UNL     1      -1.596  12.439  21.636  0.00  0.00    +0.000 C 
ENDBRANCH  11  16
ENDBRANCH   5   9
ENDBRANCH   1   5
BRANCH   3  18
ATOM     18  C   UNL     1       2.718   5.956  18.937  0.00  0.00    +0.000 C 
BRANCH  18  19
ATOM     19  C   UNL     1       4.024   5.544  19.613  0.00  0.00    +0.000 C 
BRANCH  19  20
ATOM     20  C   UNL     1       4.576   4.291  18.935  0.00  0.00    +0.000 C 
ATOM     21  O   UNL     1       4.418   3.184  19.454  0.00  0.00    +0.000 OA
BRANCH  20  22
ATOM     22  C   UNL     1       5.293   4.432  17.655  0.00  0.00    +0.000 A 
ATOM     23  C   UNL     1       4.778   4.097  16.355  0.00  0.00    +0.000 A 
ATOM     24  C   UNL     1       5.686   4.309  15.339  0.00  0.00    +0.000 A 
ATOM     25  C   UNL     1       5.526   4.044  13.883  0.00  0.00    +0.000 C 
ATOM     26  S   UNL     1       7.150   4.943  15.933  0.00  0.00    +0.000 S 
ATOM     27  C   UNL     1       6.593   4.917  17.551  0.00  0.00    +0.000 A 
ATOM     28  C   UNL     1       7.513   5.388  18.636  0.00  0.00    +0.000 C 
ENDBRANCH  20  22
ENDBRANCH  19  20
ENDBRANCH  18  19
ENDBRANCH   3  18
TORSDOF 9
ENDMDL
MODEL 4
REMARK VINA RESULT:      -6.5      2.888      4.713
REMARK  Name = 
REMARK  15 active torsions:
REMARK  status: ('A' for Active; 'I' for Inactive)
REMARK    1  A    between atoms: C_1  and  O_2
REMARK    2  A    between atoms: O_2  and  C_3
REMARK    3  A    between atoms: C_6  and  C_7
REMARK    4  A    between atoms: C_7  and  N_8
REMARK    5  A    between atoms: N_8  and  C_9
REMARK    6  A    between atoms: C_10  and  C_12
REMARK    7  A    between atoms: C_12  and  C_13
REMARK    8  A    between atoms: C_13  and  C_14
REMARK    9  A    between atoms: C_14  and  C_16
REMARK   10  A    between atoms: C_18  and  C_19
REMARK   11  A    between atoms: C_21  and  C_22
REMARK   12  A    between atoms: C_23  and  O_24
REMARK   13  A    between atoms: O_24  and  C_25
REMARK   14  A    between atoms: C_26  and  O_27
REMARK   15  A    between atoms: O_27  and  C_28
REMARK                            x       y       z     vdW  Elec       q    Type
REMARK                         _______ _______ _______ _____ _____    ______ ____
ROOT
ATOM      1  N   UNL     1       1.232   9.467  19.370  0.00  0.00    +0.000 N 
ATOM      2  C   UNL     1       0.946   8.910  20.685  0.00  0.00    +0.000 C 
ATOM      3  C   UNL     1       1.876   8.741  18.362  0.00  0.00    +0.000 C 
ATOM      4  O   UNL     1       2.056   9.177  17.224  0.00  0.00    +0.000 OA
ENDROOT
BRANCH   1   5
ATOM      5  C   UNL     1       0.628  10.778  19.065  0.00  0.00    +0.000 C 
BRANCH   5   9
ATOM      6  C   UNL     1       3.051  14.335  19.682  0.00  0.00    +0.000 A 
ATOM      7  C   UNL     1       3.055  13.664  18.457  0.00  0.00    +0.000 A 
ATOM      8  C   UNL     1       2.289  12.516  18.274  0.00  0.00    +0.000 A 
ATOM      9  C   UNL     1       1.541  11.972  19.328  0.00  0.00    +0.000 A 
ATOM     10  C   UNL     1       1.578  12.616  20.593  0.00  0.00    +0.000 A 
ATOM     11  C   UNL     1       2.353  13.794  20.780  0.00  0.00    +0.000 A 
BRANCH   6  13
ATOM     12  C   UNL     1       3.190  16.634  19.128  0.00  0.00    +0.000 C 
ATOM     13  O   UNL     1       3.725  15.520  19.839  0.00  0.00    +0.000 OA
ENDBRANCH   6  13
BRANCH  10  14
ATOM     14  O   UNL     1       0.777  12.016  21.543  0.00  0.00    +0.000 OA
ATOM     15  C   UNL     1      -0.548  12.499  21.728  0.00  0.00    +0.000 C 
ENDBRANCH  10  14
BRANCH  11  16
ATOM     16  O   UNL     1       2.275  14.412  22.004  0.00  0.00    +0.000 OA
ATOM     17  C   UNL     1       1.373  15.500  22.170  0.00  0.00    +0.000 C 
ENDBRANCH  11  16
ENDBRANCH   5   9
ENDBRANCH   1   5
BRANCH   3  18
ATOM     18  C   UNL     1       2.375   7.365  18.766  0.00  0.00    +0.000 C 
BRANCH  18  19
ATOM     19  C   UNL     1       3.560   6.839  17.958  0.00  0.00    +0.000 C 
BRANCH  19  20
ATOM     20  C   UNL     1       4.170   5.634  18.673  0.00  0.00    +0.000 C 
ATOM     21  O   UNL     1       5.385   5.584  18.875  0.00  0.00    +0.000 OA
BRANCH  20  22
ATOM     22  C   UNL     1       3.282   4.544  19.114  0.00  0.00    +0.000 A 
ATOM     23  C   UNL     1       2.821   4.319  20.457  0.00  0.00    +0.000 A 
ATOM     24  C   UNL     1       2.021   3.202  20.577  0.00  0.00    +0.000 A 
ATOM     25  C   UNL     1       1.398   2.637  21.806  0.00  0.00    +0.000 C 
ATOM     26  S   UNL     1       1.789   2.436  19.075  0.00  0.00    +0.000 S 
ATOM     27  C   UNL     1       2.773   3.572  18.258  0.00  0.00    +0.000 A 
ATOM     28  C   UNL     1       2.981   3.413  16.782  0.00  0.00    +0.000 C 
ENDBRANCH  20  22
ENDBRANCH  19  20
ENDBRANCH  18  19
ENDBRANCH   3  18
TORSDOF 9
ENDMDL
MODEL 5
REMARK VINA RESULT:      -6.4      2.124      3.155
REMARK  Name = 
REMARK  15 active torsions:
REMARK  status: ('A' for Active; 'I' for Inactive)
REMARK    1  A    between atoms: C_1  and  O_2
REMARK    2  A    between atoms: O_2  and  C_3
REMARK    3  A    between atoms: C_6  and  C_7
REMARK    4  A    between atoms: C_7  and  N_8
REMARK    5  A    between atoms: N_8  and  C_9
REMARK    6  A    between atoms: C_10  and  C_12
REMARK    7  A    between atoms: C_12  and  C_13
REMARK    8  A    between atoms: C_13  and  C_14
REMARK    9  A    between atoms: C_14  and  C_16
REMARK   10  A    between atoms: C_18  and  C_19
REMARK   11  A    between atoms: C_21  and  C_22
REMARK   12  A    between atoms: C_23  and  O_24
REMARK   13  A    between atoms: O_24  and  C_25
REMARK   14  A    between atoms: C_26  and  O_27
REMARK   15  A    between atoms: O_27  and  C_28
REMARK                            x       y       z     vdW  Elec       q    Type
REMARK                         _______ _______ _______ _____ _____    ______ ____
ROOT
ATOM      1  N   UNL     1       1.236   9.708  19.603  0.00  0.00    +0.000 N 
ATOM      2  C   UNL     1       0.728   9.048  20.799  0.00  0.00    +0.000 C 
ATOM      3  C   UNL     1       1.853   9.011  18.558  0.00  0.00    +0.000 C 
ATOM      4  O   UNL     1       2.217   9.548  17.511  0.00  0.00    +0.000 OA
ENDROOT
BRANCH   1   5
ATOM      5  C   UNL     1       0.889  11.132  19.439  0.00  0.00    +0.000 C 
BRANCH   5   9
ATOM      6  C   UNL     1      -3.376  11.627  18.748  0.00  0.00    +0.000 A 
ATOM      7  C   UNL     1      -2.564  10.984  17.811  0.00  0.00    +0.000 A 
ATOM      8  C   UNL     1      -1.197  10.845  18.033  0.00  0.00    +0.000 A 
ATOM      9  C   UNL     1      -0.590  11.396  19.172  0.00  0.00    +0.000 A 
ATOM     10  C   UNL     1      -1.400  12.101  20.101  0.00  0.00    +0.000 A 
ATOM     11  C   UNL     1      -2.799  12.236  19.880  0.00  0.00    +0.000 A 
BRANCH   6  13
ATOM     12  C   UNL     1      -5.199  11.630  17.235  0.00  0.00    +0.000 C 
ATOM     13  O   UNL     1      -4.737  11.680  18.583  0.00  0.00    +0.000 OA
ENDBRANCH   6  13
BRANCH  10  14
ATOM     14  O   UNL     1      -0.706  12.567  21.198  0.00  0.00    +0.000 OA
ATOM     15  C   UNL     1      -0.880  11.911  22.449  0.00  0.00    +0.000 C 
ENDBRANCH  10  14
BRANCH  11  16
ATOM     16  O   UNL     1      -3.535  12.857  20.860  0.00  0.00    +0.000 OA
ATOM     17  C   UNL     1      -3.696  14.269  20.809  0.00  0.00    +0.000 C 
ENDBRANCH  11  16
ENDBRANCH   5   9
ENDBRANCH   1   5
BRANCH   3  18
ATOM     18  C   UNL     1       2.075   7.530  18.802  0.00  0.00    +0.000 C 
BRANCH  18  19
ATOM     19  C   UNL     1       3.158   6.883  17.940  0.00  0.00    +0.000 C 
BRANCH  19  20
ATOM     20  C   UNL     1       3.842   5.769  18.731  0.00  0.00    +0.000 C 
ATOM     21  O   UNL     1       5.048   5.835  18.978  0.00  0.00    +0.000 OA
BRANCH  20  22
ATOM     22  C   UNL     1       3.035   4.625  19.191  0.00  0.00    +0.000 A 
ATOM     23  C   UNL     1       2.586   4.393  20.537  0.00  0.00    +0.000 A 
ATOM     24  C   UNL     1       1.871   3.222  20.676  0.00  0.00    +0.000 A 
ATOM     25  C   UNL     1       1.286   2.636  21.914  0.00  0.00    +0.000 C 
ATOM     26  S   UNL     1       1.703   2.411  19.189  0.00  0.00    +0.000 S 
ATOM     27  C   UNL     1       2.604   3.602  18.352  0.00  0.00    +0.000 A 
ATOM     28  C   UNL     1       2.830   3.430  16.881  0.00  0.00    +0.000 C 
ENDBRANCH  20  22
ENDBRANCH  19  20
ENDBRANCH  18  19
ENDBRANCH   3  18
TORSDOF 9
ENDMDL
MODEL 6
REMARK VINA RESULT:      -6.4      2.086      3.165
REMARK  Name = 
REMARK  15 active torsions:
REMARK  status: ('A' for Active; 'I' for Inactive)
REMARK    1  A    between atoms: C_1  and  O_2
REMARK    2  A    between atoms: O_2  and  C_3
REMARK    3  A    between atoms: C_6  and  C_7
REMARK    4  A    between atoms: C_7  and  N_8
REMARK    5  A    between atoms: N_8  and  C_9
REMARK    6  A    between atoms: C_10  and  C_12
REMARK    7  A    between atoms: C_12  and  C_13
REMARK    8  A    between atoms: C_13  and  C_14
REMARK    9  A    between atoms: C_14  and  C_16
REMARK   10  A    between atoms: C_18  and  C_19
REMARK   11  A    between atoms: C_21  and  C_22
REMARK   12  A    between atoms: C_23  and  O_24
REMARK   13  A    between atoms: O_24  and  C_25
REMARK   14  A    between atoms: C_26  and  O_27
REMARK   15  A    between atoms: O_27  and  C_28
REMARK                            x       y       z     vdW  Elec       q    Type
REMARK                         _______ _______ _______ _____ _____    ______ ____
ROOT
ATOM      1  N   UNL     1       1.317   8.895  19.491  0.00  0.00    +0.000 N 
ATOM      2  C   UNL     1       1.404   8.189  20.762  0.00  0.00    +0.000 C 
ATOM      3  C   UNL     1       2.022   8.495  18.351  0.00  0.00    +0.000 C 
ATOM      4  O   UNL     1       1.897   9.040  17.254  0.00  0.00    +0.000 OA
ENDROOT
BRANCH   1   5
ATOM      5  C   UNL     1       0.285   9.944  19.391  0.00  0.00    +0.000 C 
BRANCH   5   9
ATOM      6  C   UNL     1       1.372  13.937  20.727  0.00  0.00    +0.000 A 
ATOM      7  C   UNL     1       2.050  13.321  19.673  0.00  0.00    +0.000 A 
ATOM      8  C   UNL     1       1.706  12.035  19.263  0.00  0.00    +0.000 A 
ATOM      9  C   UNL     1       0.712  11.306  19.933  0.00  0.00    +0.000 A 
ATOM     10  C   UNL     1       0.058  11.904  21.042  0.00  0.00    +0.000 A 
ATOM     11  C   UNL     1       0.402  13.221  21.457  0.00  0.00    +0.000 A 
BRANCH   6  13
ATOM     12  C   UNL     1       2.218  16.043  20.047  0.00  0.00    +0.000 C 
ATOM     13  O   UNL     1       1.638  15.239  21.072  0.00  0.00    +0.000 OA
ENDBRANCH   6  13
BRANCH  10  14
ATOM     14  O   UNL     1      -0.924  11.112  21.599  0.00  0.00    +0.000 OA
ATOM     15  C   UNL     1      -0.673  10.488  22.853  0.00  0.00    +0.000 C 
ENDBRANCH  10  14
BRANCH  11  16
ATOM     16  O   UNL     1      -0.328  13.770  22.482  0.00  0.00    +0.000 OA
ATOM     17  C   UNL     1      -1.545  14.442  22.178  0.00  0.00    +0.000 C 
ENDBRANCH  11  16
ENDBRANCH   5   9
ENDBRANCH   1   5
BRANCH   3  18
ATOM     18  C   UNL     1       2.989   7.342  18.553  0.00  0.00    +0.000 C 
BRANCH  18  19
ATOM     19  C   UNL     1       2.468   5.972  18.120  0.00  0.00    +0.000 C 
BRANCH  19  20
ATOM     20  C   UNL     1       3.508   4.903  18.450  0.00  0.00    +0.000 C 
ATOM     21  O   UNL     1       3.363   4.182  19.440  0.00  0.00    +0.000 OA
BRANCH  20  22
ATOM     22  C   UNL     1       4.677   4.751  17.566  0.00  0.00    +0.000 A 
ATOM     23  C   UNL     1       4.648   4.351  16.186  0.00  0.00    +0.000 A 
ATOM     24  C   UNL     1       5.902   4.266  15.617  0.00  0.00    +0.000 A 
ATOM     25  C   UNL     1       6.266   3.851  14.234  0.00  0.00    +0.000 C 
ATOM     26  S   UNL     1       7.120   4.701  16.724  0.00  0.00    +0.000 S 
ATOM     27  C   UNL     1       5.987   4.980  17.977  0.00  0.00    +0.000 A 
ATOM     28  C   UNL     1       6.492   5.414  19.319  0.00  0.00    +0.000 C 
ENDBRANCH  20  22
ENDBRANCH  19  20
ENDBRANCH  18  19
ENDBRANCH   3  18
TORSDOF 9
ENDMDL
MODEL 7
REMARK VINA RESULT:      -6.3      3.183      9.729
REMARK  Name = 
REMARK  15 active torsions:
REMARK  status: ('A' for Active; 'I' for Inactive)
REMARK    1  A    between atoms: C_1  and  O_2
REMARK    2  A    between atoms: O_2  and  C_3
REMARK    3  A    between atoms: C_6  and  C_7
REMARK    4  A    between atoms: C_7  and  N_8
REMARK    5  A    between atoms: N_8  and  C_9
REMARK    6  A    between atoms: C_10  and  C_12
REMARK    7  A    between atoms: C_12  and  C_13
REMARK    8  A    between atoms: C_13  and  C_14
REMARK    9  A    between atoms: C_14  and  C_16
REMARK   10  A    between atoms: C_18  and  C_19
REMARK   11  A    between atoms: C_21  and  C_22
REMARK   12  A    between atoms: C_23  and  O_24
REMARK   13  A    between atoms: O_24  and  C_25
REMARK   14  A    between atoms: C_26  and  O_27
REMARK   15  A    between atoms: O_27  and  C_28
REMARK                            x       y       z     vdW  Elec       q    Type
REMARK                         _______ _______ _______ _____ _____    ______ ____
ROOT
ATOM      1  N   UNL     1       1.867   8.376  19.098  0.00  0.00    +0.000 N 
ATOM      2  C   UNL     1       2.030   8.574  17.664  0.00  0.00    +0.000 C 
ATOM      3  C   UNL     1       1.098   9.227  19.899  0.00  0.00    +0.000 C 
ATOM      4  O   UNL     1       0.893   9.025  21.096  0.00  0.00    +0.000 OA
ENDROOT
BRANCH   1   5
ATOM      5  C   UNL     1       2.385   7.109  19.650  0.00  0.00    +0.000 C 
BRANCH   5   9
ATOM      6  C   UNL     1       4.512   4.482  16.914  0.00  0.00    +0.000 A 
ATOM      7  C   UNL     1       4.936   5.795  17.128  0.00  0.00    +0.000 A 
ATOM      8  C   UNL     1       4.239   6.635  17.992  0.00  0.00    +0.000 A 
ATOM      9  C   UNL     1       3.063   6.204  18.625  0.00  0.00    +0.000 A 
ATOM     10  C   UNL     1       2.593   4.889  18.368  0.00  0.00    +0.000 A 
ATOM     11  C   UNL     1       3.310   4.026  17.492  0.00  0.00    +0.000 A 
BRANCH   6  13
ATOM     12  C   UNL     1       5.839   4.187  14.974  0.00  0.00    +0.000 C 
ATOM     13  O   UNL     1       5.249   3.620  16.142  0.00  0.00    +0.000 OA
ENDBRANCH   6  13
BRANCH  10  14
ATOM     14  O   UNL     1       1.453   4.561  19.071  0.00  0.00    +0.000 OA
ATOM     15  C   UNL     1       1.586   3.949  20.348  0.00  0.00    +0.000 C 
ENDBRANCH  10  14
BRANCH  11  16
ATOM     16  O   UNL     1       2.846   2.741  17.355  0.00  0.00    +0.000 OA
ATOM     17  C   UNL     1       3.403   1.718  18.171  0.00  0.00    +0.000 C 
ENDBRANCH  11  16
ENDBRANCH   5   9
ENDBRANCH   1   5
BRANCH   3  18
ATOM     18  C   UNL     1       0.538  10.452  19.199  0.00  0.00    +0.000 C 
BRANCH  18  19
ATOM     19  C   UNL     1      -0.726  11.039  19.826  0.00  0.00    +0.000 C 
BRANCH  19  20
ATOM     20  C   UNL     1      -1.383  12.005  18.841  0.00  0.00    +0.000 C 
ATOM     21  O   UNL     1      -0.709  12.871  18.279  0.00  0.00    +0.000 OA
BRANCH  20  22
ATOM     22  C   UNL     1      -2.826  11.877  18.576  0.00  0.00    +0.000 A 
ATOM     23  C   UNL     1      -3.888  12.258  19.468  0.00  0.00    +0.000 A 
ATOM     24  C   UNL     1      -5.144  11.994  18.963  0.00  0.00    +0.000 A 
ATOM     25  C   UNL     1      -6.467  12.215  19.609  0.00  0.00    +0.000 C 
ATOM     26  S   UNL     1      -5.060  11.321  17.402  0.00  0.00    +0.000 S 
ATOM     27  C   UNL     1      -3.349  11.352  17.398  0.00  0.00    +0.000 A 
ATOM     28  C   UNL     1      -2.623  10.834  16.194  0.00  0.00    +0.000 C 
ENDBRANCH  20  22
ENDBRANCH  19  20
ENDBRANCH  18  19
ENDBRANCH   3  18
TORSDOF 9
ENDMDL
MODEL 8
REMARK VINA RESULT:      -6.3      3.157      9.128
REMARK  Name = 
REMARK  15 active torsions:
REMARK  status: ('A' for Active; 'I' for Inactive)
REMARK    1  A    between atoms: C_1  and  O_2
REMARK    2  A    between atoms: O_2  and  C_3
REMARK    3  A    between atoms: C_6  and  C_7
REMARK    4  A    between atoms: C_7  and  N_8
REMARK    5  A    between atoms: N_8  and  C_9
REMARK    6  A    between atoms: C_10  and  C_12
REMARK    7  A    between atoms: C_12  and  C_13
REMARK    8  A    between atoms: C_13  and  C_14
REMARK    9  A    between atoms: C_14  and  C_16
REMARK   10  A    between atoms: C_18  and  C_19
REMARK   11  A    between atoms: C_21  and  C_22
REMARK   12  A    between atoms: C_23  and  O_24
REMARK   13  A    between atoms: O_24  and  C_25
REMARK   14  A    between atoms: C_26  and  O_27
REMARK   15  A    between atoms: O_27  and  C_28
REMARK                            x       y       z     vdW  Elec       q    Type
REMARK                         _______ _______ _______ _____ _____    ______ ____
ROOT
ATOM      1  N   UNL     1       1.725   8.498  18.793  0.00  0.00    +0.000 N 
ATOM      2  C   UNL     1       1.971   9.643  17.927  0.00  0.00    +0.000 C 
ATOM      3  C   UNL     1       1.352   8.629  20.135  0.00  0.00    +0.000 C 
ATOM      4  O   UNL     1       1.070   7.670  20.855  0.00  0.00    +0.000 OA
ENDROOT
BRANCH   1   5
ATOM      5  C   UNL     1       1.685   7.176  18.141  0.00  0.00    +0.000 C 
BRANCH   5   9
ATOM      6  C   UNL     1       5.509   5.137  18.506  0.00  0.00    +0.000 A 
ATOM      7  C   UNL     1       5.396   6.336  17.799  0.00  0.00    +0.000 A 
ATOM      8  C   UNL     1       4.165   6.973  17.672  0.00  0.00    +0.000 A 
ATOM      9  C   UNL     1       2.998   6.400  18.201  0.00  0.00    +0.000 A 
ATOM     10  C   UNL     1       3.096   5.152  18.872  0.00  0.00    +0.000 A 
ATOM     11  C   UNL     1       4.355   4.505  19.009  0.00  0.00    +0.000 A 
BRANCH   6  13
ATOM     12  C   UNL     1       7.840   5.454  18.786  0.00  0.00    +0.000 C 
ATOM     13  O   UNL     1       6.734   4.556  18.718  0.00  0.00    +0.000 OA
ENDBRANCH   6  13
BRANCH  10  14
ATOM     14  O   UNL     1       1.895   4.703  19.381  0.00  0.00    +0.000 OA
ATOM     15  C   UNL     1       1.753   4.574  20.791  0.00  0.00    +0.000 C 
ENDBRANCH  10  14
BRANCH  11  16
ATOM     16  O   UNL     1       4.390   3.344  19.743  0.00  0.00    +0.000 OA
ATOM     17  C   UNL     1       4.006   2.124  19.118  0.00  0.00    +0.000 C 
ENDBRANCH  11  16
ENDBRANCH   5   9
ENDBRANCH   1   5
BRANCH   3  18
ATOM     18  C   UNL     1       1.339  10.048  20.673  0.00  0.00    +0.000 C 
BRANCH  18  19
ATOM     19  C   UNL     1      -0.044  10.604  21.008  0.00  0.00    +0.000 C 
BRANCH  19  20
ATOM     20  C   UNL     1      -0.429  11.667  19.980  0.00  0.00    +0.000 C 
ATOM     21  O   UNL     1       0.179  12.739  19.940  0.00  0.00    +0.000 OA
BRANCH  20  22
ATOM     22  C   UNL     1      -1.531  11.385  19.044  0.00  0.00    +0.000 A 
ATOM     23  C   UNL     1      -1.452  10.561  17.867  0.00  0.00    +0.000 A 
ATOM     24  C   UNL     1      -2.637  10.502  17.165  0.00  0.00    +0.000 A 
ATOM     25  C   UNL     1      -2.924   9.787  15.890  0.00  0.00    +0.000 C 
ATOM     26  S   UNL     1      -3.863  11.403  17.930  0.00  0.00    +0.000 S 
ATOM     27  C   UNL     1      -2.815  11.900  19.189  0.00  0.00    +0.000 A 
ATOM     28  C   UNL     1      -3.355  12.797  20.261  0.00  0.00    +0.000 C 
ENDBRANCH  20  22
ENDBRANCH  19  20
ENDBRANCH  18  19
ENDBRANCH   3  18
TORSDOF 9
ENDMDL
MODEL 9
REMARK VINA RESULT:      -6.3      3.132      9.202
REMARK  Name = 
REMARK  15 active torsions:
REMARK  status: ('A' for Active; 'I' for Inactive)
REMARK    1  A    between atoms: C_1  and  O_2
REMARK    2  A    between atoms: O_2  and  C_3
REMARK    3  A    between atoms: C_6  and  C_7
REMARK    4  A    between atoms: C_7  and  N_8
REMARK    5  A    between atoms: N_8  and  C_9
REMARK    6  A    between atoms: C_10  and  C_12
REMARK    7  A    between atoms: C_12  and  C_13
REMARK    8  A    between atoms: C_13  and  C_14
REMARK    9  A    between atoms: C_14  and  C_16
REMARK   10  A    between atoms: C_18  and  C_19
REMARK   11  A    between atoms: C_21  and  C_22
REMARK   12  A    between atoms: C_23  and  O_24
REMARK   13  A    between atoms: O_24  and  C_25
REMARK   14  A    between atoms: C_26  and  O_27
REMARK   15  A    between atoms: O_27  and  C_28
REMARK                            x       y       z     vdW  Elec       q    Type
REMARK                         _______ _______ _______ _____ _____    ______ ____
ROOT
ATOM      1  N   UNL     1       1.819   7.836  18.895  0.00  0.00    +0.000 N 
ATOM      2  C   UNL     1       1.834   7.585  20.330  0.00  0.00    +0.000 C 
ATOM      3  C   UNL     1       1.851   9.124  18.351  0.00  0.00    +0.000 C 
ATOM      4  O   UNL     1       1.915   9.345  17.141  0.00  0.00    +0.000 OA
ENDROOT
BRANCH   1   5
ATOM      5  C   UNL     1       1.977   6.660  18.020  0.00  0.00    +0.000 C 
BRANCH   5   9
ATOM      6  C   UNL     1       5.944   4.927  18.432  0.00  0.00    +0.000 A 
ATOM      7  C   UNL     1       5.772   6.227  17.952  0.00  0.00    +0.000 A 
ATOM      8  C   UNL     1       4.497   6.767  17.806  0.00  0.00    +0.000 A 
ATOM      9  C   UNL     1       3.354   6.004  18.084  0.00  0.00    +0.000 A 
ATOM     10  C   UNL     1       3.519   4.662  18.518  0.00  0.00    +0.000 A 
ATOM     11  C   UNL     1       4.821   4.111  18.676  0.00  0.00    +0.000 A 
BRANCH   6  13
ATOM     12  C   UNL     1       8.162   5.363  19.139  0.00  0.00    +0.000 C 
ATOM     13  O   UNL     1       7.198   4.423  18.671  0.00  0.00    +0.000 OA
ENDBRANCH   6  13
BRANCH  10  14
ATOM     14  O   UNL     1       2.330   4.019  18.796  0.00  0.00    +0.000 OA
ATOM     15  C   UNL     1       1.858   3.028  17.891  0.00  0.00    +0.000 C 
ENDBRANCH  10  14
BRANCH  11  16
ATOM     16  O   UNL     1       4.909   2.836  19.180  0.00  0.00    +0.000 OA
ATOM     17  C   UNL     1       4.445   2.585  20.501  0.00  0.00    +0.000 C 
ENDBRANCH  11  16
ENDBRANCH   5   9
ENDBRANCH   1   5
BRANCH   3  18
ATOM     18  C   UNL     1       1.776  10.260  19.356  0.00  0.00    +0.000 C 
BRANCH  18  19
ATOM     19  C   UNL     1       0.632  11.248  19.138  0.00  0.00    +0.000 C 
BRANCH  19  20
ATOM     20  C   UNL     1      -0.703  10.539  19.358  0.00  0.00    +0.000 C 
ATOM     21  O   UNL     1      -0.890   9.873  20.380  0.00  0.00    +0.000 OA
BRANCH  20  22
ATOM     22  C   UNL     1      -1.755  10.669  18.335  0.00  0.00    +0.000 A 
ATOM     23  C   UNL     1      -1.772  10.021  17.051  0.00  0.00    +0.000 A 
ATOM     24  C   UNL     1      -2.873  10.354  16.289  0.00  0.00    +0.000 A 
ATOM     25  C   UNL     1      -3.209   9.914  14.907  0.00  0.00    +0.000 C 
ATOM     26  S   UNL     1      -3.911  11.415  17.121  0.00  0.00    +0.000 S 
ATOM     27  C   UNL     1      -2.889  11.461  18.493  0.00  0.00    +0.000 A 
ATOM     28  C   UNL     1      -3.292  12.307  19.662  0.00  0.00    +0.000 C 
ENDBRANCH  20  22
ENDBRANCH  19  20
ENDBRANCH  18  19
ENDBRANCH   3  18
TORSDOF 9
ENDMDL
