MODEL 1
REMARK VINA RESULT:      -7.4      0.000      0.000
REMARK  Name = 
REMARK  5 active torsions:
REMARK  status: ('A' for Active; 'I' for Inactive)
REMARK    1  A    between atoms: C_1  and  C_2
REMARK    2  A    between atoms: C_5  and  N_6
REMARK    3  A    between atoms: N_12  and  C_13
REMARK    4  A    between atoms: C_13  and  C_14
REMARK    5  A    between atoms: C_13  and  C_15
REMARK                            x       y       z     vdW  Elec       q    Type
REMARK                         _______ _______ _______ _____ _____    ______ ____
ROOT
ATOM      1  N   UNL     1       2.845   6.936  18.573  0.00  0.00    +0.000 N 
ATOM      2  C   UNL     1       2.530   6.657  19.916  0.00  0.00    +0.000 A 
ATOM      3  C   UNL     1       1.807   7.667  20.386  0.00  0.00    +0.000 A 
ATOM      4  N   UNL     1       1.304   8.120  21.553  0.00  0.00    +0.000 N 
ATOM      5  C   UNL     1       0.755   9.409  21.326  0.00  0.00    +0.000 A 
ATOM      6  O   UNL     1       0.163  10.079  22.153  0.00  0.00    +0.000 OA
ATOM      7  N   UNL     1       1.015   9.704  19.958  0.00  0.00    +0.000 N 
ATOM      8  N   UNL     1       1.543   8.558  19.405  0.00  0.00    +0.000 N 
ATOM      9  C   UNL     1       2.244   8.237  18.233  0.00  0.00    +0.000 A 
ATOM     10  O   UNL     1       2.311   8.894  17.208  0.00  0.00    +0.000 OA
ATOM     11  H   UNL     1       1.329   7.677  22.456  0.00  0.00    +0.000 HD
ENDROOT
BRANCH   1  16
ATOM     12  C   UNL     1       6.113   3.873  14.950  0.00  0.00    +0.000 C 
ATOM     13  C   UNL     1       5.278   4.663  15.913  0.00  0.00    +0.000 A 
ATOM     14  C   UNL     1       4.287   4.044  16.673  0.00  0.00    +0.000 A 
ATOM     15  C   UNL     1       3.500   4.788  17.560  0.00  0.00    +0.000 A 
ATOM     16  C   UNL     1       3.669   6.171  17.703  0.00  0.00    +0.000 A 
ATOM     17  C   UNL     1       4.679   6.784  16.943  0.00  0.00    +0.000 A 
ATOM     18  C   UNL     1       5.476   6.037  16.062  0.00  0.00    +0.000 A 
ENDBRANCH   1  16
BRANCH   7  19
ATOM     19  C   UNL     1       0.356  10.689  19.118  0.00  0.00    +0.000 C 
ATOM     20  C   UNL     1      -1.140  10.413  18.976  0.00  0.00    +0.000 C 
ATOM     21  C   UNL     1       0.594  12.103  19.647  0.00  0.00    +0.000 C 
ENDBRANCH   7  19
TORSDOF 2
ENDMDL
MODEL 2
REMARK VINA RESULT:      -7.4      0.243      1.099
REMARK  Name = 
REMARK  5 active torsions:
REMARK  status: ('A' for Active; 'I' for Inactive)
REMARK    1  A    between atoms: C_1  and  C_2
REMARK    2  A    between atoms: C_5  and  N_6
REMARK    3  A    between atoms: N_12  and  C_13
REMARK    4  A    between atoms: C_13  and  C_14
REMARK    5  A    between atoms: C_13  and  C_15
REMARK                            x       y       z     vdW  Elec       q    Type
REMARK                         _______ _______ _______ _____ _____    ______ ____
ROOT
ATOM      1  N   UNL     1       2.736   7.074  18.659  0.00  0.00    +0.000 N 
ATOM      2  C   UNL     1       2.461   6.833  20.018  0.00  0.00    +0.000 A 
ATOM      3  C   UNL     1       1.778   7.871  20.488  0.00  0.00    +0.000 A 
ATOM      4  N   UNL     1       1.327   8.363  21.660  0.00  0.00    +0.000 N 
ATOM      5  C   UNL     1       0.801   9.659  21.421  0.00  0.00    +0.000 A 
ATOM      6  O   UNL     1       0.253  10.363  22.252  0.00  0.00    +0.000 OA
ATOM      7  N   UNL     1       1.021   9.917  20.039  0.00  0.00    +0.000 N 
ATOM      8  N   UNL     1       1.502   8.746  19.496  0.00  0.00    +0.000 N 
ATOM      9  C   UNL     1       2.155   8.381  18.308  0.00  0.00    +0.000 A 
ATOM     10  O   UNL     1       2.202   9.012  17.267  0.00  0.00    +0.000 OA
ATOM     11  H   UNL     1       1.372   7.940  22.572  0.00  0.00    +0.000 HD
ENDROOT
BRANCH   1  16
ATOM     12  C   UNL     1       5.952   3.782  15.194  0.00  0.00    +0.000 C 
ATOM     13  C   UNL     1       5.100   4.646  16.075  0.00  0.00    +0.000 A 
ATOM     14  C   UNL     1       5.327   6.018  16.164  0.00  0.00    +0.000 A 
ATOM     15  C   UNL     1       4.539   6.817  17.000  0.00  0.00    +0.000 A 
ATOM     16  C   UNL     1       3.512   6.270  17.779  0.00  0.00    +0.000 A 
ATOM     17  C   UNL     1       3.283   4.889  17.673  0.00  0.00    +0.000 A 
ATOM     18  C   UNL     1       4.065   4.087  16.828  0.00  0.00    +0.000 A 
ENDBRANCH   1  16
BRANCH   7  19
ATOM     19  C   UNL     1       0.356  10.898  19.198  0.00  0.00    +0.000 C 
ATOM     20  C   UNL     1      -1.160  10.707  19.181  0.00  0.00    +0.000 C 
ATOM     21  C   UNL     1       0.715  12.319  19.632  0.00  0.00    +0.000 C 
ENDBRANCH   7  19
TORSDOF 2
ENDMDL
MODEL 3
REMARK VINA RESULT:      -7.0      3.331      6.671
REMARK  Name = 
REMARK  5 active torsions:
REMARK  status: ('A' for Active; 'I' for Inactive)
REMARK    1  A    between atoms: C_1  and  C_2
REMARK    2  A    between atoms: C_5  and  N_6
REMARK    3  A    between atoms: N_12  and  C_13
REMARK    4  A    between atoms: C_13  and  C_14
REMARK    5  A    between atoms: C_13  and  C_15
REMARK                            x       y       z     vdW  Elec       q    Type
REMARK                         _______ _______ _______ _____ _____    ______ ____
ROOT
ATOM      1  N   UNL     1       2.755   6.417  19.271  0.00  0.00    +0.000 N 
ATOM      2  C   UNL     1       4.061   6.015  18.935  0.00  0.00    +0.000 A 
ATOM      3  C   UNL     1       4.193   4.734  19.261  0.00  0.00    +0.000 A 
ATOM      4  N   UNL     1       5.147   3.785  19.348  0.00  0.00    +0.000 N 
ATOM      5  C   UNL     1       4.574   2.639  19.957  0.00  0.00    +0.000 A 
ATOM      6  O   UNL     1       5.141   1.574  20.131  0.00  0.00    +0.000 OA
ATOM      7  N   UNL     1       3.233   2.996  20.269  0.00  0.00    +0.000 N 
ATOM      8  N   UNL     1       3.019   4.236  19.708  0.00  0.00    +0.000 N 
ATOM      9  C   UNL     1       2.063   5.253  19.850  0.00  0.00    +0.000 A 
ATOM     10  O   UNL     1       0.947   5.157  20.332  0.00  0.00    +0.000 OA
ATOM     11  H   UNL     1       6.115   3.848  19.081  0.00  0.00    +0.000 HD
ENDROOT
BRANCH   1  16
ATOM     12  C   UNL     1       0.400  11.659  18.858  0.00  0.00    +0.000 C 
ATOM     13  C   UNL     1       1.037  10.305  18.970  0.00  0.00    +0.000 A 
ATOM     14  C   UNL     1       1.684   9.729  17.878  0.00  0.00    +0.000 A 
ATOM     15  C   UNL     1       2.263   8.459  17.984  0.00  0.00    +0.000 A 
ATOM     16  C   UNL     1       2.202   7.724  19.174  0.00  0.00    +0.000 A 
ATOM     17  C   UNL     1       1.560   8.319  20.272  0.00  0.00    +0.000 A 
ATOM     18  C   UNL     1       0.988   9.596  20.172  0.00  0.00    +0.000 A 
ENDBRANCH   1  16
BRANCH   7  19
ATOM     19  C   UNL     1       2.113   2.110  20.540  0.00  0.00    +0.000 C 
ATOM     20  C   UNL     1       1.364   2.503  21.811  0.00  0.00    +0.000 C 
ATOM     21  C   UNL     1       1.159   2.059  19.346  0.00  0.00    +0.000 C 
ENDBRANCH   7  19
TORSDOF 2
ENDMDL
MODEL 4
REMARK VINA RESULT:      -7.0      3.324      6.627
REMARK  Name = 
REMARK  5 active torsions:
REMARK  status: ('A' for Active; 'I' for Inactive)
REMARK    1  A    between atoms: C_1  and  C_2
REMARK    2  A    between atoms: C_5  and  N_6
REMARK    3  A    between atoms: N_12  and  C_13
REMARK    4  A    between atoms: C_13  and  C_14
REMARK    5  A    between atoms: C_13  and  C_15
REMARK                            x       y       z     vdW  Elec       q    Type
REMARK                         _______ _______ _______ _____ _____    ______ ____
ROOT
ATOM      1  N   UNL     1       2.736   6.426  19.265  0.00  0.00    +0.000 N 
ATOM      2  C   UNL     1       4.044   6.031  18.928  0.00  0.00    +0.000 A 
ATOM      3  C   UNL     1       4.182   4.751  19.256  0.00  0.00    +0.000 A 
ATOM      4  N   UNL     1       5.142   3.807  19.345  0.00  0.00    +0.000 N 
ATOM      5  C   UNL     1       4.575   2.659  19.956  0.00  0.00    +0.000 A 
ATOM      6  O   UNL     1       5.148   1.597  20.131  0.00  0.00    +0.000 OA
ATOM      7  N   UNL     1       3.232   3.009  20.268  0.00  0.00    +0.000 N 
ATOM      8  N   UNL     1       3.012   4.247  19.705  0.00  0.00    +0.000 N 
ATOM      9  C   UNL     1       2.050   5.259  19.846  0.00  0.00    +0.000 A 
ATOM     10  O   UNL     1       0.935   5.158  20.328  0.00  0.00    +0.000 OA
ATOM     11  H   UNL     1       6.110   3.875  19.077  0.00  0.00    +0.000 HD
ENDROOT
BRANCH   1  16
ATOM     12  C   UNL     1       0.580  11.755  18.884  0.00  0.00    +0.000 C 
ATOM     13  C   UNL     1       1.118  10.358  18.979  0.00  0.00    +0.000 A 
ATOM     14  C   UNL     1       1.015   9.633  20.165  0.00  0.00    +0.000 A 
ATOM     15  C   UNL     1       1.531   8.335  20.252  0.00  0.00    +0.000 A 
ATOM     16  C   UNL     1       2.176   7.730  19.166  0.00  0.00    +0.000 A 
ATOM     17  C   UNL     1       2.262   8.463  17.972  0.00  0.00    +0.000 A 
ATOM     18  C   UNL     1       1.736   9.760  17.878  0.00  0.00    +0.000 A 
ENDBRANCH   1  16
BRANCH   7  19
ATOM     19  C   UNL     1       2.118   2.117  20.540  0.00  0.00    +0.000 C 
ATOM     20  C   UNL     1       1.365   2.510  21.811  0.00  0.00    +0.000 C 
ATOM     21  C   UNL     1       1.164   2.059  19.347  0.00  0.00    +0.000 C 
ENDBRANCH   7  19
TORSDOF 2
ENDMDL
MODEL 5
REMARK VINA RESULT:      -6.9      2.401      7.144
REMARK  Name = 
REMARK  5 active torsions:
REMARK  status: ('A' for Active; 'I' for Inactive)
REMARK    1  A    between atoms: C_1  and  C_2
REMARK    2  A    between atoms: C_5  and  N_6
REMARK    3  A    between atoms: N_12  and  C_13
REMARK    4  A    between atoms: C_13  and  C_14
REMARK    5  A    between atoms: C_13  and  C_15
REMARK                            x       y       z     vdW  Elec       q    Type
REMARK                         _______ _______ _______ _____ _____    ______ ____
ROOT
ATOM      1  N   UNL     1       2.074   7.513  19.451  0.00  0.00    +0.000 N 
ATOM      2  C   UNL     1       2.848   7.726  18.295  0.00  0.00    +0.000 A 
ATOM      3  C   UNL     1       3.381   6.562  17.938  0.00  0.00    +0.000 A 
ATOM      4  N   UNL     1       4.283   6.065  17.068  0.00  0.00    +0.000 N 
ATOM      5  C   UNL     1       4.481   4.694  17.375  0.00  0.00    +0.000 A 
ATOM      6  O   UNL     1       5.186   3.924  16.744  0.00  0.00    +0.000 OA
ATOM      7  N   UNL     1       3.673   4.431  18.516  0.00  0.00    +0.000 N 
ATOM      8  N   UNL     1       2.930   5.570  18.737  0.00  0.00    +0.000 N 
ATOM      9  C   UNL     1       2.170   6.085  19.798  0.00  0.00    +0.000 A 
ATOM     10  O   UNL     1       1.715   5.472  20.748  0.00  0.00    +0.000 OA
ATOM     11  H   UNL     1       4.784   6.551  16.343  0.00  0.00    +0.000 HD
ENDROOT
BRANCH   1  16
ATOM     12  C   UNL     1      -0.793  11.400  22.592  0.00  0.00    +0.000 C 
ATOM     13  C   UNL     1      -0.026  10.404  21.773  0.00  0.00    +0.000 A 
ATOM     14  C   UNL     1       0.020  10.507  20.384  0.00  0.00    +0.000 A 
ATOM     15  C   UNL     1       0.725   9.567  19.624  0.00  0.00    +0.000 A 
ATOM     16  C   UNL     1       1.391   8.492  20.225  0.00  0.00    +0.000 A 
ATOM     17  C   UNL     1       1.350   8.404  21.625  0.00  0.00    +0.000 A 
ATOM     18  C   UNL     1       0.653   9.352  22.390  0.00  0.00    +0.000 A 
ENDBRANCH   1  16
BRANCH   7  19
ATOM     19  C   UNL     1       3.207   3.144  19.002  0.00  0.00    +0.000 C 
ATOM     20  C   UNL     1       2.656   2.271  17.876  0.00  0.00    +0.000 C 
ATOM     21  C   UNL     1       4.317   2.413  19.756  0.00  0.00    +0.000 C 
ENDBRANCH   7  19
TORSDOF 2
ENDMDL
MODEL 6
REMARK VINA RESULT:      -6.9      2.395      7.096
REMARK  Name = 
REMARK  5 active torsions:
REMARK  status: ('A' for Active; 'I' for Inactive)
REMARK    1  A    between atoms: C_1  and  C_2
REMARK    2  A    between atoms: C_5  and  N_6
REMARK    3  A    between atoms: N_12  and  C_13
REMARK    4  A    between atoms: C_13  and  C_14
REMARK    5  A    between atoms: C_13  and  C_15
REMARK                            x       y       z     vdW  Elec       q    Type
REMARK                         _______ _______ _______ _____ _____    ______ ____
ROOT
ATOM      1  N   UNL     1       2.072   7.520  19.419  0.00  0.00    +0.000 N 
ATOM      2  C   UNL     1       2.864   7.732  18.276  0.00  0.00    +0.000 A 
ATOM      3  C   UNL     1       3.415   6.572  17.937  0.00  0.00    +0.000 A 
ATOM      4  N   UNL     1       4.338   6.078  17.087  0.00  0.00    +0.000 N 
ATOM      5  C   UNL     1       4.544   4.711  17.407  0.00  0.00    +0.000 A 
ATOM      6  O   UNL     1       5.267   3.944  16.794  0.00  0.00    +0.000 OA
ATOM      7  N   UNL     1       3.718   4.448  18.535  0.00  0.00    +0.000 N 
ATOM      8  N   UNL     1       2.959   5.580  18.734  0.00  0.00    +0.000 N 
ATOM      9  C   UNL     1       2.175   6.095  19.778  0.00  0.00    +0.000 A 
ATOM     10  O   UNL     1       1.709   5.484  20.724  0.00  0.00    +0.000 OA
ATOM     11  H   UNL     1       4.846   6.564  16.367  0.00  0.00    +0.000 HD
ENDROOT
BRANCH   1  16
ATOM     12  C   UNL     1      -0.692  11.553  22.468  0.00  0.00    +0.000 C 
ATOM     13  C   UNL     1       0.007  10.487  21.675  0.00  0.00    +0.000 A 
ATOM     14  C   UNL     1       0.626   9.414  22.314  0.00  0.00    +0.000 A 
ATOM     15  C   UNL     1       1.289   8.431  21.570  0.00  0.00    +0.000 A 
ATOM     16  C   UNL     1       1.365   8.497  20.173  0.00  0.00    +0.000 A 
ATOM     17  C   UNL     1       0.726   9.574  19.539  0.00  0.00    +0.000 A 
ATOM     18  C   UNL     1       0.051  10.555  20.282  0.00  0.00    +0.000 A 
ENDBRANCH   1  16
BRANCH   7  19
ATOM     19  C   UNL     1       3.256   3.160  19.022  0.00  0.00    +0.000 C 
ATOM     20  C   UNL     1       2.712   2.282  17.896  0.00  0.00    +0.000 C 
ATOM     21  C   UNL     1       4.367   2.434  19.781  0.00  0.00    +0.000 C 
ENDBRANCH   7  19
TORSDOF 2
ENDMDL
MODEL 7
REMARK VINA RESULT:      -6.6      3.283      4.881
REMARK  Name = 
REMARK  5 active torsions:
REMARK  status: ('A' for Active; 'I' for Inactive)
REMARK    1  A    between atoms: C_1  and  C_2
REMARK    2  A    between atoms: C_5  and  N_6
REMARK    3  A    between atoms: N_12  and  C_13
REMARK    4  A    between atoms: C_13  and  C_14
REMARK    5  A    between atoms: C_13  and  C_15
REMARK                            x       y       z     vdW  Elec       q    Type
REMARK                         _______ _______ _______ _____ _____    ______ ____
ROOT
ATOM      1  N   UNL     1       4.673   4.965  16.843  0.00  0.00    +0.000 N 
ATOM      2  C   UNL     1       4.488   6.188  17.513  0.00  0.00    +0.000 A 
ATOM      3  C   UNL     1       3.685   5.971  18.549  0.00  0.00    +0.000 A 
ATOM      4  N   UNL     1       3.008   6.659  19.490  0.00  0.00    +0.000 N 
ATOM      5  C   UNL     1       2.183   5.745  20.196  0.00  0.00    +0.000 A 
ATOM      6  O   UNL     1       1.484   6.022  21.156  0.00  0.00    +0.000 OA
ATOM      7  N   UNL     1       2.382   4.483  19.571  0.00  0.00    +0.000 N 
ATOM      8  N   UNL     1       3.400   4.655  18.660  0.00  0.00    +0.000 N 
ATOM      9  C   UNL     1       3.899   3.938  17.561  0.00  0.00    +0.000 A 
ATOM     10  O   UNL     1       3.720   2.761  17.303  0.00  0.00    +0.000 OA
ATOM     11  H   UNL     1       3.022   7.650  19.670  0.00  0.00    +0.000 HD
ENDROOT
BRANCH   1  16
ATOM     12  C   UNL     1       7.549   4.179  11.913  0.00  0.00    +0.000 C 
ATOM     13  C   UNL     1       6.807   4.359  13.204  0.00  0.00    +0.000 A 
ATOM     14  C   UNL     1       5.503   3.886  13.350  0.00  0.00    +0.000 A 
ATOM     15  C   UNL     1       4.810   4.071  14.551  0.00  0.00    +0.000 A 
ATOM     16  C   UNL     1       5.390   4.742  15.635  0.00  0.00    +0.000 A 
ATOM     17  C   UNL     1       6.708   5.203  15.483  0.00  0.00    +0.000 A 
ATOM     18  C   UNL     1       7.409   5.009  14.283  0.00  0.00    +0.000 A 
ENDBRANCH   1  16
BRANCH   7  19
ATOM     19  C   UNL     1       2.096   3.165  20.112  0.00  0.00    +0.000 C 
ATOM     20  C   UNL     1       2.199   3.136  21.637  0.00  0.00    +0.000 C 
ATOM     21  C   UNL     1       0.721   2.676  19.656  0.00  0.00    +0.000 C 
ENDBRANCH   7  19
TORSDOF 2
ENDMDL
MODEL 8
REMARK VINA RESULT:      -6.6      2.439      7.010
REMARK  Name = 
REMARK  5 active torsions:
REMARK  status: ('A' for Active; 'I' for Inactive)
REMARK    1  A    between atoms: C_1  and  C_2
REMARK    2  A    between atoms: C_5  and  N_6
REMARK    3  A    between atoms: N_12  and  C_13
REMARK    4  A    between atoms: C_13  and  C_14
REMARK    5  A    between atoms: C_13  and  C_15
REMARK                            x       y       z     vdW  Elec       q    Type
REMARK                         _______ _______ _______ _____ _____    ______ ____
ROOT
ATOM      1  N   UNL     1       2.622   7.171  18.727  0.00  0.00    +0.000 N 
ATOM      2  C   UNL     1       3.515   7.491  17.687  0.00  0.00    +0.000 A 
ATOM      3  C   UNL     1       4.100   6.367  17.288  0.00  0.00    +0.000 A 
ATOM      4  N   UNL     1       5.099   5.955  16.482  0.00  0.00    +0.000 N 
ATOM      5  C   UNL     1       5.282   4.563  16.683  0.00  0.00    +0.000 A 
ATOM      6  O   UNL     1       6.062   3.857  16.067  0.00  0.00    +0.000 OA
ATOM      7  N   UNL     1       4.358   4.194  17.700  0.00  0.00    +0.000 N 
ATOM      8  N   UNL     1       3.578   5.304  17.939  0.00  0.00    +0.000 N 
ATOM      9  C   UNL     1       2.699   5.717  18.952  0.00  0.00    +0.000 A 
ATOM     10  O   UNL     1       2.152   5.018  19.787  0.00  0.00    +0.000 OA
ATOM     11  H   UNL     1       5.669   6.508  15.863  0.00  0.00    +0.000 HD
ENDROOT
BRANCH   1  16
ATOM     12  C   UNL     1      -0.427  10.892  21.897  0.00  0.00    +0.000 C 
ATOM     13  C   UNL     1       0.345   9.909  21.068  0.00  0.00    +0.000 A 
ATOM     14  C   UNL     1       0.857   8.743  21.636  0.00  0.00    +0.000 A 
ATOM     15  C   UNL     1       1.589   7.836  20.862  0.00  0.00    +0.000 A 
ATOM     16  C   UNL     1       1.844   8.072  19.505  0.00  0.00    +0.000 A 
ATOM     17  C   UNL     1       1.313   9.242  18.939  0.00  0.00    +0.000 A 
ATOM     18  C   UNL     1       0.569  10.147  19.711  0.00  0.00    +0.000 A 
ENDBRANCH   1  16
BRANCH   7  19
ATOM     19  C   UNL     1       3.860   2.866  18.014  0.00  0.00    +0.000 C 
ATOM     20  C   UNL     1       4.004   2.534  19.498  0.00  0.00    +0.000 C 
ATOM     21  C   UNL     1       2.406   2.711  17.566  0.00  0.00    +0.000 C 
ENDBRANCH   7  19
TORSDOF 2
ENDMDL
MODEL 9
REMARK VINA RESULT:      -6.5      2.441      7.060
REMARK  Name = 
REMARK  5 active torsions:
REMARK  status: ('A' for Active; 'I' for Inactive)
REMARK    1  A    between atoms: C_1  and  C_2
REMARK    2  A    between atoms: C_5  and  N_6
REMARK    3  A    between atoms: N_12  and  C_13
REMARK    4  A    between atoms: C_13  and  C_14
REMARK    5  A    between atoms: C_13  and  C_15
REMARK                            x       y       z     vdW  Elec       q    Type
REMARK                         _______ _______ _______ _____ _____    ______ ____
ROOT
ATOM      1  N   UNL     1       2.644   7.182  18.705  0.00  0.00    +0.000 N 
ATOM      2  C   UNL     1       3.535   7.493  17.661  0.00  0.00    +0.000 A 
ATOM      3  C   UNL     1       4.112   6.363  17.264  0.00  0.00    +0.000 A 
ATOM      4  N   UNL     1       5.106   5.942  16.456  0.00  0.00    +0.000 N 
ATOM      5  C   UNL     1       5.281   4.549  16.663  0.00  0.00    +0.000 A 
ATOM      6  O   UNL     1       6.054   3.836  16.048  0.00  0.00    +0.000 OA
ATOM      7  N   UNL     1       4.358   4.190  17.685  0.00  0.00    +0.000 N 
ATOM      8  N   UNL     1       3.586   5.306  17.922  0.00  0.00    +0.000 N 
ATOM      9  C   UNL     1       2.713   5.729  18.936  0.00  0.00    +0.000 A 
ATOM     10  O   UNL     1       2.165   5.037  19.776  0.00  0.00    +0.000 OA
ATOM     11  H   UNL     1       5.676   6.488  15.833  0.00  0.00    +0.000 HD
ENDROOT
BRANCH   1  16
ATOM     12  C   UNL     1      -0.574  10.791  21.837  0.00  0.00    +0.000 C 
ATOM     13  C   UNL     1       0.285   9.867  21.026  0.00  0.00    +0.000 A 
ATOM     14  C   UNL     1       0.543  10.130  19.681  0.00  0.00    +0.000 A 
ATOM     15  C   UNL     1       1.333   9.256  18.925  0.00  0.00    +0.000 A 
ATOM     16  C   UNL     1       1.875   8.091  19.482  0.00  0.00    +0.000 A 
ATOM     17  C   UNL     1       1.620   7.843  20.841  0.00  0.00    +0.000 A 
ATOM     18  C   UNL     1       0.838   8.723  21.604  0.00  0.00    +0.000 A 
ENDBRANCH   1  16
BRANCH   7  19
ATOM     19  C   UNL     1       3.853   2.867  18.006  0.00  0.00    +0.000 C 
ATOM     20  C   UNL     1       4.007   2.538  19.491  0.00  0.00    +0.000 C 
ATOM     21  C   UNL     1       2.394   2.721  17.572  0.00  0.00    +0.000 C 
ENDBRANCH   7  19
TORSDOF 2
ENDMDL
