MODEL 1
REMARK VINA RESULT:      -9.0      0.000      0.000
REMARK  Name = 
REMARK  9 active torsions:
REMARK  status: ('A' for Active; 'I' for Inactive)
REMARK    1  A    between atoms: C_1  and  O_2
REMARK    2  A    between atoms: O_2  and  C_3
REMARK    3  A    between atoms: C_6  and  C_7
REMARK    4  A    between atoms: C_7  and  C_8
REMARK    5  A    between atoms: C_8  and  N_9
REMARK    6  A    between atoms: C_10  and  C_12
REMARK    7  A    between atoms: C_16  and  N_17
REMARK    8  A    between atoms: C_27  and  O_28
REMARK    9  A    between atoms: O_28  and  C_29
REMARK                            x       y       z     vdW  Elec       q    Type
REMARK                         _______ _______ _______ _____ _____    ______ ____
ROOT
ATOM      1  C   UNL     1       3.544   5.467  18.489  0.00  0.00    +0.000 C 
ATOM      2  C   UNL     1       3.473   4.660  19.822  0.00  0.00    +0.000 C 
ATOM      3  C   UNL     1       2.027   4.273  20.170  0.00  0.00    +0.000 C 
ATOM      4  C   UNL     1       1.432   3.368  19.099  0.00  0.00    +0.000 C 
ATOM      5  C   UNL     1       1.534   3.987  17.711  0.00  0.00    +0.000 C 
ATOM      6  C   UNL     1       2.933   4.521  17.401  0.00  0.00    +0.000 C 
ENDROOT
BRANCH   1  10
ATOM      7  C   UNL     1       1.362   9.269  18.936  0.00  0.00    +0.000 A 
ATOM      8  C   UNL     1       2.097   8.996  17.775  0.00  0.00    +0.000 A 
ATOM      9  C   UNL     1       2.801   7.789  17.626  0.00  0.00    +0.000 A 
ATOM     10  C   UNL     1       2.860   6.844  18.659  0.00  0.00    +0.000 A 
ATOM     11  C   UNL     1       2.196   7.177  19.842  0.00  0.00    +0.000 A 
ATOM     12  C   UNL     1       1.431   8.345  19.991  0.00  0.00    +0.000 A 
BRANCH   7  14
ATOM     13  C   UNL     1       1.316  11.613  19.356  0.00  0.00    +0.000 C 
ATOM     14  O   UNL     1       0.608  10.406  19.080  0.00  0.00    +0.000 OA
ENDBRANCH   7  14
BRANCH  12  15
ATOM     15  O   UNL     1       0.863   8.374  21.230  0.00  0.00    +0.000 OA
ATOM     16  C   UNL     1       1.398   9.191  22.252  0.00  0.00    +0.000 C 
ENDBRANCH  12  15
ENDBRANCH   1  10
BRANCH   1  17
ATOM     17  C   UNL     1       5.035   5.734  18.062  0.00  0.00    +0.000 C 
BRANCH  17  18
ATOM     18  N   UNL     1       5.325   5.386  16.660  0.00  0.00    +0.000 N 
ATOM     19  C   UNL     1       6.504   4.795  16.263  0.00  0.00    +0.000 C 
ATOM     20  O   UNL     1       7.362   4.414  17.047  0.00  0.00    +0.000 OA
ATOM     21  H   UNL     1       4.629   5.614  15.965  0.00  0.00    +0.000 HD
BRANCH  19  22
ATOM     22  C   UNL     1       6.697   4.595  14.787  0.00  0.00    +0.000 A 
ATOM     23  C   UNL     1       7.705   5.335  14.142  0.00  0.00    +0.000 A 
ATOM     24  C   UNL     1       7.910   5.222  12.761  0.00  0.00    +0.000 A 
ATOM     25  C   UNL     1       7.106   4.375  12.006  0.00  0.00    +0.000 A 
ATOM     26  C   UNL     1       6.090   3.642  12.632  0.00  0.00    +0.000 A 
ATOM     27  C   UNL     1       5.884   3.744  14.026  0.00  0.00    +0.000 A 
BRANCH  26  28
ATOM     28  N   UNL     1       5.226   2.780  11.820  0.00  0.00    +0.000 N 
ATOM     29  O   UNL     1       5.671   1.680  11.466  0.00  0.00    +0.000 OA
ATOM     30  O   UNL     1       4.098   3.207  11.535  0.00  0.00    +0.000 OA
ENDBRANCH  26  28
ENDBRANCH  19  22
ENDBRANCH  17  18
ENDBRANCH   1  17
TORSDOF 7
ENDMDL
MODEL 2
REMARK VINA RESULT:      -8.8      1.078      1.317
REMARK  Name = 
REMARK  9 active torsions:
REMARK  status: ('A' for Active; 'I' for Inactive)
REMARK    1  A    between atoms: C_1  and  O_2
REMARK    2  A    between atoms: O_2  and  C_3
REMARK    3  A    between atoms: C_6  and  C_7
REMARK    4  A    between atoms: C_7  and  C_8
REMARK    5  A    between atoms: C_8  and  N_9
REMARK    6  A    between atoms: C_10  and  C_12
REMARK    7  A    between atoms: C_16  and  N_17
REMARK    8  A    between atoms: C_27  and  O_28
REMARK    9  A    between atoms: O_28  and  C_29
REMARK                            x       y       z     vdW  Elec       q    Type
REMARK                         _______ _______ _______ _____ _____    ______ ____
ROOT
ATOM      1  C   UNL     1       4.146   4.155  18.537  0.00  0.00    +0.000 C 
ATOM      2  C   UNL     1       3.936   3.382  19.876  0.00  0.00    +0.000 C 
ATOM      3  C   UNL     1       2.448   3.092  20.133  0.00  0.00    +0.000 C 
ATOM      4  C   UNL     1       1.870   2.204  19.039  0.00  0.00    +0.000 C 
ATOM      5  C   UNL     1       2.103   2.786  17.651  0.00  0.00    +0.000 C 
ATOM      6  C   UNL     1       3.550   3.227  17.427  0.00  0.00    +0.000 C 
ENDROOT
BRANCH   1  10
ATOM      7  C   UNL     1       2.183   8.094  18.766  0.00  0.00    +0.000 A 
ATOM      8  C   UNL     1       3.003   7.763  17.680  0.00  0.00    +0.000 A 
ATOM      9  C   UNL     1       3.638   6.512  17.601  0.00  0.00    +0.000 A 
ATOM     10  C   UNL     1       3.540   5.575  18.638  0.00  0.00    +0.000 A 
ATOM     11  C   UNL     1       2.793   5.962  19.754  0.00  0.00    +0.000 A 
ATOM     12  C   UNL     1       2.095   7.178  19.826  0.00  0.00    +0.000 A 
BRANCH   7  14
ATOM     13  C   UNL     1       1.948  10.333  17.989  0.00  0.00    +0.000 C 
ATOM     14  O   UNL     1       1.494   9.278  18.835  0.00  0.00    +0.000 OA
ENDBRANCH   7  14
BRANCH  12  15
ATOM     15  O   UNL     1       1.417   7.256  21.007  0.00  0.00    +0.000 OA
ATOM     16  C   UNL     1       1.301   8.486  21.694  0.00  0.00    +0.000 C 
ENDBRANCH  12  15
ENDBRANCH   1  10
BRANCH   1  17
ATOM     17  C   UNL     1       5.676   4.321  18.208  0.00  0.00    +0.000 C 
BRANCH  17  18
ATOM     18  N   UNL     1       6.006   4.106  16.789  0.00  0.00    +0.000 N 
ATOM     19  C   UNL     1       6.568   5.080  15.993  0.00  0.00    +0.000 C 
ATOM     20  O   UNL     1       6.936   6.165  16.420  0.00  0.00    +0.000 OA
ATOM     21  H   UNL     1       5.788   3.205  16.386  0.00  0.00    +0.000 HD
BRANCH  19  22
ATOM     22  C   UNL     1       6.752   4.745  14.541  0.00  0.00    +0.000 A 
ATOM     23  C   UNL     1       7.766   5.412  13.828  0.00  0.00    +0.000 A 
ATOM     24  C   UNL     1       7.964   5.171  12.462  0.00  0.00    +0.000 A 
ATOM     25  C   UNL     1       7.147   4.269  11.790  0.00  0.00    +0.000 A 
ATOM     26  C   UNL     1       6.126   3.608  12.483  0.00  0.00    +0.000 A 
ATOM     27  C   UNL     1       5.927   3.839  13.862  0.00  0.00    +0.000 A 
BRANCH  26  28
ATOM     28  N   UNL     1       5.248   2.686  11.755  0.00  0.00    +0.000 N 
ATOM     29  O   UNL     1       4.105   3.069  11.479  0.00  0.00    +0.000 OA
ATOM     30  O   UNL     1       5.708   1.572  11.462  0.00  0.00    +0.000 OA
ENDBRANCH  26  28
ENDBRANCH  19  22
ENDBRANCH  17  18
ENDBRANCH   1  17
TORSDOF 7
ENDMDL
MODEL 3
REMARK VINA RESULT:      -8.7      0.979      1.904
REMARK  Name = 
REMARK  9 active torsions:
REMARK  status: ('A' for Active; 'I' for Inactive)
REMARK    1  A    between atoms: C_1  and  O_2
REMARK    2  A    between atoms: O_2  and  C_3
REMARK    3  A    between atoms: C_6  and  C_7
REMARK    4  A    between atoms: C_7  and  C_8
REMARK    5  A    between atoms: C_8  and  N_9
REMARK    6  A    between atoms: C_10  and  C_12
REMARK    7  A    between atoms: C_16  and  N_17
REMARK    8  A    between atoms: C_27  and  O_28
REMARK    9  A    between atoms: O_28  and  C_29
REMARK                            x       y       z     vdW  Elec       q    Type
REMARK                         _______ _______ _______ _____ _____    ______ ____
ROOT
ATOM      1  C   UNL     1       3.952   4.584  18.463  0.00  0.00    +0.000 C 
ATOM      2  C   UNL     1       4.444   3.548  19.521  0.00  0.00    +0.000 C 
ATOM      3  C   UNL     1       3.291   2.667  20.027  0.00  0.00    +0.000 C 
ATOM      4  C   UNL     1       2.689   1.852  18.889  0.00  0.00    +0.000 C 
ATOM      5  C   UNL     1       2.260   2.733  17.723  0.00  0.00    +0.000 C 
ATOM      6  C   UNL     1       3.341   3.729  17.302  0.00  0.00    +0.000 C 
ENDROOT
BRANCH   1  10
ATOM      7  C   UNL     1       1.470   7.647  20.433  0.00  0.00    +0.000 A 
ATOM      8  C   UNL     1       1.558   6.349  20.955  0.00  0.00    +0.000 A 
ATOM      9  C   UNL     1       2.342   5.365  20.330  0.00  0.00    +0.000 A 
ATOM     10  C   UNL     1       3.006   5.615  19.122  0.00  0.00    +0.000 A 
ATOM     11  C   UNL     1       2.830   6.887  18.570  0.00  0.00    +0.000 A 
ATOM     12  C   UNL     1       2.108   7.907  19.209  0.00  0.00    +0.000 A 
BRANCH   7  14
ATOM     13  C   UNL     1       1.407   9.271  22.174  0.00  0.00    +0.000 C 
ATOM     14  O   UNL     1       0.771   8.647  21.059  0.00  0.00    +0.000 OA
ENDBRANCH   7  14
BRANCH  12  15
ATOM     15  O   UNL     1       2.151   9.047  18.461  0.00  0.00    +0.000 OA
ATOM     16  C   UNL     1       0.961   9.683  18.041  0.00  0.00    +0.000 C 
ENDBRANCH  12  15
ENDBRANCH   1  10
BRANCH   1  17
ATOM     17  C   UNL     1       5.158   5.383  17.843  0.00  0.00    +0.000 C 
BRANCH  17  18
ATOM     18  N   UNL     1       5.425   5.058  16.432  0.00  0.00    +0.000 N 
ATOM     19  C   UNL     1       6.683   4.756  15.956  0.00  0.00    +0.000 C 
ATOM     20  O   UNL     1       7.660   4.629  16.680  0.00  0.00    +0.000 OA
ATOM     21  H   UNL     1       4.647   5.080  15.788  0.00  0.00    +0.000 HD
BRANCH  19  22
ATOM     22  C   UNL     1       6.814   4.547  14.475  0.00  0.00    +0.000 A 
ATOM     23  C   UNL     1       7.756   5.324  13.776  0.00  0.00    +0.000 A 
ATOM     24  C   UNL     1       7.901   5.204  12.388  0.00  0.00    +0.000 A 
ATOM     25  C   UNL     1       7.101   4.314  11.681  0.00  0.00    +0.000 A 
ATOM     26  C   UNL     1       6.150   3.543  12.361  0.00  0.00    +0.000 A 
ATOM     27  C   UNL     1       6.006   3.653  13.762  0.00  0.00    +0.000 A 
BRANCH  26  28
ATOM     28  N   UNL     1       5.289   2.633  11.599  0.00  0.00    +0.000 N 
ATOM     29  O   UNL     1       5.730   1.511  11.323  0.00  0.00    +0.000 OA
ATOM     30  O   UNL     1       4.166   3.047  11.276  0.00  0.00    +0.000 OA
ENDBRANCH  26  28
ENDBRANCH  19  22
ENDBRANCH  17  18
ENDBRANCH   1  17
TORSDOF 7
ENDMDL
MODEL 4
REMARK VINA RESULT:      -8.7      3.001      9.143
REMARK  Name = 
REMARK  9 active torsions:
REMARK  status: ('A' for Active; 'I' for Inactive)
REMARK    1  A    between atoms: C_1  and  O_2
REMARK    2  A    between atoms: O_2  and  C_3
REMARK    3  A    between atoms: C_6  and  C_7
REMARK    4  A    between atoms: C_7  and  C_8
REMARK    5  A    between atoms: C_8  and  N_9
REMARK    6  A    between atoms: C_10  and  C_12
REMARK    7  A    between atoms: C_16  and  N_17
REMARK    8  A    between atoms: C_27  and  O_28
REMARK    9  A    between atoms: O_28  and  C_29
REMARK                            x       y       z     vdW  Elec       q    Type
REMARK                         _______ _______ _______ _____ _____    ______ ____
ROOT
ATOM      1  C   UNL     1       2.766   5.825  18.411  0.00  0.00    +0.000 C 
ATOM      2  C   UNL     1       1.573   5.011  17.821  0.00  0.00    +0.000 C 
ATOM      3  C   UNL     1       1.735   3.504  18.080  0.00  0.00    +0.000 C 
ATOM      4  C   UNL     1       1.751   3.207  19.573  0.00  0.00    +0.000 C 
ATOM      5  C   UNL     1       2.807   4.024  20.306  0.00  0.00    +0.000 C 
ATOM      6  C   UNL     1       2.764   5.510  19.944  0.00  0.00    +0.000 C 
ENDROOT
BRANCH   1  10
ATOM      7  C   UNL     1       6.392   5.025  16.036  0.00  0.00    +0.000 A 
ATOM      8  C   UNL     1       5.418   4.033  16.217  0.00  0.00    +0.000 A 
ATOM      9  C   UNL     1       4.263   4.277  16.977  0.00  0.00    +0.000 A 
ATOM     10  C   UNL     1       4.070   5.492  17.648  0.00  0.00    +0.000 A 
ATOM     11  C   UNL     1       5.096   6.434  17.530  0.00  0.00    +0.000 A 
ATOM     12  C   UNL     1       6.228   6.239  16.723  0.00  0.00    +0.000 A 
BRANCH   7  14
ATOM     13  C   UNL     1       7.275   4.842  13.832  0.00  0.00    +0.000 C 
ATOM     14  O   UNL     1       7.494   4.839  15.242  0.00  0.00    +0.000 OA
ENDBRANCH   7  14
BRANCH  12  15
ATOM     15  O   UNL     1       7.026   7.344  16.766  0.00  0.00    +0.000 OA
ATOM     16  C   UNL     1       7.833   7.610  17.896  0.00  0.00    +0.000 C 
ENDBRANCH  12  15
ENDBRANCH   1  10
BRANCH   1  17
ATOM     17  C   UNL     1       2.524   7.374  18.272  0.00  0.00    +0.000 C 
BRANCH  17  18
ATOM     18  N   UNL     1       1.796   7.967  19.407  0.00  0.00    +0.000 N 
ATOM     19  C   UNL     1       1.169   9.192  19.339  0.00  0.00    +0.000 C 
ATOM     20  O   UNL     1       1.073   9.839  18.306  0.00  0.00    +0.000 OA
ATOM     21  H   UNL     1       1.780   7.452  20.277  0.00  0.00    +0.000 HD
BRANCH  19  22
ATOM     22  C   UNL     1       0.556   9.710  20.608  0.00  0.00    +0.000 A 
ATOM     23  C   UNL     1       0.100   8.775  21.556  0.00  0.00    +0.000 A 
ATOM     24  C   UNL     1      -0.515   9.193  22.743  0.00  0.00    +0.000 A 
ATOM     25  C   UNL     1      -0.689  10.549  22.993  0.00  0.00    +0.000 A 
ATOM     26  C   UNL     1      -0.253  11.491  22.054  0.00  0.00    +0.000 A 
ATOM     27  C   UNL     1       0.377  11.076  20.859  0.00  0.00    +0.000 A 
BRANCH  26  28
ATOM     28  N   UNL     1      -0.474  12.917  22.314  0.00  0.00    +0.000 N 
ATOM     29  O   UNL     1      -1.311  13.228  23.172  0.00  0.00    +0.000 OA
ATOM     30  O   UNL     1       0.192  13.728  21.654  0.00  0.00    +0.000 OA
ENDBRANCH  26  28
ENDBRANCH  19  22
ENDBRANCH  17  18
ENDBRANCH   1  17
TORSDOF 7
ENDMDL
MODEL 5
REMARK VINA RESULT:      -8.2      2.726      8.568
REMARK  Name = 
REMARK  9 active torsions:
REMARK  status: ('A' for Active; 'I' for Inactive)
REMARK    1  A    between atoms: C_1  and  O_2
REMARK    2  A    between atoms: O_2  and  C_3
REMARK    3  A    between atoms: C_6  and  C_7
REMARK    4  A    between atoms: C_7  and  C_8
REMARK    5  A    between atoms: C_8  and  N_9
REMARK    6  A    between atoms: C_10  and  C_12
REMARK    7  A    between atoms: C_16  and  N_17
REMARK    8  A    between atoms: C_27  and  O_28
REMARK    9  A    between atoms: O_28  and  C_29
REMARK                            x       y       z     vdW  Elec       q    Type
REMARK                         _______ _______ _______ _____ _____    ______ ____
ROOT
ATOM      1  C   UNL     1       3.172   4.959  18.881  0.00  0.00    +0.000 C 
ATOM      2  C   UNL     1       1.777   5.148  18.207  0.00  0.00    +0.000 C 
ATOM      3  C   UNL     1       1.298   3.854  17.530  0.00  0.00    +0.000 C 
ATOM      4  C   UNL     1       1.124   2.737  18.550  0.00  0.00    +0.000 C 
ATOM      5  C   UNL     1       2.388   2.513  19.370  0.00  0.00    +0.000 C 
ATOM      6  C   UNL     1       2.972   3.812  19.927  0.00  0.00    +0.000 C 
ENDROOT
BRANCH   1  10
ATOM      7  C   UNL     1       6.131   4.438  15.657  0.00  0.00    +0.000 A 
ATOM      8  C   UNL     1       5.243   3.406  15.991  0.00  0.00    +0.000 A 
ATOM      9  C   UNL     1       4.301   3.561  17.021  0.00  0.00    +0.000 A 
ATOM     10  C   UNL     1       4.258   4.721  17.806  0.00  0.00    +0.000 A 
ATOM     11  C   UNL     1       5.213   5.699  17.517  0.00  0.00    +0.000 A 
ATOM     12  C   UNL     1       6.120   5.596  16.450  0.00  0.00    +0.000 A 
BRANCH   7  14
ATOM     13  C   UNL     1       6.467   3.964  13.347  0.00  0.00    +0.000 C 
ATOM     14  O   UNL     1       7.012   4.342  14.610  0.00  0.00    +0.000 OA
ENDBRANCH   7  14
BRANCH  12  15
ATOM     15  O   UNL     1       6.889   6.720  16.383  0.00  0.00    +0.000 OA
ATOM     16  C   UNL     1       7.407   7.313  17.557  0.00  0.00    +0.000 C 
ENDBRANCH  12  15
ENDBRANCH   1  10
BRANCH   1  17
ATOM     17  C   UNL     1       3.591   6.239  19.695  0.00  0.00    +0.000 C 
BRANCH  17  18
ATOM     18  N   UNL     1       2.470   7.147  19.994  0.00  0.00    +0.000 N 
ATOM     19  C   UNL     1       2.171   8.248  19.221  0.00  0.00    +0.000 C 
ATOM     20  O   UNL     1       2.739   8.504  18.169  0.00  0.00    +0.000 OA
ATOM     21  H   UNL     1       1.916   6.957  20.816  0.00  0.00    +0.000 HD
BRANCH  19  22
ATOM     22  C   UNL     1       1.064   9.137  19.711  0.00  0.00    +0.000 A 
ATOM     23  C   UNL     1       0.338   9.880  18.760  0.00  0.00    +0.000 A 
ATOM     24  C   UNL     1      -0.681  10.755  19.155  0.00  0.00    +0.000 A 
ATOM     25  C   UNL     1      -0.983  10.906  20.504  0.00  0.00    +0.000 A 
ATOM     26  C   UNL     1      -0.261  10.184  21.462  0.00  0.00    +0.000 A 
ATOM     27  C   UNL     1       0.761   9.292  21.070  0.00  0.00    +0.000 A 
BRANCH  26  28
ATOM     28  N   UNL     1      -0.566  10.378  22.883  0.00  0.00    +0.000 N 
ATOM     29  O   UNL     1      -1.539  11.084  23.177  0.00  0.00    +0.000 OA
ATOM     30  O   UNL     1       0.175   9.821  23.707  0.00  0.00    +0.000 OA
ENDBRANCH  26  28
ENDBRANCH  19  22
ENDBRANCH  17  18
ENDBRANCH   1  17
TORSDOF 7
ENDMDL
MODEL 6
REMARK VINA RESULT:      -8.1      3.796      8.007
REMARK  Name = 
REMARK  9 active torsions:
REMARK  status: ('A' for Active; 'I' for Inactive)
REMARK    1  A    between atoms: C_1  and  O_2
REMARK    2  A    between atoms: O_2  and  C_3
REMARK    3  A    between atoms: C_6  and  C_7
REMARK    4  A    between atoms: C_7  and  C_8
REMARK    5  A    between atoms: C_8  and  N_9
REMARK    6  A    between atoms: C_10  and  C_12
REMARK    7  A    between atoms: C_16  and  N_17
REMARK    8  A    between atoms: C_27  and  O_28
REMARK    9  A    between atoms: O_28  and  C_29
REMARK                            x       y       z     vdW  Elec       q    Type
REMARK                         _______ _______ _______ _____ _____    ______ ____
ROOT
ATOM      1  C   UNL     1       3.068   4.522  19.297  0.00  0.00    +0.000 C 
ATOM      2  C   UNL     1       1.880   4.274  18.316  0.00  0.00    +0.000 C 
ATOM      3  C   UNL     1       2.249   3.244  17.235  0.00  0.00    +0.000 C 
ATOM      4  C   UNL     1       2.570   1.892  17.858  0.00  0.00    +0.000 C 
ATOM      5  C   UNL     1       3.649   2.000  18.927  0.00  0.00    +0.000 C 
ATOM      6  C   UNL     1       3.381   3.125  19.929  0.00  0.00    +0.000 C 
ENDROOT
BRANCH   1  10
ATOM      7  C   UNL     1       6.436   6.645  17.408  0.00  0.00    +0.000 A 
ATOM      8  C   UNL     1       5.116   6.899  17.014  0.00  0.00    +0.000 A 
ATOM      9  C   UNL     1       4.036   6.223  17.606  0.00  0.00    +0.000 A 
ATOM     10  C   UNL     1       4.237   5.215  18.559  0.00  0.00    +0.000 A 
ATOM     11  C   UNL     1       5.565   4.913  18.870  0.00  0.00    +0.000 A 
ATOM     12  C   UNL     1       6.658   5.620  18.342  0.00  0.00    +0.000 A 
BRANCH   7  14
ATOM     13  C   UNL     1       7.962   8.456  17.660  0.00  0.00    +0.000 C 
ATOM     14  O   UNL     1       7.504   7.340  16.899  0.00  0.00    +0.000 OA
ENDBRANCH   7  14
BRANCH  12  15
ATOM     15  O   UNL     1       7.821   5.136  18.864  0.00  0.00    +0.000 OA
ATOM     16  C   UNL     1       8.248   5.518  20.156  0.00  0.00    +0.000 C 
ENDBRANCH  12  15
ENDBRANCH   1  10
BRANCH   1  17
ATOM     17  C   UNL     1       2.640   5.463  20.484  0.00  0.00    +0.000 C 
BRANCH  17  18
ATOM     18  N   UNL     1       2.453   6.871  20.090  0.00  0.00    +0.000 N 
ATOM     19  C   UNL     1       1.426   7.654  20.571  0.00  0.00    +0.000 C 
ATOM     20  O   UNL     1       0.650   7.283  21.440  0.00  0.00    +0.000 OA
ATOM     21  H   UNL     1       3.101   7.263  19.422  0.00  0.00    +0.000 HD
BRANCH  19  22
ATOM     22  C   UNL     1       1.306   9.037  19.999  0.00  0.00    +0.000 A 
ATOM     23  C   UNL     1       1.688   9.238  18.659  0.00  0.00    +0.000 A 
ATOM     24  C   UNL     1       1.635  10.511  18.078  0.00  0.00    +0.000 A 
ATOM     25  C   UNL     1       1.209  11.600  18.829  0.00  0.00    +0.000 A 
ATOM     26  C   UNL     1       0.839  11.418  20.168  0.00  0.00    +0.000 A 
ATOM     27  C   UNL     1       0.880  10.136  20.757  0.00  0.00    +0.000 A 
BRANCH  26  28
ATOM     28  N   UNL     1       0.425  12.581  20.960  0.00  0.00    +0.000 N 
ATOM     29  O   UNL     1       0.490  13.698  20.430  0.00  0.00    +0.000 OA
ATOM     30  O   UNL     1       0.034  12.374  22.118  0.00  0.00    +0.000 OA
ENDBRANCH  26  28
ENDBRANCH  19  22
ENDBRANCH  17  18
ENDBRANCH   1  17
TORSDOF 7
ENDMDL
MODEL 7
REMARK VINA RESULT:      -8.1      2.918      8.014
REMARK  Name = 
REMARK  9 active torsions:
REMARK  status: ('A' for Active; 'I' for Inactive)
REMARK    1  A    between atoms: C_1  and  O_2
REMARK    2  A    between atoms: O_2  and  C_3
REMARK    3  A    between atoms: C_6  and  C_7
REMARK    4  A    between atoms: C_7  and  C_8
REMARK    5  A    between atoms: C_8  and  N_9
REMARK    6  A    between atoms: C_10  and  C_12
REMARK    7  A    between atoms: C_16  and  N_17
REMARK    8  A    between atoms: C_27  and  O_28
REMARK    9  A    between atoms: O_28  and  C_29
REMARK                            x       y       z     vdW  Elec       q    Type
REMARK                         _______ _______ _______ _____ _____    ______ ____
ROOT
ATOM      1  C   UNL     1       3.002   5.619  18.910  0.00  0.00    +0.000 C 
ATOM      2  C   UNL     1       1.653   5.381  18.164  0.00  0.00    +0.000 C 
ATOM      3  C   UNL     1       1.396   3.884  17.926  0.00  0.00    +0.000 C 
ATOM      4  C   UNL     1       1.284   3.134  19.247  0.00  0.00    +0.000 C 
ATOM      5  C   UNL     1       2.498   3.366  20.137  0.00  0.00    +0.000 C 
ATOM      6  C   UNL     1       2.867   4.844  20.264  0.00  0.00    +0.000 C 
ENDROOT
BRANCH   1  10
ATOM      7  C   UNL     1       6.471   4.716  16.345  0.00  0.00    +0.000 A 
ATOM      8  C   UNL     1       5.175   4.752  15.814  0.00  0.00    +0.000 A 
ATOM      9  C   UNL     1       4.062   5.032  16.625  0.00  0.00    +0.000 A 
ATOM     10  C   UNL     1       4.192   5.213  18.008  0.00  0.00    +0.000 A 
ATOM     11  C   UNL     1       5.481   5.081  18.532  0.00  0.00    +0.000 A 
ATOM     12  C   UNL     1       6.616   4.868  17.734  0.00  0.00    +0.000 A 
BRANCH   7  14
ATOM     13  C   UNL     1       7.420   4.706  14.161  0.00  0.00    +0.000 C 
ATOM     14  O   UNL     1       7.581   4.515  15.566  0.00  0.00    +0.000 OA
ENDBRANCH   7  14
BRANCH  12  15
ATOM     15  O   UNL     1       7.734   4.834  18.514  0.00  0.00    +0.000 OA
ATOM     16  C   UNL     1       7.881   5.720  19.605  0.00  0.00    +0.000 C 
ENDBRANCH  12  15
ENDBRANCH   1  10
BRANCH   1  17
ATOM     17  C   UNL     1       3.190   7.136  19.280  0.00  0.00    +0.000 C 
BRANCH  17  18
ATOM     18  N   UNL     1       1.942   7.918  19.242  0.00  0.00    +0.000 N 
ATOM     19  C   UNL     1       1.723   8.938  18.342  0.00  0.00    +0.000 C 
ATOM     20  O   UNL     1       2.498   9.211  17.436  0.00  0.00    +0.000 OA
ATOM     21  H   UNL     1       1.229   7.700  19.923  0.00  0.00    +0.000 HD
BRANCH  19  22
ATOM     22  C   UNL     1       0.444   9.710  18.493  0.00  0.00    +0.000 A 
ATOM     23  C   UNL     1       0.290  10.526  19.630  0.00  0.00    +0.000 A 
ATOM     24  C   UNL     1      -0.894  11.241  19.847  0.00  0.00    +0.000 A 
ATOM     25  C   UNL     1      -1.941  11.146  18.938  0.00  0.00    +0.000 A 
ATOM     26  C   UNL     1      -1.807  10.328  17.809  0.00  0.00    +0.000 A 
ATOM     27  C   UNL     1      -0.613   9.611  17.578  0.00  0.00    +0.000 A 
BRANCH  26  28
ATOM     28  N   UNL     1      -2.932  10.208  16.876  0.00  0.00    +0.000 N 
ATOM     29  O   UNL     1      -4.049  10.577  17.261  0.00  0.00    +0.000 OA
ATOM     30  O   UNL     1      -2.694   9.740  15.752  0.00  0.00    +0.000 OA
ENDBRANCH  26  28
ENDBRANCH  19  22
ENDBRANCH  17  18
ENDBRANCH   1  17
TORSDOF 7
ENDMDL
MODEL 8
REMARK VINA RESULT:      -8.0      1.895      2.261
REMARK  Name = 
REMARK  9 active torsions:
REMARK  status: ('A' for Active; 'I' for Inactive)
REMARK    1  A    between atoms: C_1  and  O_2
REMARK    2  A    between atoms: O_2  and  C_3
REMARK    3  A    between atoms: C_6  and  C_7
REMARK    4  A    between atoms: C_7  and  C_8
REMARK    5  A    between atoms: C_8  and  N_9
REMARK    6  A    between atoms: C_10  and  C_12
REMARK    7  A    between atoms: C_16  and  N_17
REMARK    8  A    between atoms: C_27  and  O_28
REMARK    9  A    between atoms: O_28  and  C_29
REMARK                            x       y       z     vdW  Elec       q    Type
REMARK                         _______ _______ _______ _____ _____    ______ ____
ROOT
ATOM      1  C   UNL     1       3.133   4.991  19.386  0.00  0.00    +0.000 C 
ATOM      2  C   UNL     1       2.716   4.316  20.730  0.00  0.00    +0.000 C 
ATOM      3  C   UNL     1       1.194   4.115  20.811  0.00  0.00    +0.000 C 
ATOM      4  C   UNL     1       0.708   3.186  19.706  0.00  0.00    +0.000 C 
ATOM      5  C   UNL     1       1.143   3.667  18.328  0.00  0.00    +0.000 C 
ATOM      6  C   UNL     1       2.629   4.023  18.264  0.00  0.00    +0.000 C 
ENDROOT
BRANCH   1  10
ATOM      7  C   UNL     1       1.366   9.024  19.190  0.00  0.00    +0.000 A 
ATOM      8  C   UNL     1       2.087   8.502  18.107  0.00  0.00    +0.000 A 
ATOM      9  C   UNL     1       2.659   7.220  18.163  0.00  0.00    +0.000 A 
ATOM     10  C   UNL     1       2.599   6.441  19.326  0.00  0.00    +0.000 A 
ATOM     11  C   UNL     1       1.956   7.018  20.425  0.00  0.00    +0.000 A 
ATOM     12  C   UNL     1       1.319   8.268  20.373  0.00  0.00    +0.000 A 
BRANCH   7  14
ATOM     13  C   UNL     1      -0.674  10.224  18.928  0.00  0.00    +0.000 C 
ATOM     14  O   UNL     1       0.737  10.241  19.138  0.00  0.00    +0.000 OA
ENDBRANCH   7  14
BRANCH  12  15
ATOM     15  O   UNL     1       0.738   8.545  21.575  0.00  0.00    +0.000 OA
ATOM     16  C   UNL     1       1.391   9.365  22.523  0.00  0.00    +0.000 C 
ENDBRANCH  12  15
ENDBRANCH   1  10
BRANCH   1  17
ATOM     17  C   UNL     1       4.699   5.062  19.245  0.00  0.00    +0.000 C 
BRANCH  17  18
ATOM     18  N   UNL     1       5.192   4.712  17.902  0.00  0.00    +0.000 N 
ATOM     19  C   UNL     1       5.758   5.633  17.047  0.00  0.00    +0.000 C 
ATOM     20  O   UNL     1       5.995   6.789  17.368  0.00  0.00    +0.000 OA
ATOM     21  H   UNL     1       5.087   3.755  17.596  0.00  0.00    +0.000 HD
BRANCH  19  22
ATOM     22  C   UNL     1       6.119   5.148  15.673  0.00  0.00    +0.000 A 
ATOM     23  C   UNL     1       5.518   3.964  15.207  0.00  0.00    +0.000 A 
ATOM     24  C   UNL     1       5.841   3.438  13.950  0.00  0.00    +0.000 A 
ATOM     25  C   UNL     1       6.773   4.084  13.146  0.00  0.00    +0.000 A 
ATOM     26  C   UNL     1       7.389   5.256  13.601  0.00  0.00    +0.000 A 
ATOM     27  C   UNL     1       7.061   5.797  14.864  0.00  0.00    +0.000 A 
BRANCH  26  28
ATOM     28  N   UNL     1       8.397   5.909  12.759  0.00  0.00    +0.000 N 
ATOM     29  O   UNL     1       8.037   6.349  11.659  0.00  0.00    +0.000 OA
ATOM     30  O   UNL     1       9.553   5.979  13.201  0.00  0.00    +0.000 OA
ENDBRANCH  26  28
ENDBRANCH  19  22
ENDBRANCH  17  18
ENDBRANCH   1  17
TORSDOF 7
ENDMDL
MODEL 9
REMARK VINA RESULT:      -8.0      1.179      1.851
REMARK  Name = 
REMARK  9 active torsions:
REMARK  status: ('A' for Active; 'I' for Inactive)
REMARK    1  A    between atoms: C_1  and  O_2
REMARK    2  A    between atoms: O_2  and  C_3
REMARK    3  A    between atoms: C_6  and  C_7
REMARK    4  A    between atoms: C_7  and  C_8
REMARK    5  A    between atoms: C_8  and  N_9
REMARK    6  A    between atoms: C_10  and  C_12
REMARK    7  A    between atoms: C_16  and  N_17
REMARK    8  A    between atoms: C_27  and  O_28
REMARK    9  A    between atoms: O_28  and  C_29
REMARK                            x       y       z     vdW  Elec       q    Type
REMARK                         _______ _______ _______ _____ _____    ______ ____
ROOT
ATOM      1  C   UNL     1       3.667   4.748  18.500  0.00  0.00    +0.000 C 
ATOM      2  C   UNL     1       3.626   3.616  19.573  0.00  0.00    +0.000 C 
ATOM      3  C   UNL     1       2.205   3.059  19.750  0.00  0.00    +0.000 C 
ATOM      4  C   UNL     1       1.700   2.431  18.457  0.00  0.00    +0.000 C 
ATOM      5  C   UNL     1       1.787   3.399  17.284  0.00  0.00    +0.000 C 
ATOM      6  C   UNL     1       3.150   4.085  17.180  0.00  0.00    +0.000 C 
ENDROOT
BRANCH   1  10
ATOM      7  C   UNL     1       1.657   8.402  19.926  0.00  0.00    +0.000 A 
ATOM      8  C   UNL     1       1.820   7.296  20.771  0.00  0.00    +0.000 A 
ATOM      9  C   UNL     1       2.454   6.125  20.323  0.00  0.00    +0.000 A 
ATOM     10  C   UNL     1       2.881   5.985  18.996  0.00  0.00    +0.000 A 
ATOM     11  C   UNL     1       2.625   7.064  18.146  0.00  0.00    +0.000 A 
ATOM     12  C   UNL     1       2.055   8.270  18.586  0.00  0.00    +0.000 A 
BRANCH   7  14
ATOM     13  C   UNL     1      -0.288   9.567  20.655  0.00  0.00    +0.000 C 
ATOM     14  O   UNL     1       1.107   9.583  20.356  0.00  0.00    +0.000 OA
ENDBRANCH   7  14
BRANCH  12  15
ATOM     15  O   UNL     1       1.976   9.153  17.550  0.00  0.00    +0.000 OA
ATOM     16  C   UNL     1       1.982  10.547  17.785  0.00  0.00    +0.000 C 
ENDBRANCH  12  15
ENDBRANCH   1  10
BRANCH   1  17
ATOM     17  C   UNL     1       5.144   5.214  18.218  0.00  0.00    +0.000 C 
BRANCH  17  18
ATOM     18  N   UNL     1       5.655   4.805  16.898  0.00  0.00    +0.000 N 
ATOM     19  C   UNL     1       5.699   5.656  15.814  0.00  0.00    +0.000 C 
ATOM     20  O   UNL     1       5.419   6.844  15.883  0.00  0.00    +0.000 OA
ATOM     21  H   UNL     1       5.966   3.851  16.788  0.00  0.00    +0.000 HD
BRANCH  19  22
ATOM     22  C   UNL     1       6.150   5.066  14.509  0.00  0.00    +0.000 A 
ATOM     23  C   UNL     1       7.371   5.508  13.966  0.00  0.00    +0.000 A 
ATOM     24  C   UNL     1       7.828   5.024  12.734  0.00  0.00    +0.000 A 
ATOM     25  C   UNL     1       7.069   4.100  12.026  0.00  0.00    +0.000 A 
ATOM     26  C   UNL     1       5.846   3.660  12.547  0.00  0.00    +0.000 A 
ATOM     27  C   UNL     1       5.384   4.137  13.793  0.00  0.00    +0.000 A 
BRANCH  26  28
ATOM     28  N   UNL     1       5.038   2.712  11.774  0.00  0.00    +0.000 N 
ATOM     29  O   UNL     1       5.568   1.649  11.423  0.00  0.00    +0.000 OA
ATOM     30  O   UNL     1       3.870   3.035  11.516  0.00  0.00    +0.000 OA
ENDBRANCH  26  28
ENDBRANCH  19  22
ENDBRANCH  17  18
ENDBRANCH   1  17
TORSDOF 7
ENDMDL
