MODEL 1
REMARK VINA RESULT:      -8.2      0.000      0.000
REMARK  Name = 
REMARK  14 active torsions:
REMARK  status: ('A' for Active; 'I' for Inactive)
REMARK    1  A    between atoms: C_1  and  C_2
REMARK    2  A    between atoms: C_2  and  C_3
REMARK    3  A    between atoms: C_2  and  C_14
REMARK    4  A    between atoms: N_5  and  C_6
REMARK    5  A    between atoms: N_5  and  C_7
REMARK    6  A    between atoms: C_7  and  C_8
REMARK    7  A    between atoms: C_17  and  C_18
REMARK    8  A    between atoms: C_18  and  C_19
REMARK    9  A    between atoms: C_19  and  C_20
REMARK   10  A    between atoms: C_19  and  N_21
REMARK   11  A    between atoms: C_23  and  C_24
REMARK   12  A    between atoms: C_25  and  C_26
REMARK   13  A    between atoms: C_26  and  O_27
REMARK   14  A    between atoms: O_27  and  C_28
REMARK                            x       y       z     vdW  Elec       q    Type
REMARK                         _______ _______ _______ _____ _____    ______ ____
ROOT
ATOM      1  C   UNL     1       3.095   3.540  20.075  0.00  0.00    +0.000 C 
ATOM      2  C   UNL     1       2.883   2.095  19.646  0.00  0.00    +0.000 C 
ATOM      3  C   UNL     1       3.439   2.016  18.241  0.00  0.00    +0.000 C 
ATOM      4  C   UNL     1       4.468   3.140  18.204  0.00  0.00    +0.000 C 
ATOM      5  O   UNL     1       4.177   4.046  19.283  0.00  0.00    +0.000 OA
ENDROOT
BRANCH   1   7
ATOM      6  C   UNL     1       0.577   3.766  19.945  0.00  0.00    +0.000 C 
ATOM      7  C   UNL     1       1.896   4.532  20.045  0.00  0.00    +0.000 C 
BRANCH   7   8
ATOM      8  C   UNL     1       1.989   5.571  18.924  0.00  0.00    +0.000 C 
ATOM      9  O   UNL     1       1.882   5.232  17.746  0.00  0.00    +0.000 OA
ATOM     10  N   UNL     1       2.153   6.915  19.211  0.00  0.00    +0.000 N 
ATOM     11  C   UNL     1       2.014   7.539  20.514  0.00  0.00    +0.000 C 
BRANCH  10  12
ATOM     12  C   UNL     1       2.313   7.819  18.065  0.00  0.00    +0.000 C 
BRANCH  12  13
ATOM     13  C   UNL     1       1.661   9.179  18.225  0.00  0.00    +0.000 A 
ATOM     14  C   UNL     1       2.376  10.385  18.255  0.00  0.00    +0.000 A 
ATOM     15  C   UNL     1       1.711  11.608  18.380  0.00  0.00    +0.000 A 
ATOM     16  C   UNL     1       0.323  11.644  18.481  0.00  0.00    +0.000 A 
ATOM     17  C   UNL     1      -0.403  10.457  18.457  0.00  0.00    +0.000 A 
ATOM     18  C   UNL     1       0.260   9.235  18.328  0.00  0.00    +0.000 A 
ENDBRANCH  12  13
ENDBRANCH  10  12
ENDBRANCH   7   8
ENDBRANCH   1   7
BRANCH   4  19
ATOM     19  C   UNL     1       4.532   3.935  16.893  0.00  0.00    +0.000 C 
BRANCH  19  20
ATOM     20  C   UNL     1       5.953   4.223  16.357  0.00  0.00    +0.000 C 
ATOM     21  C   UNL     1       6.057   4.574  14.868  0.00  0.00    +0.000 C 
BRANCH  20  22
ATOM     22  N   UNL     1       6.634   5.224  17.163  0.00  0.00    +0.000 N 
ATOM     23  C   UNL     1       6.723   6.561  16.926  0.00  0.00    +0.000 A 
ATOM     24  C   UNL     1       7.610   6.983  17.874  0.00  0.00    +0.000 A 
ATOM     25  N   UNL     1       7.992   5.949  18.671  0.00  0.00    +0.000 NA
ATOM     26  N   UNL     1       7.373   4.859  18.229  0.00  0.00    +0.000 NA
BRANCH  24  27
ATOM     27  C   UNL     1       8.105   8.292  18.025  0.00  0.00    +0.000 C 
ATOM     28  C   UNL     1       8.539   9.514  18.151  0.00  0.00    +0.000 C 
BRANCH  28  29
ATOM     29  C   UNL     1       9.046  10.940  18.299  0.00  0.00    +0.000 C 
BRANCH  29  30
ATOM     30  O   UNL     1       9.720  11.062  19.547  0.00  0.00    +0.000 OA
BRANCH  30  31
ATOM     31  C   UNL     1       9.494  12.229  20.222  0.00  0.00    +0.000 A 
ATOM     32  C   UNL     1       9.002  13.276  19.442  0.00  0.00    +0.000 A 
ATOM     33  C   UNL     1       8.732  14.521  20.018  0.00  0.00    +0.000 A 
ATOM     34  C   UNL     1       8.930  14.710  21.389  0.00  0.00    +0.000 A 
ATOM     35  C   UNL     1       9.395  13.659  22.171  0.00  0.00    +0.000 A 
ATOM     36  C   UNL     1       9.676  12.418  21.595  0.00  0.00    +0.000 A 
ENDBRANCH  30  31
ENDBRANCH  29  30
ENDBRANCH  28  29
ENDBRANCH  24  27
ENDBRANCH  20  22
ENDBRANCH  19  20
ENDBRANCH   4  19
TORSDOF 11
ENDMDL
MODEL 2
REMARK VINA RESULT:      -8.2      1.695      2.312
REMARK  Name = 
REMARK  14 active torsions:
REMARK  status: ('A' for Active; 'I' for Inactive)
REMARK    1  A    between atoms: C_1  and  C_2
REMARK    2  A    between atoms: C_2  and  C_3
REMARK    3  A    between atoms: C_2  and  C_14
REMARK    4  A    between atoms: N_5  and  C_6
REMARK    5  A    between atoms: N_5  and  C_7
REMARK    6  A    between atoms: C_7  and  C_8
REMARK    7  A    between atoms: C_17  and  C_18
REMARK    8  A    between atoms: C_18  and  C_19
REMARK    9  A    between atoms: C_19  and  C_20
REMARK   10  A    between atoms: C_19  and  N_21
REMARK   11  A    between atoms: C_23  and  C_24
REMARK   12  A    between atoms: C_25  and  C_26
REMARK   13  A    between atoms: C_26  and  O_27
REMARK   14  A    between atoms: O_27  and  C_28
REMARK                            x       y       z     vdW  Elec       q    Type
REMARK                         _______ _______ _______ _____ _____    ______ ____
ROOT
ATOM      1  C   UNL     1       3.307   2.199  18.666  0.00  0.00    +0.000 C 
ATOM      2  C   UNL     1       1.935   2.533  18.095  0.00  0.00    +0.000 C 
ATOM      3  C   UNL     1       2.199   3.559  17.015  0.00  0.00    +0.000 C 
ATOM      4  C   UNL     1       3.637   3.271  16.596  0.00  0.00    +0.000 C 
ATOM      5  O   UNL     1       4.261   2.509  17.644  0.00  0.00    +0.000 OA
ENDROOT
BRANCH   1   7
ATOM      6  C   UNL     1       3.881   1.744  21.090  0.00  0.00    +0.000 C 
ATOM      7  C   UNL     1       3.745   2.828  20.021  0.00  0.00    +0.000 C 
BRANCH   7   8
ATOM      8  C   UNL     1       2.811   3.939  20.511  0.00  0.00    +0.000 C 
ATOM      9  O   UNL     1       1.865   3.679  21.253  0.00  0.00    +0.000 OA
ATOM     10  N   UNL     1       3.034   5.260  20.164  0.00  0.00    +0.000 N 
ATOM     11  C   UNL     1       4.234   5.798  19.549  0.00  0.00    +0.000 C 
BRANCH  10  12
ATOM     12  C   UNL     1       2.036   6.238  20.617  0.00  0.00    +0.000 C 
BRANCH  12  13
ATOM     13  C   UNL     1       1.892   7.463  19.734  0.00  0.00    +0.000 A 
ATOM     14  C   UNL     1       2.319   7.514  18.400  0.00  0.00    +0.000 A 
ATOM     15  C   UNL     1       2.134   8.668  17.633  0.00  0.00    +0.000 A 
ATOM     16  C   UNL     1       1.522   9.789  18.189  0.00  0.00    +0.000 A 
ATOM     17  C   UNL     1       1.095   9.757  19.514  0.00  0.00    +0.000 A 
ATOM     18  C   UNL     1       1.277   8.604  20.279  0.00  0.00    +0.000 A 
ENDBRANCH  12  13
ENDBRANCH  10  12
ENDBRANCH   7   8
ENDBRANCH   1   7
BRANCH   4  19
ATOM     19  C   UNL     1       4.498   4.506  16.298  0.00  0.00    +0.000 C 
BRANCH  19  20
ATOM     20  C   UNL     1       6.023   4.261  16.260  0.00  0.00    +0.000 C 
ATOM     21  C   UNL     1       6.691   4.360  14.883  0.00  0.00    +0.000 C 
BRANCH  20  22
ATOM     22  N   UNL     1       6.722   5.097  17.223  0.00  0.00    +0.000 N 
ATOM     23  C   UNL     1       6.899   6.445  17.179  0.00  0.00    +0.000 A 
ATOM     24  C   UNL     1       7.763   6.676  18.209  0.00  0.00    +0.000 A 
ATOM     25  N   UNL     1       8.048   5.520  18.868  0.00  0.00    +0.000 NA
ATOM     26  N   UNL     1       7.388   4.543  18.255  0.00  0.00    +0.000 NA
BRANCH  24  27
ATOM     27  C   UNL     1       8.325   7.918  18.561  0.00  0.00    +0.000 C 
ATOM     28  C   UNL     1       8.825   9.070  18.907  0.00  0.00    +0.000 C 
BRANCH  28  29
ATOM     29  C   UNL     1       9.409  10.415  19.312  0.00  0.00    +0.000 C 
BRANCH  29  30
ATOM     30  O   UNL     1       9.842  11.099  18.140  0.00  0.00    +0.000 OA
BRANCH  30  31
ATOM     31  C   UNL     1       9.945  12.457  18.261  0.00  0.00    +0.000 A 
ATOM     32  C   UNL     1      11.036  12.901  19.009  0.00  0.00    +0.000 A 
ATOM     33  C   UNL     1      11.250  14.269  19.205  0.00  0.00    +0.000 A 
ATOM     34  C   UNL     1      10.380  15.198  18.625  0.00  0.00    +0.000 A 
ATOM     35  C   UNL     1       9.308  14.756  17.859  0.00  0.00    +0.000 A 
ATOM     36  C   UNL     1       9.087  13.390  17.672  0.00  0.00    +0.000 A 
ENDBRANCH  30  31
ENDBRANCH  29  30
ENDBRANCH  28  29
ENDBRANCH  24  27
ENDBRANCH  20  22
ENDBRANCH  19  20
ENDBRANCH   4  19
TORSDOF 11
ENDMDL
MODEL 3
REMARK VINA RESULT:      -7.9      1.267      1.603
REMARK  Name = 
REMARK  14 active torsions:
REMARK  status: ('A' for Active; 'I' for Inactive)
REMARK    1  A    between atoms: C_1  and  C_2
REMARK    2  A    between atoms: C_2  and  C_3
REMARK    3  A    between atoms: C_2  and  C_14
REMARK    4  A    between atoms: N_5  and  C_6
REMARK    5  A    between atoms: N_5  and  C_7
REMARK    6  A    between atoms: C_7  and  C_8
REMARK    7  A    between atoms: C_17  and  C_18
REMARK    8  A    between atoms: C_18  and  C_19
REMARK    9  A    between atoms: C_19  and  C_20
REMARK   10  A    between atoms: C_19  and  N_21
REMARK   11  A    between atoms: C_23  and  C_24
REMARK   12  A    between atoms: C_25  and  C_26
REMARK   13  A    between atoms: C_26  and  O_27
REMARK   14  A    between atoms: O_27  and  C_28
REMARK                            x       y       z     vdW  Elec       q    Type
REMARK                         _______ _______ _______ _____ _____    ______ ____
ROOT
ATOM      1  C   UNL     1       3.214   3.777  20.206  0.00  0.00    +0.000 C 
ATOM      2  C   UNL     1       3.161   2.258  20.121  0.00  0.00    +0.000 C 
ATOM      3  C   UNL     1       3.630   1.926  18.721  0.00  0.00    +0.000 C 
ATOM      4  C   UNL     1       4.502   3.120  18.348  0.00  0.00    +0.000 C 
ATOM      5  O   UNL     1       4.168   4.208  19.227  0.00  0.00    +0.000 OA
ENDROOT
BRANCH   1   7
ATOM      6  C   UNL     1       0.719   3.666  19.792  0.00  0.00    +0.000 C 
ATOM      7  C   UNL     1       1.898   4.597  20.072  0.00  0.00    +0.000 C 
BRANCH   7   8
ATOM      8  C   UNL     1       1.967   5.697  19.009  0.00  0.00    +0.000 C 
ATOM      9  O   UNL     1       1.839   5.424  17.816  0.00  0.00    +0.000 OA
ATOM     10  N   UNL     1       2.133   7.024  19.367  0.00  0.00    +0.000 N 
ATOM     11  C   UNL     1       2.017   7.575  20.704  0.00  0.00    +0.000 C 
BRANCH  10  12
ATOM     12  C   UNL     1       2.269   7.990  18.270  0.00  0.00    +0.000 C 
BRANCH  12  13
ATOM     13  C   UNL     1       1.608   9.334  18.512  0.00  0.00    +0.000 A 
ATOM     14  C   UNL     1       2.160  10.556  18.105  0.00  0.00    +0.000 A 
ATOM     15  C   UNL     1       1.487  11.759  18.338  0.00  0.00    +0.000 A 
ATOM     16  C   UNL     1       0.253  11.758  18.985  0.00  0.00    +0.000 A 
ATOM     17  C   UNL     1      -0.308  10.554  19.400  0.00  0.00    +0.000 A 
ATOM     18  C   UNL     1       0.362   9.352  19.164  0.00  0.00    +0.000 A 
ENDBRANCH  12  13
ENDBRANCH  10  12
ENDBRANCH   7   8
ENDBRANCH   1   7
BRANCH   4  19
ATOM     19  C   UNL     1       4.378   3.599  16.895  0.00  0.00    +0.000 C 
BRANCH  19  20
ATOM     20  C   UNL     1       5.694   4.066  16.233  0.00  0.00    +0.000 C 
ATOM     21  C   UNL     1       5.829   3.794  14.730  0.00  0.00    +0.000 C 
BRANCH  20  22
ATOM     22  N   UNL     1       5.970   5.464  16.522  0.00  0.00    +0.000 N 
ATOM     23  C   UNL     1       7.147   6.011  16.929  0.00  0.00    +0.000 A 
ATOM     24  C   UNL     1       6.802   7.298  17.225  0.00  0.00    +0.000 A 
ATOM     25  N   UNL     1       5.487   7.519  16.958  0.00  0.00    +0.000 NA
ATOM     26  N   UNL     1       4.977   6.375  16.511  0.00  0.00    +0.000 NA
BRANCH  24  27
ATOM     27  C   UNL     1       7.653   8.286  17.757  0.00  0.00    +0.000 C 
ATOM     28  C   UNL     1       8.460   9.178  18.255  0.00  0.00    +0.000 C 
BRANCH  28  29
ATOM     29  C   UNL     1       9.402  10.221  18.838  0.00  0.00    +0.000 C 
BRANCH  29  30
ATOM     30  O   UNL     1       9.213  11.450  18.144  0.00  0.00    +0.000 OA
BRANCH  30  31
ATOM     31  C   UNL     1      10.132  12.424  18.420  0.00  0.00    +0.000 A 
ATOM     32  C   UNL     1       9.637  13.519  19.129  0.00  0.00    +0.000 A 
ATOM     33  C   UNL     1      10.480  14.580  19.471  0.00  0.00    +0.000 A 
ATOM     34  C   UNL     1      11.834  14.532  19.123  0.00  0.00    +0.000 A 
ATOM     35  C   UNL     1      12.332  13.430  18.439  0.00  0.00    +0.000 A 
ATOM     36  C   UNL     1      11.489  12.374  18.087  0.00  0.00    +0.000 A 
ENDBRANCH  30  31
ENDBRANCH  29  30
ENDBRANCH  28  29
ENDBRANCH  24  27
ENDBRANCH  20  22
ENDBRANCH  19  20
ENDBRANCH   4  19
TORSDOF 11
ENDMDL
MODEL 4
REMARK VINA RESULT:      -7.8      1.795      2.475
REMARK  Name = 
REMARK  14 active torsions:
REMARK  status: ('A' for Active; 'I' for Inactive)
REMARK    1  A    between atoms: C_1  and  C_2
REMARK    2  A    between atoms: C_2  and  C_3
REMARK    3  A    between atoms: C_2  and  C_14
REMARK    4  A    between atoms: N_5  and  C_6
REMARK    5  A    between atoms: N_5  and  C_7
REMARK    6  A    between atoms: C_7  and  C_8
REMARK    7  A    between atoms: C_17  and  C_18
REMARK    8  A    between atoms: C_18  and  C_19
REMARK    9  A    between atoms: C_19  and  C_20
REMARK   10  A    between atoms: C_19  and  N_21
REMARK   11  A    between atoms: C_23  and  C_24
REMARK   12  A    between atoms: C_25  and  C_26
REMARK   13  A    between atoms: C_26  and  O_27
REMARK   14  A    between atoms: O_27  and  C_28
REMARK                            x       y       z     vdW  Elec       q    Type
REMARK                         _______ _______ _______ _____ _____    ______ ____
ROOT
ATOM      1  C   UNL     1       2.542   5.719  19.810  0.00  0.00    +0.000 C 
ATOM      2  C   UNL     1       1.648   4.490  19.890  0.00  0.00    +0.000 C 
ATOM      3  C   UNL     1       2.039   3.641  18.700  0.00  0.00    +0.000 C 
ATOM      4  C   UNL     1       3.478   4.063  18.422  0.00  0.00    +0.000 C 
ATOM      5  O   UNL     1       3.700   5.333  19.059  0.00  0.00    +0.000 OA
ENDROOT
BRANCH   1   7
ATOM      6  C   UNL     1       2.916   7.662  18.230  0.00  0.00    +0.000 C 
ATOM      7  C   UNL     1       1.962   7.053  19.257  0.00  0.00    +0.000 C 
BRANCH   7   8
ATOM      8  C   UNL     1       1.636   8.078  20.348  0.00  0.00    +0.000 C 
ATOM      9  O   UNL     1       1.784   7.796  21.536  0.00  0.00    +0.000 OA
ATOM     10  N   UNL     1       1.209   9.353  20.022  0.00  0.00    +0.000 N 
ATOM     11  C   UNL     1       1.247   9.962  18.705  0.00  0.00    +0.000 C 
BRANCH  10  12
ATOM     12  C   UNL     1       0.845  10.233  21.140  0.00  0.00    +0.000 C 
BRANCH  12  13
ATOM     13  C   UNL     1       0.085  11.487  20.749  0.00  0.00    +0.000 A 
ATOM     14  C   UNL     1       0.576  12.785  20.945  0.00  0.00    +0.000 A 
ATOM     15  C   UNL     1      -0.164  13.899  20.540  0.00  0.00    +0.000 A 
ATOM     16  C   UNL     1      -1.408  13.732  19.935  0.00  0.00    +0.000 A 
ATOM     17  C   UNL     1      -1.912  12.450  19.736  0.00  0.00    +0.000 A 
ATOM     18  C   UNL     1      -1.172  11.337  20.137  0.00  0.00    +0.000 A 
ENDBRANCH  12  13
ENDBRANCH  10  12
ENDBRANCH   7   8
ENDBRANCH   1   7
BRANCH   4  19
ATOM     19  C   UNL     1       3.858   4.176  16.940  0.00  0.00    +0.000 C 
BRANCH  19  20
ATOM     20  C   UNL     1       5.355   3.967  16.618  0.00  0.00    +0.000 C 
ATOM     21  C   UNL     1       5.728   3.923  15.131  0.00  0.00    +0.000 C 
BRANCH  20  22
ATOM     22  N   UNL     1       6.191   4.925  17.323  0.00  0.00    +0.000 N 
ATOM     23  C   UNL     1       6.307   6.259  17.084  0.00  0.00    +0.000 A 
ATOM     24  C   UNL     1       7.342   6.627  17.896  0.00  0.00    +0.000 A 
ATOM     25  N   UNL     1       7.787   5.567  18.621  0.00  0.00    +0.000 NA
ATOM     26  N   UNL     1       7.060   4.512  18.267  0.00  0.00    +0.000 NA
BRANCH  24  27
ATOM     27  C   UNL     1       7.914   7.911  17.982  0.00  0.00    +0.000 C 
ATOM     28  C   UNL     1       8.425   9.105  18.083  0.00  0.00    +0.000 C 
BRANCH  28  29
ATOM     29  C   UNL     1       9.021  10.499  18.202  0.00  0.00    +0.000 C 
BRANCH  29  30
ATOM     30  O   UNL     1       9.543  10.666  19.516  0.00  0.00    +0.000 OA
BRANCH  30  31
ATOM     31  C   UNL     1      10.126  11.877  19.763  0.00  0.00    +0.000 A 
ATOM     32  C   UNL     1       9.334  12.781  20.472  0.00  0.00    +0.000 A 
ATOM     33  C   UNL     1       9.820  14.054  20.786  0.00  0.00    +0.000 A 
ATOM     34  C   UNL     1      11.118  14.414  20.410  0.00  0.00    +0.000 A 
ATOM     35  C   UNL     1      11.917  13.505  19.727  0.00  0.00    +0.000 A 
ATOM     36  C   UNL     1      11.429  12.237  19.403  0.00  0.00    +0.000 A 
ENDBRANCH  30  31
ENDBRANCH  29  30
ENDBRANCH  28  29
ENDBRANCH  24  27
ENDBRANCH  20  22
ENDBRANCH  19  20
ENDBRANCH   4  19
TORSDOF 11
ENDMDL
MODEL 5
REMARK VINA RESULT:      -7.6      3.379     10.237
REMARK  Name = 
REMARK  14 active torsions:
REMARK  status: ('A' for Active; 'I' for Inactive)
REMARK    1  A    between atoms: C_1  and  C_2
REMARK    2  A    between atoms: C_2  and  C_3
REMARK    3  A    between atoms: C_2  and  C_14
REMARK    4  A    between atoms: N_5  and  C_6
REMARK    5  A    between atoms: N_5  and  C_7
REMARK    6  A    between atoms: C_7  and  C_8
REMARK    7  A    between atoms: C_17  and  C_18
REMARK    8  A    between atoms: C_18  and  C_19
REMARK    9  A    between atoms: C_19  and  C_20
REMARK   10  A    between atoms: C_19  and  N_21
REMARK   11  A    between atoms: C_23  and  C_24
REMARK   12  A    between atoms: C_25  and  C_26
REMARK   13  A    between atoms: C_26  and  O_27
REMARK   14  A    between atoms: O_27  and  C_28
REMARK                            x       y       z     vdW  Elec       q    Type
REMARK                         _______ _______ _______ _____ _____    ______ ____
ROOT
ATOM      1  C   UNL     1       3.295  15.256  19.431  0.00  0.00    +0.000 C 
ATOM      2  C   UNL     1       3.485  14.171  18.379  0.00  0.00    +0.000 C 
ATOM      3  C   UNL     1       2.489  13.092  18.743  0.00  0.00    +0.000 C 
ATOM      4  C   UNL     1       1.407  13.850  19.504  0.00  0.00    +0.000 C 
ATOM      5  O   UNL     1       1.963  15.104  19.937  0.00  0.00    +0.000 OA
ENDROOT
BRANCH   1   7
ATOM      6  C   UNL     1       3.946  16.546  21.510  0.00  0.00    +0.000 C 
ATOM      7  C   UNL     1       4.309  15.368  20.606  0.00  0.00    +0.000 C 
BRANCH   7   8
ATOM      8  C   UNL     1       5.766  15.482  20.149  0.00  0.00    +0.000 C 
ATOM      9  O   UNL     1       6.070  16.206  19.202  0.00  0.00    +0.000 OA
ATOM     10  N   UNL     1       6.776  14.809  20.814  0.00  0.00    +0.000 N 
ATOM     11  C   UNL     1       6.666  14.150  22.103  0.00  0.00    +0.000 C 
BRANCH  10  12
ATOM     12  C   UNL     1       8.126  14.920  20.248  0.00  0.00    +0.000 C 
BRANCH  12  13
ATOM     13  C   UNL     1       8.678  13.640  19.650  0.00  0.00    +0.000 A 
ATOM     14  C   UNL     1       9.424  12.701  20.376  0.00  0.00    +0.000 A 
ATOM     15  C   UNL     1       9.883  11.528  19.770  0.00  0.00    +0.000 A 
ATOM     16  C   UNL     1       9.607  11.278  18.428  0.00  0.00    +0.000 A 
ATOM     17  C   UNL     1       8.871  12.201  17.691  0.00  0.00    +0.000 A 
ATOM     18  C   UNL     1       8.409  13.371  18.296  0.00  0.00    +0.000 A 
ENDBRANCH  12  13
ENDBRANCH  10  12
ENDBRANCH   7   8
ENDBRANCH   1   7
BRANCH   4  19
ATOM     19  C   UNL     1       0.819  13.120  20.719  0.00  0.00    +0.000 C 
BRANCH  19  20
ATOM     20  C   UNL     1      -0.391  12.206  20.426  0.00  0.00    +0.000 C 
ATOM     21  C   UNL     1      -1.634  12.892  19.846  0.00  0.00    +0.000 C 
BRANCH  20  22
ATOM     22  N   UNL     1      -0.012  11.066  19.605  0.00  0.00    +0.000 N 
ATOM     23  C   UNL     1       0.979  10.165  19.842  0.00  0.00    +0.000 A 
ATOM     24  C   UNL     1       1.015   9.438  18.688  0.00  0.00    +0.000 A 
ATOM     25  N   UNL     1       0.054   9.857  17.822  0.00  0.00    +0.000 NA
ATOM     26  N   UNL     1      -0.589  10.865  18.404  0.00  0.00    +0.000 NA
BRANCH  24  27
ATOM     27  C   UNL     1       1.922   8.404  18.385  0.00  0.00    +0.000 C 
ATOM     28  C   UNL     1       2.782   7.468  18.101  0.00  0.00    +0.000 C 
BRANCH  28  29
ATOM     29  C   UNL     1       3.786   6.374  17.769  0.00  0.00    +0.000 C 
BRANCH  29  30
ATOM     30  O   UNL     1       3.967   5.552  18.918  0.00  0.00    +0.000 OA
BRANCH  30  31
ATOM     31  C   UNL     1       2.911   4.741  19.227  0.00  0.00    +0.000 A 
ATOM     32  C   UNL     1       2.531   3.856  18.217  0.00  0.00    +0.000 A 
ATOM     33  C   UNL     1       1.464   2.974  18.414  0.00  0.00    +0.000 A 
ATOM     34  C   UNL     1       0.790   2.961  19.639  0.00  0.00    +0.000 A 
ATOM     35  C   UNL     1       1.185   3.824  20.654  0.00  0.00    +0.000 A 
ATOM     36  C   UNL     1       2.244   4.714  20.455  0.00  0.00    +0.000 A 
ENDBRANCH  30  31
ENDBRANCH  29  30
ENDBRANCH  28  29
ENDBRANCH  24  27
ENDBRANCH  20  22
ENDBRANCH  19  20
ENDBRANCH   4  19
TORSDOF 11
ENDMDL
MODEL 6
REMARK VINA RESULT:      -7.6      1.415      2.052
REMARK  Name = 
REMARK  14 active torsions:
REMARK  status: ('A' for Active; 'I' for Inactive)
REMARK    1  A    between atoms: C_1  and  C_2
REMARK    2  A    between atoms: C_2  and  C_3
REMARK    3  A    between atoms: C_2  and  C_14
REMARK    4  A    between atoms: N_5  and  C_6
REMARK    5  A    between atoms: N_5  and  C_7
REMARK    6  A    between atoms: C_7  and  C_8
REMARK    7  A    between atoms: C_17  and  C_18
REMARK    8  A    between atoms: C_18  and  C_19
REMARK    9  A    between atoms: C_19  and  C_20
REMARK   10  A    between atoms: C_19  and  N_21
REMARK   11  A    between atoms: C_23  and  C_24
REMARK   12  A    between atoms: C_25  and  C_26
REMARK   13  A    between atoms: C_26  and  O_27
REMARK   14  A    between atoms: O_27  and  C_28
REMARK                            x       y       z     vdW  Elec       q    Type
REMARK                         _______ _______ _______ _____ _____    ______ ____
ROOT
ATOM      1  C   UNL     1       3.006   4.357  20.359  0.00  0.00    +0.000 C 
ATOM      2  C   UNL     1       3.409   2.912  20.098  0.00  0.00    +0.000 C 
ATOM      3  C   UNL     1       4.503   2.990  19.056  0.00  0.00    +0.000 C 
ATOM      4  C   UNL     1       5.091   4.381  19.265  0.00  0.00    +0.000 C 
ATOM      5  O   UNL     1       4.132   5.166  19.994  0.00  0.00    +0.000 OA
ENDROOT
BRANCH   1   7
ATOM      6  C   UNL     1       1.019   3.836  18.880  0.00  0.00    +0.000 C 
ATOM      7  C   UNL     1       1.707   4.918  19.711  0.00  0.00    +0.000 C 
BRANCH   7   8
ATOM      8  C   UNL     1       1.939   6.170  18.860  0.00  0.00    +0.000 C 
ATOM      9  O   UNL     1       2.111   6.079  17.646  0.00  0.00    +0.000 OA
ATOM     10  N   UNL     1       1.919   7.432  19.430  0.00  0.00    +0.000 N 
ATOM     11  C   UNL     1       1.455   7.765  20.764  0.00  0.00    +0.000 C 
BRANCH  10  12
ATOM     12  C   UNL     1       2.232   8.560  18.544  0.00  0.00    +0.000 C 
BRANCH  12  13
ATOM     13  C   UNL     1       1.157   9.627  18.458  0.00  0.00    +0.000 A 
ATOM     14  C   UNL     1      -0.132   9.392  17.960  0.00  0.00    +0.000 A 
ATOM     15  C   UNL     1      -1.086  10.413  17.930  0.00  0.00    +0.000 A 
ATOM     16  C   UNL     1      -0.764  11.686  18.396  0.00  0.00    +0.000 A 
ATOM     17  C   UNL     1       0.513  11.938  18.890  0.00  0.00    +0.000 A 
ATOM     18  C   UNL     1       1.464  10.917  18.923  0.00  0.00    +0.000 A 
ENDBRANCH  12  13
ENDBRANCH  10  12
ENDBRANCH   7   8
ENDBRANCH   1   7
BRANCH   4  19
ATOM     19  C   UNL     1       5.477   5.134  17.984  0.00  0.00    +0.000 C 
BRANCH  19  20
ATOM     20  C   UNL     1       6.992   5.213  17.688  0.00  0.00    +0.000 C 
ATOM     21  C   UNL     1       7.478   4.472  16.437  0.00  0.00    +0.000 C 
BRANCH  20  22
ATOM     22  N   UNL     1       7.462   6.590  17.677  0.00  0.00    +0.000 N 
ATOM     23  C   UNL     1       8.297   7.189  18.567  0.00  0.00    +0.000 A 
ATOM     24  C   UNL     1       8.254   8.501  18.193  0.00  0.00    +0.000 A 
ATOM     25  N   UNL     1       7.466   8.665  17.098  0.00  0.00    +0.000 NA
ATOM     26  N   UNL     1       6.984   7.470  16.775  0.00  0.00    +0.000 NA
BRANCH  24  27
ATOM     27  C   UNL     1       8.902   9.571  18.840  0.00  0.00    +0.000 C 
ATOM     28  C   UNL     1       9.476  10.575  19.440  0.00  0.00    +0.000 C 
BRANCH  28  29
ATOM     29  C   UNL     1      10.147  11.747  20.141  0.00  0.00    +0.000 C 
BRANCH  29  30
ATOM     30  O   UNL     1       9.879  11.662  21.537  0.00  0.00    +0.000 OA
BRANCH  30  31
ATOM     31  C   UNL     1       8.917  12.516  22.000  0.00  0.00    +0.000 A 
ATOM     32  C   UNL     1       8.370  12.174  23.237  0.00  0.00    +0.000 A 
ATOM     33  C   UNL     1       7.377  12.971  23.815  0.00  0.00    +0.000 A 
ATOM     34  C   UNL     1       6.948  14.130  23.163  0.00  0.00    +0.000 A 
ATOM     35  C   UNL     1       7.511  14.485  21.943  0.00  0.00    +0.000 A 
ATOM     36  C   UNL     1       8.496  13.684  21.358  0.00  0.00    +0.000 A 
ENDBRANCH  30  31
ENDBRANCH  29  30
ENDBRANCH  28  29
ENDBRANCH  24  27
ENDBRANCH  20  22
ENDBRANCH  19  20
ENDBRANCH   4  19
TORSDOF 11
ENDMDL
MODEL 7
REMARK VINA RESULT:      -7.6      5.719     10.846
REMARK  Name = 
REMARK  14 active torsions:
REMARK  status: ('A' for Active; 'I' for Inactive)
REMARK    1  A    between atoms: C_1  and  C_2
REMARK    2  A    between atoms: C_2  and  C_3
REMARK    3  A    between atoms: C_2  and  C_14
REMARK    4  A    between atoms: N_5  and  C_6
REMARK    5  A    between atoms: N_5  and  C_7
REMARK    6  A    between atoms: C_7  and  C_8
REMARK    7  A    between atoms: C_17  and  C_18
REMARK    8  A    between atoms: C_18  and  C_19
REMARK    9  A    between atoms: C_19  and  C_20
REMARK   10  A    between atoms: C_19  and  N_21
REMARK   11  A    between atoms: C_23  and  C_24
REMARK   12  A    between atoms: C_25  and  C_26
REMARK   13  A    between atoms: C_26  and  O_27
REMARK   14  A    between atoms: O_27  and  C_28
REMARK                            x       y       z     vdW  Elec       q    Type
REMARK                         _______ _______ _______ _____ _____    ______ ____
ROOT
ATOM      1  C   UNL     1      -4.526  15.285  21.058  0.00  0.00    +0.000 C 
ATOM      2  C   UNL     1      -3.635  15.922  22.115  0.00  0.00    +0.000 C 
ATOM      3  C   UNL     1      -2.467  14.973  22.269  0.00  0.00    +0.000 C 
ATOM      4  C   UNL     1      -2.410  14.260  20.922  0.00  0.00    +0.000 C 
ATOM      5  O   UNL     1      -3.683  14.432  20.274  0.00  0.00    +0.000 OA
ENDROOT
BRANCH   1   7
ATOM      6  C   UNL     1      -5.875  14.430  23.022  0.00  0.00    +0.000 C 
ATOM      7  C   UNL     1      -5.808  14.520  21.497  0.00  0.00    +0.000 C 
BRANCH   7   8
ATOM      8  C   UNL     1      -5.930  13.124  20.880  0.00  0.00    +0.000 C 
ATOM      9  O   UNL     1      -5.646  12.123  21.536  0.00  0.00    +0.000 OA
ATOM     10  N   UNL     1      -6.399  12.955  19.589  0.00  0.00    +0.000 N 
ATOM     11  C   UNL     1      -7.045  13.964  18.770  0.00  0.00    +0.000 C 
BRANCH  10  12
ATOM     12  C   UNL     1      -6.401  11.584  19.062  0.00  0.00    +0.000 C 
BRANCH  12  13
ATOM     13  C   UNL     1      -5.245  11.251  18.137  0.00  0.00    +0.000 A 
ATOM     14  C   UNL     1      -5.061  11.843  16.880  0.00  0.00    +0.000 A 
ATOM     15  C   UNL     1      -3.960  11.509  16.085  0.00  0.00    +0.000 A 
ATOM     16  C   UNL     1      -3.029  10.576  16.535  0.00  0.00    +0.000 A 
ATOM     17  C   UNL     1      -3.198   9.975  17.779  0.00  0.00    +0.000 A 
ATOM     18  C   UNL     1      -4.296  10.311  18.574  0.00  0.00    +0.000 A 
ENDBRANCH  12  13
ENDBRANCH  10  12
ENDBRANCH   7   8
ENDBRANCH   1   7
BRANCH   4  19
ATOM     19  C   UNL     1      -2.081  12.762  20.982  0.00  0.00    +0.000 C 
BRANCH  19  20
ATOM     20  C   UNL     1      -1.613  12.237  22.358  0.00  0.00    +0.000 C 
ATOM     21  C   UNL     1      -2.718  11.912  23.371  0.00  0.00    +0.000 C 
BRANCH  20  22
ATOM     22  N   UNL     1      -0.707  11.108  22.218  0.00  0.00    +0.000 N 
ATOM     23  C   UNL     1      -0.017  10.729  21.108  0.00  0.00    +0.000 A 
ATOM     24  C   UNL     1       0.519   9.529  21.474  0.00  0.00    +0.000 A 
ATOM     25  N   UNL     1       0.201   9.231  22.762  0.00  0.00    +0.000 NA
ATOM     26  N   UNL     1      -0.554  10.223  23.223  0.00  0.00    +0.000 NA
BRANCH  24  27
ATOM     27  C   UNL     1       1.280   8.674  20.654  0.00  0.00    +0.000 C 
ATOM     28  C   UNL     1       1.993   7.906  19.879  0.00  0.00    +0.000 C 
BRANCH  28  29
ATOM     29  C   UNL     1       2.824   7.010  18.975  0.00  0.00    +0.000 C 
BRANCH  29  30
ATOM     30  O   UNL     1       3.288   5.896  19.732  0.00  0.00    +0.000 OA
BRANCH  30  31
ATOM     31  C   UNL     1       2.445   4.820  19.763  0.00  0.00    +0.000 A 
ATOM     32  C   UNL     1       2.107   4.297  18.515  0.00  0.00    +0.000 A 
ATOM     33  C   UNL     1       1.252   3.196  18.417  0.00  0.00    +0.000 A 
ATOM     34  C   UNL     1       0.753   2.598  19.578  0.00  0.00    +0.000 A 
ATOM     35  C   UNL     1       1.110   3.102  20.823  0.00  0.00    +0.000 A 
ATOM     36  C   UNL     1       1.955   4.210  20.922  0.00  0.00    +0.000 A 
ENDBRANCH  30  31
ENDBRANCH  29  30
ENDBRANCH  28  29
ENDBRANCH  24  27
ENDBRANCH  20  22
ENDBRANCH  19  20
ENDBRANCH   4  19
TORSDOF 11
ENDMDL
MODEL 8
REMARK VINA RESULT:      -7.6      5.075      9.859
REMARK  Name = 
REMARK  14 active torsions:
REMARK  status: ('A' for Active; 'I' for Inactive)
REMARK    1  A    between atoms: C_1  and  C_2
REMARK    2  A    between atoms: C_2  and  C_3
REMARK    3  A    between atoms: C_2  and  C_14
REMARK    4  A    between atoms: N_5  and  C_6
REMARK    5  A    between atoms: N_5  and  C_7
REMARK    6  A    between atoms: C_7  and  C_8
REMARK    7  A    between atoms: C_17  and  C_18
REMARK    8  A    between atoms: C_18  and  C_19
REMARK    9  A    between atoms: C_19  and  C_20
REMARK   10  A    between atoms: C_19  and  N_21
REMARK   11  A    between atoms: C_23  and  C_24
REMARK   12  A    between atoms: C_25  and  C_26
REMARK   13  A    between atoms: C_26  and  O_27
REMARK   14  A    between atoms: O_27  and  C_28
REMARK                            x       y       z     vdW  Elec       q    Type
REMARK                         _______ _______ _______ _____ _____    ______ ____
ROOT
ATOM      1  C   UNL     1      -4.377  10.326  18.228  0.00  0.00    +0.000 C 
ATOM      2  C   UNL     1      -3.758   9.489  17.117  0.00  0.00    +0.000 C 
ATOM      3  C   UNL     1      -2.433  10.154  16.816  0.00  0.00    +0.000 C 
ATOM      4  C   UNL     1      -2.086  10.861  18.122  0.00  0.00    +0.000 C 
ATOM      5  O   UNL     1      -3.293  10.986  18.894  0.00  0.00    +0.000 OA
ENDROOT
BRANCH   1   7
ATOM      6  C   UNL     1      -5.182  12.056  16.565  0.00  0.00    +0.000 C 
ATOM      7  C   UNL     1      -5.499  11.348  17.882  0.00  0.00    +0.000 C 
BRANCH   7   8
ATOM      8  C   UNL     1      -5.753  12.377  18.987  0.00  0.00    +0.000 C 
ATOM      9  O   UNL     1      -5.330  13.527  18.881  0.00  0.00    +0.000 OA
ATOM     10  N   UNL     1      -6.497  12.049  20.107  0.00  0.00    +0.000 N 
ATOM     11  C   UNL     1      -7.310  10.859  20.282  0.00  0.00    +0.000 C 
BRANCH  10  12
ATOM     12  C   UNL     1      -6.614  13.080  21.146  0.00  0.00    +0.000 C 
BRANCH  12  13
ATOM     13  C   UNL     1      -5.729  12.871  22.361  0.00  0.00    +0.000 A 
ATOM     14  C   UNL     1      -4.329  12.936  22.322  0.00  0.00    +0.000 A 
ATOM     15  C   UNL     1      -3.572  12.758  23.484  0.00  0.00    +0.000 A 
ATOM     16  C   UNL     1      -4.204  12.509  24.700  0.00  0.00    +0.000 A 
ATOM     17  C   UNL     1      -5.592  12.438  24.756  0.00  0.00    +0.000 A 
ATOM     18  C   UNL     1      -6.349  12.619  23.597  0.00  0.00    +0.000 A 
ENDBRANCH  12  13
ENDBRANCH  10  12
ENDBRANCH   7   8
ENDBRANCH   1   7
BRANCH   4  19
ATOM     19  C   UNL     1      -1.446  12.248  17.972  0.00  0.00    +0.000 C 
BRANCH  19  20
ATOM     20  C   UNL     1      -0.105  12.446  18.713  0.00  0.00    +0.000 C 
ATOM     21  C   UNL     1      -0.152  13.311  19.979  0.00  0.00    +0.000 C 
BRANCH  20  22
ATOM     22  N   UNL     1       0.543  11.174  18.993  0.00  0.00    +0.000 N 
ATOM     23  C   UNL     1       1.416  10.496  18.200  0.00  0.00    +0.000 A 
ATOM     24  C   UNL     1       1.562   9.306  18.853  0.00  0.00    +0.000 A 
ATOM     25  N   UNL     1       0.845   9.297  20.008  0.00  0.00    +0.000 NA
ATOM     26  N   UNL     1       0.221  10.468  20.094  0.00  0.00    +0.000 NA
BRANCH  24  27
ATOM     27  C   UNL     1       2.321   8.204  18.413  0.00  0.00    +0.000 C 
ATOM     28  C   UNL     1       3.047   7.199  18.013  0.00  0.00    +0.000 C 
BRANCH  28  29
ATOM     29  C   UNL     1       3.895   6.026  17.547  0.00  0.00    +0.000 C 
BRANCH  29  30
ATOM     30  O   UNL     1       4.102   5.143  18.644  0.00  0.00    +0.000 OA
BRANCH  30  31
ATOM     31  C   UNL     1       3.012   4.406  19.015  0.00  0.00    +0.000 A 
ATOM     32  C   UNL     1       2.587   4.601  20.330  0.00  0.00    +0.000 A 
ATOM     33  C   UNL     1       1.482   3.904  20.827  0.00  0.00    +0.000 A 
ATOM     34  C   UNL     1       0.782   3.026  19.994  0.00  0.00    +0.000 A 
ATOM     35  C   UNL     1       1.190   2.850  18.677  0.00  0.00    +0.000 A 
ATOM     36  C   UNL     1       2.301   3.538  18.182  0.00  0.00    +0.000 A 
ENDBRANCH  30  31
ENDBRANCH  29  30
ENDBRANCH  28  29
ENDBRANCH  24  27
ENDBRANCH  20  22
ENDBRANCH  19  20
ENDBRANCH   4  19
TORSDOF 11
ENDMDL
MODEL 9
REMARK VINA RESULT:      -7.5      3.496      8.489
REMARK  Name = 
REMARK  14 active torsions:
REMARK  status: ('A' for Active; 'I' for Inactive)
REMARK    1  A    between atoms: C_1  and  C_2
REMARK    2  A    between atoms: C_2  and  C_3
REMARK    3  A    between atoms: C_2  and  C_14
REMARK    4  A    between atoms: N_5  and  C_6
REMARK    5  A    between atoms: N_5  and  C_7
REMARK    6  A    between atoms: C_7  and  C_8
REMARK    7  A    between atoms: C_17  and  C_18
REMARK    8  A    between atoms: C_18  and  C_19
REMARK    9  A    between atoms: C_19  and  C_20
REMARK   10  A    between atoms: C_19  and  N_21
REMARK   11  A    between atoms: C_23  and  C_24
REMARK   12  A    between atoms: C_25  and  C_26
REMARK   13  A    between atoms: C_26  and  O_27
REMARK   14  A    between atoms: O_27  and  C_28
REMARK                            x       y       z     vdW  Elec       q    Type
REMARK                         _______ _______ _______ _____ _____    ______ ____
ROOT
ATOM      1  C   UNL     1       3.643  15.002  18.054  0.00  0.00    +0.000 C 
ATOM      2  C   UNL     1       3.806  16.515  18.088  0.00  0.00    +0.000 C 
ATOM      3  C   UNL     1       5.233  16.746  18.538  0.00  0.00    +0.000 C 
ATOM      4  C   UNL     1       5.950  15.471  18.109  0.00  0.00    +0.000 C 
ATOM      5  O   UNL     1       4.957  14.453  17.893  0.00  0.00    +0.000 OA
ENDROOT
BRANCH   1   7
ATOM      6  C   UNL     1       3.853  14.049  20.390  0.00  0.00    +0.000 C 
ATOM      7  C   UNL     1       2.900  14.286  19.219  0.00  0.00    +0.000 C 
BRANCH   7   8
ATOM      8  C   UNL     1       2.234  12.970  18.805  0.00  0.00    +0.000 C 
ATOM      9  O   UNL     1       2.803  12.197  18.036  0.00  0.00    +0.000 OA
ATOM     10  N   UNL     1       1.002  12.604  19.316  0.00  0.00    +0.000 N 
ATOM     11  C   UNL     1       0.314  13.226  20.433  0.00  0.00    +0.000 C 
BRANCH  10  12
ATOM     12  C   UNL     1       0.413  11.365  18.793  0.00  0.00    +0.000 C 
BRANCH  12  13
ATOM     13  C   UNL     1       0.728  10.116  19.596  0.00  0.00    +0.000 A 
ATOM     14  C   UNL     1       0.208   9.863  20.874  0.00  0.00    +0.000 A 
ATOM     15  C   UNL     1       0.518   8.680  21.551  0.00  0.00    +0.000 A 
ATOM     16  C   UNL     1       1.355   7.735  20.963  0.00  0.00    +0.000 A 
ATOM     17  C   UNL     1       1.883   7.972  19.697  0.00  0.00    +0.000 A 
ATOM     18  C   UNL     1       1.571   9.151  19.019  0.00  0.00    +0.000 A 
ENDBRANCH  12  13
ENDBRANCH  10  12
ENDBRANCH   7   8
ENDBRANCH   1   7
BRANCH   4  19
ATOM     19  C   UNL     1       6.999  14.940  19.096  0.00  0.00    +0.000 C 
BRANCH  19  20
ATOM     20  C   UNL     1       8.416  14.735  18.516  0.00  0.00    +0.000 C 
ATOM     21  C   UNL     1       9.534  15.576  19.145  0.00  0.00    +0.000 C 
BRANCH  20  22
ATOM     22  N   UNL     1       8.788  13.329  18.499  0.00  0.00    +0.000 N 
ATOM     23  C   UNL     1       8.095  12.293  17.953  0.00  0.00    +0.000 A 
ATOM     24  C   UNL     1       8.791  11.199  18.378  0.00  0.00    +0.000 A 
ATOM     25  N   UNL     1       9.879  11.572  19.105  0.00  0.00    +0.000 NA
ATOM     26  N   UNL     1       9.876  12.900  19.168  0.00  0.00    +0.000 NA
BRANCH  24  27
ATOM     27  C   UNL     1       8.452   9.854  18.141  0.00  0.00    +0.000 C 
ATOM     28  C   UNL     1       8.157   8.608  17.899  0.00  0.00    +0.000 C 
BRANCH  28  29
ATOM     29  C   UNL     1       7.813   7.153  17.618  0.00  0.00    +0.000 C 
BRANCH  29  30
ATOM     30  O   UNL     1       6.593   7.103  16.886  0.00  0.00    +0.000 OA
BRANCH  30  31
ATOM     31  C   UNL     1       5.634   6.278  17.405  0.00  0.00    +0.000 A 
ATOM     32  C   UNL     1       6.101   5.330  18.316  0.00  0.00    +0.000 A 
ATOM     33  C   UNL     1       5.217   4.429  18.915  0.00  0.00    +0.000 A 
ATOM     34  C   UNL     1       3.852   4.494  18.619  0.00  0.00    +0.000 A 
ATOM     35  C   UNL     1       3.383   5.454  17.731  0.00  0.00    +0.000 A 
ATOM     36  C   UNL     1       4.267   6.348  17.123  0.00  0.00    +0.000 A 
ENDBRANCH  30  31
ENDBRANCH  29  30
ENDBRANCH  28  29
ENDBRANCH  24  27
ENDBRANCH  20  22
ENDBRANCH  19  20
ENDBRANCH   4  19
TORSDOF 11
ENDMDL
