MODEL 1
REMARK VINA RESULT:      -7.6      0.000      0.000
REMARK  Name = 
REMARK  11 active torsions:
REMARK  status: ('A' for Active; 'I' for Inactive)
REMARK    1  A    between atoms: CB_1  and  CA_2
REMARK    2  A    between atoms: CA_2  and  N_3
REMARK    3  A    between atoms: CA_2  and  C_16
REMARK    4  A    between atoms: N_3  and  CA_4
REMARK    5  A    between atoms: CA_4  and  C_5
REMARK    6  A    between atoms: CA_4  and  C_13
REMARK    7  A    between atoms: C_5  and  C_6
REMARK    8  A    between atoms: C_6  and  C_7
REMARK    9  A    between atoms: C_13  and  OXT_15
REMARK   10  A    between atoms: CA_19  and  C_20
REMARK   11  A    between atoms: C_20  and  OXT_22
REMARK                            x       y       z     vdW  Elec       q    Type
REMARK                         _______ _______ _______ _____ _____    ______ ____
ROOT
ATOM      1  CB  UNL     1       6.780   5.475  19.180  0.00  0.00    +0.000 C 
ATOM      2  CA  UNL     1       5.378   4.878  19.320  0.00  0.00    +0.000 C 
ENDROOT
BRANCH   2   3
ATOM      3  C   UNL     1       4.389   5.968  18.814  0.00  0.00    +0.000 C 
ATOM      4  O   UNL     1       4.758   6.685  17.870  0.00  0.00    +0.000 OA
ATOM      5  N   UNL     1       3.175   6.236  19.432  0.00  0.00    +0.000 N 
ATOM      6  CA  UNL     1       2.431   5.555  20.532  0.00  0.00    +0.000 C 
ATOM      7  C   UNL     1       1.191   6.480  20.692  0.00  0.00    +0.000 C 
ATOM      8  C   UNL     1       1.800   7.862  20.528  0.00  0.00    +0.000 C 
ATOM      9  C   UNL     1       0.810   9.018  20.417  0.00  0.00    +0.000 C 
ATOM     10  C   UNL     1       0.277   9.280  19.014  0.00  0.00    +0.000 C 
ATOM     11  C   UNL     1       1.406   9.315  17.996  0.00  0.00    +0.000 C 
ATOM     12  C   UNL     1       2.117   7.972  17.969  0.00  0.00    +0.000 C 
ATOM     13  C   UNL     1       2.738   7.645  19.331  0.00  0.00    +0.000 C 
BRANCH   6  14
ATOM     14  C   UNL     1       1.836   4.146  20.495  0.00  0.00    +0.000 C 
ATOM     15  O   UNL     1       2.165   3.232  21.247  0.00  0.00    +0.000 OA
BRANCH  14  16
ATOM     16  OXT UNL     1       0.859   3.941  19.596  0.00  0.00    +0.000 OA
ATOM     17  HXT UNL     1       1.017   3.013  19.303  0.00  0.00    +0.000 HD
ENDBRANCH  14  16
ENDBRANCH   6  14
ENDBRANCH   2   3
BRANCH   2  18
ATOM     18  N   UNL     1       5.219   3.692  18.418  0.00  0.00    +0.000 NA
ATOM     19  H   UNL     1       6.121   3.547  17.950  0.00  0.00    +0.000 HD
BRANCH  18  20
ATOM     20  CA  UNL     1       4.126   3.694  17.405  0.00  0.00    +0.000 C 
BRANCH  20  21
ATOM     21  C   UNL     1       3.306   2.385  17.618  0.00  0.00    +0.000 C 
ATOM     22  O   UNL     1       2.116   2.222  17.389  0.00  0.00    +0.000 OA
BRANCH  21  23
ATOM     23  OXT UNL     1       4.071   1.408  18.170  0.00  0.00    +0.000 OA
ATOM     24  HXT UNL     1       4.647   1.038  17.456  0.00  0.00    +0.000 HD
ENDBRANCH  21  23
ENDBRANCH  20  21
BRANCH  20  25
ATOM     25  C   UNL     1       4.668   3.803  15.980  0.00  0.00    +0.000 C 
BRANCH  25  26
ATOM     26  C   UNL     1       6.177   4.080  15.897  0.00  0.00    +0.000 C 
BRANCH  26  27
ATOM     27  C   UNL     1       6.582   4.143  14.446  0.00  0.00    +0.000 A 
ATOM     28  C   UNL     1       7.499   5.111  14.012  0.00  0.00    +0.000 A 
ATOM     29  C   UNL     1       7.754   5.276  12.652  0.00  0.00    +0.000 A 
ATOM     30  C   UNL     1       7.096   4.475  11.719  0.00  0.00    +0.000 A 
ATOM     31  C   UNL     1       6.209   3.488  12.146  0.00  0.00    +0.000 A 
ATOM     32  C   UNL     1       5.956   3.318  13.505  0.00  0.00    +0.000 A 
ENDBRANCH  26  27
ENDBRANCH  25  26
ENDBRANCH  20  25
ENDBRANCH  18  20
ENDBRANCH   2  18
TORSDOF 10
ENDMDL
MODEL 2
REMARK VINA RESULT:      -7.5      3.771      6.273
REMARK  Name = 
REMARK  11 active torsions:
REMARK  status: ('A' for Active; 'I' for Inactive)
REMARK    1  A    between atoms: CB_1  and  CA_2
REMARK    2  A    between atoms: CA_2  and  N_3
REMARK    3  A    between atoms: CA_2  and  C_16
REMARK    4  A    between atoms: N_3  and  CA_4
REMARK    5  A    between atoms: CA_4  and  C_5
REMARK    6  A    between atoms: CA_4  and  C_13
REMARK    7  A    between atoms: C_5  and  C_6
REMARK    8  A    between atoms: C_6  and  C_7
REMARK    9  A    between atoms: C_13  and  OXT_15
REMARK   10  A    between atoms: CA_19  and  C_20
REMARK   11  A    between atoms: C_20  and  OXT_22
REMARK                            x       y       z     vdW  Elec       q    Type
REMARK                         _______ _______ _______ _____ _____    ______ ____
ROOT
ATOM      1  CB  UNL     1       6.535   5.546  15.411  0.00  0.00    +0.000 C 
ATOM      2  CA  UNL     1       5.534   6.125  16.412  0.00  0.00    +0.000 C 
ENDROOT
BRANCH   2   3
ATOM      3  C   UNL     1       4.986   4.918  17.227  0.00  0.00    +0.000 C 
ATOM      4  O   UNL     1       5.700   3.905  17.303  0.00  0.00    +0.000 OA
ATOM      5  N   UNL     1       3.711   4.889  17.775  0.00  0.00    +0.000 N 
ATOM      6  CA  UNL     1       2.642   5.923  17.898  0.00  0.00    +0.000 C 
ATOM      7  C   UNL     1       1.498   5.113  18.571  0.00  0.00    +0.000 C 
ATOM      8  C   UNL     1       1.593   3.774  17.861  0.00  0.00    +0.000 C 
ATOM      9  C   UNL     1       0.734   2.651  18.438  0.00  0.00    +0.000 C 
ATOM     10  C   UNL     1       1.365   1.884  19.593  0.00  0.00    +0.000 C 
ATOM     11  C   UNL     1       2.795   1.483  19.270  0.00  0.00    +0.000 C 
ATOM     12  C   UNL     1       3.638   2.726  19.035  0.00  0.00    +0.000 C 
ATOM     13  C   UNL     1       3.110   3.539  17.849  0.00  0.00    +0.000 C 
BRANCH   6  14
ATOM     14  C   UNL     1       2.711   7.213  18.717  0.00  0.00    +0.000 C 
ATOM     15  O   UNL     1       2.409   7.300  19.904  0.00  0.00    +0.000 OA
BRANCH  14  16
ATOM     16  OXT UNL     1       3.180   8.296  18.075  0.00  0.00    +0.000 OA
ATOM     17  HXT UNL     1       2.751   8.233  17.189  0.00  0.00    +0.000 HD
ENDBRANCH  14  16
ENDBRANCH   6  14
ENDBRANCH   2   3
BRANCH   2  18
ATOM     18  N   UNL     1       6.228   7.030  17.386  0.00  0.00    +0.000 NA
ATOM     19  H   UNL     1       6.176   7.980  17.002  0.00  0.00    +0.000 HD
BRANCH  18  20
ATOM     20  CA  UNL     1       7.633   6.728  17.780  0.00  0.00    +0.000 C 
BRANCH  20  21
ATOM     21  C   UNL     1       7.574   5.564  18.816  0.00  0.00    +0.000 C 
ATOM     22  O   UNL     1       7.079   5.604  19.934  0.00  0.00    +0.000 OA
BRANCH  21  23
ATOM     23  OXT UNL     1       8.212   4.458  18.352  0.00  0.00    +0.000 OA
ATOM     24  HXT UNL     1       7.847   4.254  17.457  0.00  0.00    +0.000 HD
ENDBRANCH  21  23
ENDBRANCH  20  21
BRANCH  20  25
ATOM     25  C   UNL     1       8.347   7.957  18.341  0.00  0.00    +0.000 C 
BRANCH  25  26
ATOM     26  C   UNL     1       7.990   9.273  17.631  0.00  0.00    +0.000 C 
BRANCH  26  27
ATOM     27  C   UNL     1       8.723  10.405  18.306  0.00  0.00    +0.000 A 
ATOM     28  C   UNL     1       9.377  10.191  19.527  0.00  0.00    +0.000 A 
ATOM     29  C   UNL     1       9.917  11.266  20.231  0.00  0.00    +0.000 A 
ATOM     30  C   UNL     1       9.808  12.558  19.719  0.00  0.00    +0.000 A 
ATOM     31  C   UNL     1       9.190  12.773  18.488  0.00  0.00    +0.000 A 
ATOM     32  C   UNL     1       8.653  11.701  17.780  0.00  0.00    +0.000 A 
ENDBRANCH  26  27
ENDBRANCH  25  26
ENDBRANCH  20  25
ENDBRANCH  18  20
ENDBRANCH   2  18
TORSDOF 10
ENDMDL
MODEL 3
REMARK VINA RESULT:      -7.3      0.494      1.173
REMARK  Name = 
REMARK  11 active torsions:
REMARK  status: ('A' for Active; 'I' for Inactive)
REMARK    1  A    between atoms: CB_1  and  CA_2
REMARK    2  A    between atoms: CA_2  and  N_3
REMARK    3  A    between atoms: CA_2  and  C_16
REMARK    4  A    between atoms: N_3  and  CA_4
REMARK    5  A    between atoms: CA_4  and  C_5
REMARK    6  A    between atoms: CA_4  and  C_13
REMARK    7  A    between atoms: C_5  and  C_6
REMARK    8  A    between atoms: C_6  and  C_7
REMARK    9  A    between atoms: C_13  and  OXT_15
REMARK   10  A    between atoms: CA_19  and  C_20
REMARK   11  A    between atoms: C_20  and  OXT_22
REMARK                            x       y       z     vdW  Elec       q    Type
REMARK                         _______ _______ _______ _____ _____    ______ ____
ROOT
ATOM      1  CB  UNL     1       6.903   5.409  18.949  0.00  0.00    +0.000 C 
ATOM      2  CA  UNL     1       5.521   4.947  19.415  0.00  0.00    +0.000 C 
ENDROOT
BRANCH   2   3
ATOM      3  C   UNL     1       4.505   5.990  18.865  0.00  0.00    +0.000 C 
ATOM      4  O   UNL     1       4.865   6.691  17.905  0.00  0.00    +0.000 OA
ATOM      5  N   UNL     1       3.276   6.239  19.460  0.00  0.00    +0.000 N 
ATOM      6  CA  UNL     1       2.539   5.568  20.571  0.00  0.00    +0.000 C 
ATOM      7  C   UNL     1       1.270   6.459  20.689  0.00  0.00    +0.000 C 
ATOM      8  C   UNL     1       1.839   7.853  20.491  0.00  0.00    +0.000 C 
ATOM      9  C   UNL     1       0.815   8.975  20.334  0.00  0.00    +0.000 C 
ATOM     10  C   UNL     1       0.293   9.179  18.918  0.00  0.00    +0.000 C 
ATOM     11  C   UNL     1       1.433   9.219  17.912  0.00  0.00    +0.000 C 
ATOM     12  C   UNL     1       2.185   7.898  17.934  0.00  0.00    +0.000 C 
ATOM     13  C   UNL     1       2.798   7.631  19.313  0.00  0.00    +0.000 C 
BRANCH   6  14
ATOM     14  C   UNL     1       1.988   4.141  20.569  0.00  0.00    +0.000 C 
ATOM     15  O   UNL     1       2.516   3.191  21.141  0.00  0.00    +0.000 OA
BRANCH  14  16
ATOM     16  OXT UNL     1       0.823   3.959  19.925  0.00  0.00    +0.000 OA
ATOM     17  HXT UNL     1       0.235   4.638  20.332  0.00  0.00    +0.000 HD
ENDBRANCH  14  16
ENDBRANCH   6  14
ENDBRANCH   2   3
BRANCH   2  18
ATOM     18  N   UNL     1       5.170   3.628  18.794  0.00  0.00    +0.000 NA
ATOM     19  H   UNL     1       6.054   3.150  18.585  0.00  0.00    +0.000 HD
BRANCH  18  20
ATOM     20  CA  UNL     1       4.294   3.605  17.590  0.00  0.00    +0.000 C 
BRANCH  20  21
ATOM     21  C   UNL     1       3.318   2.400  17.761  0.00  0.00    +0.000 C 
ATOM     22  O   UNL     1       3.601   1.282  18.166  0.00  0.00    +0.000 OA
BRANCH  21  23
ATOM     23  OXT UNL     1       2.066   2.715  17.337  0.00  0.00    +0.000 OA
ATOM     24  HXT UNL     1       1.456   2.625  18.109  0.00  0.00    +0.000 HD
ENDBRANCH  21  23
ENDBRANCH  20  21
BRANCH  20  25
ATOM     25  C   UNL     1       5.101   3.507  16.296  0.00  0.00    +0.000 C 
BRANCH  25  26
ATOM     26  C   UNL     1       5.023   4.759  15.407  0.00  0.00    +0.000 C 
BRANCH  26  27
ATOM     27  C   UNL     1       5.688   4.461  14.086  0.00  0.00    +0.000 A 
ATOM     28  C   UNL     1       5.082   3.585  13.175  0.00  0.00    +0.000 A 
ATOM     29  C   UNL     1       5.765   3.183  12.029  0.00  0.00    +0.000 A 
ATOM     30  C   UNL     1       7.056   3.654  11.787  0.00  0.00    +0.000 A 
ATOM     31  C   UNL     1       7.649   4.553  12.672  0.00  0.00    +0.000 A 
ATOM     32  C   UNL     1       6.968   4.960  13.816  0.00  0.00    +0.000 A 
ENDBRANCH  26  27
ENDBRANCH  25  26
ENDBRANCH  20  25
ENDBRANCH  18  20
ENDBRANCH   2  18
TORSDOF 10
ENDMDL
MODEL 4
REMARK VINA RESULT:      -7.2      3.059      5.633
REMARK  Name = 
REMARK  11 active torsions:
REMARK  status: ('A' for Active; 'I' for Inactive)
REMARK    1  A    between atoms: CB_1  and  CA_2
REMARK    2  A    between atoms: CA_2  and  N_3
REMARK    3  A    between atoms: CA_2  and  C_16
REMARK    4  A    between atoms: N_3  and  CA_4
REMARK    5  A    between atoms: CA_4  and  C_5
REMARK    6  A    between atoms: CA_4  and  C_13
REMARK    7  A    between atoms: C_5  and  C_6
REMARK    8  A    between atoms: C_6  and  C_7
REMARK    9  A    between atoms: C_13  and  OXT_15
REMARK   10  A    between atoms: CA_19  and  C_20
REMARK   11  A    between atoms: C_20  and  OXT_22
REMARK                            x       y       z     vdW  Elec       q    Type
REMARK                         _______ _______ _______ _____ _____    ______ ____
ROOT
ATOM      1  CB  UNL     1       1.030   8.238  17.652  0.00  0.00    +0.000 C 
ATOM      2  CA  UNL     1       2.099   8.525  18.709  0.00  0.00    +0.000 C 
ENDROOT
BRANCH   2   3
ATOM      3  C   UNL     1       1.347   9.103  19.943  0.00  0.00    +0.000 C 
ATOM      4  O   UNL     1       1.179   8.351  20.917  0.00  0.00    +0.000 OA
ATOM      5  N   UNL     1       0.774  10.367  19.958  0.00  0.00    +0.000 N 
ATOM      6  CA  UNL     1       0.822  11.508  18.997  0.00  0.00    +0.000 C 
ATOM      7  C   UNL     1      -0.112  12.541  19.690  0.00  0.00    +0.000 C 
ATOM      8  C   UNL     1      -1.226  11.657  20.224  0.00  0.00    +0.000 C 
ATOM      9  C   UNL     1      -2.225  12.335  21.158  0.00  0.00    +0.000 C 
ATOM     10  C   UNL     1      -1.806  12.388  22.622  0.00  0.00    +0.000 C 
ATOM     11  C   UNL     1      -1.312  11.033  23.102  0.00  0.00    +0.000 C 
ATOM     12  C   UNL     1      -0.093  10.615  22.295  0.00  0.00    +0.000 C 
ATOM     13  C   UNL     1      -0.433  10.479  20.807  0.00  0.00    +0.000 C 
BRANCH   6  14
ATOM     14  C   UNL     1       2.056  12.327  18.614  0.00  0.00    +0.000 C 
ATOM     15  O   UNL     1       2.565  13.191  19.324  0.00  0.00    +0.000 OA
BRANCH  14  16
ATOM     16  OXT UNL     1       2.621  12.025  17.434  0.00  0.00    +0.000 OA
ATOM     17  HXT UNL     1       2.420  12.816  16.881  0.00  0.00    +0.000 HD
ENDBRANCH  14  16
ENDBRANCH   6  14
ENDBRANCH   2   3
BRANCH   2  18
ATOM     18  N   UNL     1       2.754   7.252  19.154  0.00  0.00    +0.000 NA
ATOM     19  H   UNL     1       3.755   7.342  18.946  0.00  0.00    +0.000 HD
BRANCH  18  20
ATOM     20  CA  UNL     1       2.249   5.954  18.624  0.00  0.00    +0.000 C 
BRANCH  20  21
ATOM     21  C   UNL     1       1.856   5.083  19.856  0.00  0.00    +0.000 C 
ATOM     22  O   UNL     1       1.195   4.054  19.844  0.00  0.00    +0.000 OA
BRANCH  21  23
ATOM     23  OXT UNL     1       2.294   5.641  21.014  0.00  0.00    +0.000 OA
ATOM     24  HXT UNL     1       2.040   5.036  21.754  0.00  0.00    +0.000 HD
ENDBRANCH  21  23
ENDBRANCH  20  21
BRANCH  20  25
ATOM     25  C   UNL     1       3.281   5.258  17.737  0.00  0.00    +0.000 C 
BRANCH  25  26
ATOM     26  C   UNL     1       4.441   4.608  18.508  0.00  0.00    +0.000 C 
BRANCH  26  27
ATOM     27  C   UNL     1       5.689   5.426  18.291  0.00  0.00    +0.000 A 
ATOM     28  C   UNL     1       6.783   5.286  19.156  0.00  0.00    +0.000 A 
ATOM     29  C   UNL     1       7.871   6.150  19.057  0.00  0.00    +0.000 A 
ATOM     30  C   UNL     1       7.875   7.157  18.092  0.00  0.00    +0.000 A 
ATOM     31  C   UNL     1       6.806   7.279  17.205  0.00  0.00    +0.000 A 
ATOM     32  C   UNL     1       5.718   6.414  17.300  0.00  0.00    +0.000 A 
ENDBRANCH  26  27
ENDBRANCH  25  26
ENDBRANCH  20  25
ENDBRANCH  18  20
ENDBRANCH   2  18
TORSDOF 10
ENDMDL
MODEL 5
REMARK VINA RESULT:      -7.1      2.858      7.967
REMARK  Name = 
REMARK  11 active torsions:
REMARK  status: ('A' for Active; 'I' for Inactive)
REMARK    1  A    between atoms: CB_1  and  CA_2
REMARK    2  A    between atoms: CA_2  and  N_3
REMARK    3  A    between atoms: CA_2  and  C_16
REMARK    4  A    between atoms: N_3  and  CA_4
REMARK    5  A    between atoms: CA_4  and  C_5
REMARK    6  A    between atoms: CA_4  and  C_13
REMARK    7  A    between atoms: C_5  and  C_6
REMARK    8  A    between atoms: C_6  and  C_7
REMARK    9  A    between atoms: C_13  and  OXT_15
REMARK   10  A    between atoms: CA_19  and  C_20
REMARK   11  A    between atoms: C_20  and  OXT_22
REMARK                            x       y       z     vdW  Elec       q    Type
REMARK                         _______ _______ _______ _____ _____    ______ ____
ROOT
ATOM      1  CB  UNL     1       1.706   9.957  17.762  0.00  0.00    +0.000 C 
ATOM      2  CA  UNL     1       1.693   8.512  18.262  0.00  0.00    +0.000 C 
ENDROOT
BRANCH   2   3
ATOM      3  C   UNL     1       3.110   7.938  17.969  0.00  0.00    +0.000 C 
ATOM      4  O   UNL     1       3.997   8.741  17.637  0.00  0.00    +0.000 OA
ATOM      5  N   UNL     1       3.392   6.579  17.962  0.00  0.00    +0.000 N 
ATOM      6  CA  UNL     1       2.589   5.381  18.344  0.00  0.00    +0.000 C 
ATOM      7  C   UNL     1       3.569   4.223  18.002  0.00  0.00    +0.000 C 
ATOM      8  C   UNL     1       4.192   4.705  16.703  0.00  0.00    +0.000 C 
ATOM      9  C   UNL     1       5.376   3.891  16.189  0.00  0.00    +0.000 C 
ATOM     10  C   UNL     1       6.729   4.279  16.774  0.00  0.00    +0.000 C 
ATOM     11  C   UNL     1       6.933   5.785  16.736  0.00  0.00    +0.000 C 
ATOM     12  C   UNL     1       5.863   6.470  17.570  0.00  0.00    +0.000 C 
ATOM     13  C   UNL     1       4.462   6.183  17.020  0.00  0.00    +0.000 C 
BRANCH   6  14
ATOM     14  C   UNL     1       2.082   5.031  19.745  0.00  0.00    +0.000 C 
ATOM     15  O   UNL     1       1.341   4.085  20.000  0.00  0.00    +0.000 OA
BRANCH  14  16
ATOM     16  OXT UNL     1       2.532   5.805  20.746  0.00  0.00    +0.000 OA
ATOM     17  HXT UNL     1       1.712   6.016  21.251  0.00  0.00    +0.000 HD
ENDBRANCH  14  16
ENDBRANCH   6  14
ENDBRANCH   2   3
BRANCH   2  18
ATOM     18  N   UNL     1       1.505   8.471  19.749  0.00  0.00    +0.000 NA
ATOM     19  H   UNL     1       1.004   7.602  19.965  0.00  0.00    +0.000 HD
BRANCH  18  20
ATOM     20  CA  UNL     1       0.832   9.616  20.425  0.00  0.00    +0.000 C 
BRANCH  20  21
ATOM     21  C   UNL     1       1.062   9.437  21.957  0.00  0.00    +0.000 C 
ATOM     22  O   UNL     1       0.609  10.138  22.852  0.00  0.00    +0.000 OA
BRANCH  21  23
ATOM     23  OXT UNL     1       1.910   8.407  22.212  0.00  0.00    +0.000 OA
ATOM     24  HXT UNL     1       2.459   8.262  21.402  0.00  0.00    +0.000 HD
ENDBRANCH  21  23
ENDBRANCH  20  21
BRANCH  20  25
ATOM     25  C   UNL     1      -0.654   9.693  20.076  0.00  0.00    +0.000 C 
BRANCH  25  26
ATOM     26  C   UNL     1      -1.107  11.062  19.544  0.00  0.00    +0.000 C 
BRANCH  26  27
ATOM     27  C   UNL     1      -2.096  10.847  18.426  0.00  0.00    +0.000 A 
ATOM     28  C   UNL     1      -1.764  10.025  17.340  0.00  0.00    +0.000 A 
ATOM     29  C   UNL     1      -2.606   9.951  16.233  0.00  0.00    +0.000 A 
ATOM     30  C   UNL     1      -3.785  10.696  16.204  0.00  0.00    +0.000 A 
ATOM     31  C   UNL     1      -4.138  11.488  17.296  0.00  0.00    +0.000 A 
ATOM     32  C   UNL     1      -3.300  11.560  18.406  0.00  0.00    +0.000 A 
ENDBRANCH  26  27
ENDBRANCH  25  26
ENDBRANCH  20  25
ENDBRANCH  18  20
ENDBRANCH   2  18
TORSDOF 10
ENDMDL
MODEL 6
REMARK VINA RESULT:      -6.8      1.870      3.736
REMARK  Name = 
REMARK  11 active torsions:
REMARK  status: ('A' for Active; 'I' for Inactive)
REMARK    1  A    between atoms: CB_1  and  CA_2
REMARK    2  A    between atoms: CA_2  and  N_3
REMARK    3  A    between atoms: CA_2  and  C_16
REMARK    4  A    between atoms: N_3  and  CA_4
REMARK    5  A    between atoms: CA_4  and  C_5
REMARK    6  A    between atoms: CA_4  and  C_13
REMARK    7  A    between atoms: C_5  and  C_6
REMARK    8  A    between atoms: C_6  and  C_7
REMARK    9  A    between atoms: C_13  and  OXT_15
REMARK   10  A    between atoms: CA_19  and  C_20
REMARK   11  A    between atoms: C_20  and  OXT_22
REMARK                            x       y       z     vdW  Elec       q    Type
REMARK                         _______ _______ _______ _____ _____    ______ ____
ROOT
ATOM      1  CB  UNL     1       1.846   4.370  19.284  0.00  0.00    +0.000 C 
ATOM      2  CA  UNL     1       2.197   5.785  18.818  0.00  0.00    +0.000 C 
ENDROOT
BRANCH   2   3
ATOM      3  C   UNL     1       1.877   6.728  20.014  0.00  0.00    +0.000 C 
ATOM      4  O   UNL     1       1.954   6.251  21.158  0.00  0.00    +0.000 OA
ATOM      5  N   UNL     1       1.415   8.027  19.853  0.00  0.00    +0.000 N 
ATOM      6  CA  UNL     1       1.252   8.898  18.652  0.00  0.00    +0.000 C 
ATOM      7  C   UNL     1       0.629  10.179  19.275  0.00  0.00    +0.000 C 
ATOM      8  C   UNL     1      -0.334   9.601  20.298  0.00  0.00    +0.000 C 
ATOM      9  C   UNL     1      -0.971  10.605  21.256  0.00  0.00    +0.000 C 
ATOM     10  C   UNL     1      -0.140  10.938  22.488  0.00  0.00    +0.000 C 
ATOM     11  C   UNL     1       0.386   9.676  23.154  0.00  0.00    +0.000 C 
ATOM     12  C   UNL     1       1.286   8.922  22.189  0.00  0.00    +0.000 C 
ATOM     13  C   UNL     1       0.519   8.494  20.933  0.00  0.00    +0.000 C 
BRANCH   6  14
ATOM     14  C   UNL     1       2.370   9.432  17.754  0.00  0.00    +0.000 C 
ATOM     15  O   UNL     1       3.252   8.738  17.255  0.00  0.00    +0.000 OA
BRANCH  14  16
ATOM     16  OXT UNL     1       2.328  10.745  17.477  0.00  0.00    +0.000 OA
ATOM     17  HXT UNL     1       2.349  10.766  16.492  0.00  0.00    +0.000 HD
ENDBRANCH  14  16
ENDBRANCH   6  14
ENDBRANCH   2   3
BRANCH   2  18
ATOM     18  N   UNL     1       3.668   5.901  18.553  0.00  0.00    +0.000 NA
ATOM     19  H   UNL     1       3.801   6.728  17.960  0.00  0.00    +0.000 HD
BRANCH  18  20
ATOM     20  CA  UNL     1       4.391   4.741  17.959  0.00  0.00    +0.000 C 
BRANCH  20  21
ATOM     21  C   UNL     1       5.513   4.342  18.965  0.00  0.00    +0.000 C 
ATOM     22  O   UNL     1       6.405   5.063  19.391  0.00  0.00    +0.000 OA
BRANCH  21  23
ATOM     23  OXT UNL     1       5.434   3.027  19.296  0.00  0.00    +0.000 OA
ATOM     24  HXT UNL     1       5.051   2.968  20.206  0.00  0.00    +0.000 HD
ENDBRANCH  21  23
ENDBRANCH  20  21
BRANCH  20  25
ATOM     25  C   UNL     1       4.952   5.064  16.575  0.00  0.00    +0.000 C 
BRANCH  25  26
ATOM     26  C   UNL     1       6.217   4.272  16.206  0.00  0.00    +0.000 C 
BRANCH  26  27
ATOM     27  C   UNL     1       6.442   4.379  14.719  0.00  0.00    +0.000 A 
ATOM     28  C   UNL     1       5.715   3.568  13.837  0.00  0.00    +0.000 A 
ATOM     29  C   UNL     1       6.031   3.548  12.480  0.00  0.00    +0.000 A 
ATOM     30  C   UNL     1       7.075   4.337  11.997  0.00  0.00    +0.000 A 
ATOM     31  C   UNL     1       7.779   5.172  12.863  0.00  0.00    +0.000 A 
ATOM     32  C   UNL     1       7.462   5.198  14.219  0.00  0.00    +0.000 A 
ENDBRANCH  26  27
ENDBRANCH  25  26
ENDBRANCH  20  25
ENDBRANCH  18  20
ENDBRANCH   2  18
TORSDOF 10
ENDMDL
MODEL 7
REMARK VINA RESULT:      -6.8      2.651      4.193
REMARK  Name = 
REMARK  11 active torsions:
REMARK  status: ('A' for Active; 'I' for Inactive)
REMARK    1  A    between atoms: CB_1  and  CA_2
REMARK    2  A    between atoms: CA_2  and  N_3
REMARK    3  A    between atoms: CA_2  and  C_16
REMARK    4  A    between atoms: N_3  and  CA_4
REMARK    5  A    between atoms: CA_4  and  C_5
REMARK    6  A    between atoms: CA_4  and  C_13
REMARK    7  A    between atoms: C_5  and  C_6
REMARK    8  A    between atoms: C_6  and  C_7
REMARK    9  A    between atoms: C_13  and  OXT_15
REMARK   10  A    between atoms: CA_19  and  C_20
REMARK   11  A    between atoms: C_20  and  OXT_22
REMARK                            x       y       z     vdW  Elec       q    Type
REMARK                         _______ _______ _______ _____ _____    ______ ____
ROOT
ATOM      1  CB  UNL     1       3.416   7.863  17.446  0.00  0.00    +0.000 C 
ATOM      2  CA  UNL     1       2.710   8.059  18.790  0.00  0.00    +0.000 C 
ENDROOT
BRANCH   2   3
ATOM      3  C   UNL     1       1.389   8.821  18.479  0.00  0.00    +0.000 C 
ATOM      4  O   UNL     1       0.909   8.698  17.341  0.00  0.00    +0.000 OA
ATOM      5  N   UNL     1       0.792   9.699  19.373  0.00  0.00    +0.000 N 
ATOM      6  CA  UNL     1       1.078  10.037  20.798  0.00  0.00    +0.000 C 
ATOM      7  C   UNL     1       0.019  11.141  21.078  0.00  0.00    +0.000 C 
ATOM      8  C   UNL     1       0.033  11.933  19.782  0.00  0.00    +0.000 C 
ATOM      9  C   UNL     1      -1.063  12.985  19.632  0.00  0.00    +0.000 C 
ATOM     10  C   UNL     1      -2.388  12.464  19.091  0.00  0.00    +0.000 C 
ATOM     11  C   UNL     1      -2.176  11.592  17.864  0.00  0.00    +0.000 C 
ATOM     12  C   UNL     1      -1.328  10.385  18.229  0.00  0.00    +0.000 C 
ATOM     13  C   UNL     1       0.055  10.811  18.735  0.00  0.00    +0.000 C 
BRANCH   6  14
ATOM     14  C   UNL     1       0.957   9.098  22.000  0.00  0.00    +0.000 C 
ATOM     15  O   UNL     1       1.009   7.873  21.934  0.00  0.00    +0.000 OA
BRANCH  14  16
ATOM     16  OXT UNL     1       0.831   9.689  23.200  0.00  0.00    +0.000 OA
ATOM     17  HXT UNL     1       1.765   9.792  23.497  0.00  0.00    +0.000 HD
ENDBRANCH  14  16
ENDBRANCH   6  14
ENDBRANCH   2   3
BRANCH   2  18
ATOM     18  N   UNL     1       2.323   6.736  19.378  0.00  0.00    +0.000 NA
ATOM     19  H   UNL     1       2.549   6.774  20.378  0.00  0.00    +0.000 HD
BRANCH  18  20
ATOM     20  CA  UNL     1       2.886   5.488  18.788  0.00  0.00    +0.000 C 
BRANCH  20  21
ATOM     21  C   UNL     1       1.691   4.510  18.570  0.00  0.00    +0.000 C 
ATOM     22  O   UNL     1       1.246   4.126  17.498  0.00  0.00    +0.000 OA
BRANCH  21  23
ATOM     23  OXT UNL     1       1.125   4.152  19.753  0.00  0.00    +0.000 OA
ATOM     24  HXT UNL     1       1.065   4.963  20.314  0.00  0.00    +0.000 HD
ENDBRANCH  21  23
ENDBRANCH  20  21
BRANCH  20  25
ATOM     25  C   UNL     1       3.972   4.876  19.672  0.00  0.00    +0.000 C 
BRANCH  25  26
ATOM     26  C   UNL     1       4.750   3.727  19.011  0.00  0.00    +0.000 C 
BRANCH  26  27
ATOM     27  C   UNL     1       5.386   4.237  17.742  0.00  0.00    +0.000 A 
ATOM     28  C   UNL     1       6.411   5.191  17.802  0.00  0.00    +0.000 A 
ATOM     29  C   UNL     1       6.889   5.781  16.633  0.00  0.00    +0.000 A 
ATOM     30  C   UNL     1       6.347   5.420  15.400  0.00  0.00    +0.000 A 
ATOM     31  C   UNL     1       5.352   4.446  15.331  0.00  0.00    +0.000 A 
ATOM     32  C   UNL     1       4.875   3.852  16.497  0.00  0.00    +0.000 A 
ENDBRANCH  26  27
ENDBRANCH  25  26
ENDBRANCH  20  25
ENDBRANCH  18  20
ENDBRANCH   2  18
TORSDOF 10
ENDMDL
MODEL 8
REMARK VINA RESULT:      -6.7      2.563      4.187
REMARK  Name = 
REMARK  11 active torsions:
REMARK  status: ('A' for Active; 'I' for Inactive)
REMARK    1  A    between atoms: CB_1  and  CA_2
REMARK    2  A    between atoms: CA_2  and  N_3
REMARK    3  A    between atoms: CA_2  and  C_16
REMARK    4  A    between atoms: N_3  and  CA_4
REMARK    5  A    between atoms: CA_4  and  C_5
REMARK    6  A    between atoms: CA_4  and  C_13
REMARK    7  A    between atoms: C_5  and  C_6
REMARK    8  A    between atoms: C_6  and  C_7
REMARK    9  A    between atoms: C_13  and  OXT_15
REMARK   10  A    between atoms: CA_19  and  C_20
REMARK   11  A    between atoms: C_20  and  OXT_22
REMARK                            x       y       z     vdW  Elec       q    Type
REMARK                         _______ _______ _______ _____ _____    ______ ____
ROOT
ATOM      1  CB  UNL     1       3.471   7.606  17.555  0.00  0.00    +0.000 C 
ATOM      2  CA  UNL     1       2.718   7.847  18.865  0.00  0.00    +0.000 C 
ENDROOT
BRANCH   2   3
ATOM      3  C   UNL     1       1.454   8.676  18.494  0.00  0.00    +0.000 C 
ATOM      4  O   UNL     1       1.008   8.558  17.341  0.00  0.00    +0.000 OA
ATOM      5  N   UNL     1       0.879   9.605  19.350  0.00  0.00    +0.000 N 
ATOM      6  CA  UNL     1       1.135   9.955  20.778  0.00  0.00    +0.000 C 
ATOM      7  C   UNL     1       0.133  11.124  20.999  0.00  0.00    +0.000 C 
ATOM      8  C   UNL     1       0.238  11.887  19.690  0.00  0.00    +0.000 C 
ATOM      9  C   UNL     1      -0.790  12.997  19.482  0.00  0.00    +0.000 C 
ATOM     10  C   UNL     1      -2.124  12.542  18.904  0.00  0.00    +0.000 C 
ATOM     11  C   UNL     1      -1.921  11.634  17.701  0.00  0.00    +0.000 C 
ATOM     12  C   UNL     1      -1.157  10.388  18.119  0.00  0.00    +0.000 C 
ATOM     13  C   UNL     1       0.230  10.745  18.665  0.00  0.00    +0.000 C 
BRANCH   6  14
ATOM     14  C   UNL     1       0.919   9.050  21.992  0.00  0.00    +0.000 C 
ATOM     15  O   UNL     1       1.130   9.385  23.155  0.00  0.00    +0.000 OA
BRANCH  14  16
ATOM     16  OXT UNL     1       0.422   7.829  21.737  0.00  0.00    +0.000 OA
ATOM     17  HXT UNL     1      -0.216   7.996  21.004  0.00  0.00    +0.000 HD
ENDBRANCH  14  16
ENDBRANCH   6  14
ENDBRANCH   2   3
BRANCH   2  18
ATOM     18  N   UNL     1       2.235   6.549  19.440  0.00  0.00    +0.000 NA
ATOM     19  H   UNL     1       2.421   6.580  20.449  0.00  0.00    +0.000 HD
BRANCH  18  20
ATOM     20  CA  UNL     1       2.752   5.270  18.877  0.00  0.00    +0.000 C 
BRANCH  20  21
ATOM     21  C   UNL     1       1.556   4.270  18.849  0.00  0.00    +0.000 C 
ATOM     22  O   UNL     1       1.174   3.613  17.891  0.00  0.00    +0.000 OA
BRANCH  21  23
ATOM     23  OXT UNL     1       0.908   4.243  20.043  0.00  0.00    +0.000 OA
ATOM     24  HXT UNL     1       1.576   4.037  20.742  0.00  0.00    +0.000 HD
ENDBRANCH  21  23
ENDBRANCH  20  21
BRANCH  20  25
ATOM     25  C   UNL     1       3.933   4.727  19.680  0.00  0.00    +0.000 C 
BRANCH  25  26
ATOM     26  C   UNL     1       4.740   3.636  18.957  0.00  0.00    +0.000 C 
BRANCH  26  27
ATOM     27  C   UNL     1       5.377   4.236  17.728  0.00  0.00    +0.000 A 
ATOM     28  C   UNL     1       4.956   3.839  16.452  0.00  0.00    +0.000 A 
ATOM     29  C   UNL     1       5.648   4.267  15.321  0.00  0.00    +0.000 A 
ATOM     30  C   UNL     1       6.761   5.096  15.458  0.00  0.00    +0.000 A 
ATOM     31  C   UNL     1       7.163   5.523  16.723  0.00  0.00    +0.000 A 
ATOM     32  C   UNL     1       6.472   5.099  17.855  0.00  0.00    +0.000 A 
ENDBRANCH  26  27
ENDBRANCH  25  26
ENDBRANCH  20  25
ENDBRANCH  18  20
ENDBRANCH   2  18
TORSDOF 10
ENDMDL
MODEL 9
REMARK VINA RESULT:      -6.6      4.932      7.938
REMARK  Name = 
REMARK  11 active torsions:
REMARK  status: ('A' for Active; 'I' for Inactive)
REMARK    1  A    between atoms: CB_1  and  CA_2
REMARK    2  A    between atoms: CA_2  and  N_3
REMARK    3  A    between atoms: CA_2  and  C_16
REMARK    4  A    between atoms: N_3  and  CA_4
REMARK    5  A    between atoms: CA_4  and  C_5
REMARK    6  A    between atoms: CA_4  and  C_13
REMARK    7  A    between atoms: C_5  and  C_6
REMARK    8  A    between atoms: C_6  and  C_7
REMARK    9  A    between atoms: C_13  and  OXT_15
REMARK   10  A    between atoms: CA_19  and  C_20
REMARK   11  A    between atoms: C_20  and  OXT_22
REMARK                            x       y       z     vdW  Elec       q    Type
REMARK                         _______ _______ _______ _____ _____    ______ ____
ROOT
ATOM      1  CB  UNL     1       0.947   8.729  21.249  0.00  0.00    +0.000 C 
ATOM      2  CA  UNL     1      -0.171   9.546  20.599  0.00  0.00    +0.000 C 
ENDROOT
BRANCH   2   3
ATOM      3  C   UNL     1      -0.363  10.807  21.491  0.00  0.00    +0.000 C 
ATOM      4  O   UNL     1       0.312  10.883  22.531  0.00  0.00    +0.000 OA
ATOM      5  N   UNL     1      -1.315  11.783  21.231  0.00  0.00    +0.000 N 
ATOM      6  CA  UNL     1      -2.236  12.012  20.079  0.00  0.00    +0.000 C 
ATOM      7  C   UNL     1      -3.026  13.264  20.554  0.00  0.00    +0.000 C 
ATOM      8  C   UNL     1      -3.235  12.971  22.029  0.00  0.00    +0.000 C 
ATOM      9  C   UNL     1      -3.805  14.116  22.862  0.00  0.00    +0.000 C 
ATOM     10  C   UNL     1      -2.775  15.108  23.387  0.00  0.00    +0.000 C 
ATOM     11  C   UNL     1      -1.595  14.391  24.023  0.00  0.00    +0.000 C 
ATOM     12  C   UNL     1      -0.903  13.521  22.987  0.00  0.00    +0.000 C 
ATOM     13  C   UNL     1      -1.851  12.449  22.439  0.00  0.00    +0.000 C 
BRANCH   6  14
ATOM     14  C   UNL     1      -1.833  12.353  18.643  0.00  0.00    +0.000 C 
ATOM     15  O   UNL     1      -2.114  11.669  17.662  0.00  0.00    +0.000 OA
BRANCH  14  16
ATOM     16  OXT UNL     1      -1.167  13.506  18.475  0.00  0.00    +0.000 OA
ATOM     17  HXT UNL     1      -1.306  13.971  19.334  0.00  0.00    +0.000 HD
ENDBRANCH  14  16
ENDBRANCH   6  14
ENDBRANCH   2   3
BRANCH   2  18
ATOM     18  N   UNL     1       0.249  10.030  19.244  0.00  0.00    +0.000 NA
ATOM     19  H   UNL     1      -0.113   9.357  18.559  0.00  0.00    +0.000 HD
BRANCH  18  20
ATOM     20  CA  UNL     1       1.695  10.280  18.981  0.00  0.00    +0.000 C 
BRANCH  20  21
ATOM     21  C   UNL     1       1.849  11.808  18.710  0.00  0.00    +0.000 C 
ATOM     22  O   UNL     1       1.545  12.720  19.466  0.00  0.00    +0.000 OA
BRANCH  21  23
ATOM     23  OXT UNL     1       2.327  12.040  17.459  0.00  0.00    +0.000 OA
ATOM     24  HXT UNL     1       3.144  12.591  17.548  0.00  0.00    +0.000 HD
ENDBRANCH  21  23
ENDBRANCH  20  21
BRANCH  20  25
ATOM     25  C   UNL     1       2.219   9.437  17.820  0.00  0.00    +0.000 C 
BRANCH  25  26
ATOM     26  C   UNL     1       1.770   7.967  17.853  0.00  0.00    +0.000 C 
BRANCH  26  27
ATOM     27  C   UNL     1       2.950   7.106  18.229  0.00  0.00    +0.000 A 
ATOM     28  C   UNL     1       4.074   7.049  17.394  0.00  0.00    +0.000 A 
ATOM     29  C   UNL     1       5.095   6.136  17.653  0.00  0.00    +0.000 A 
ATOM     30  C   UNL     1       4.999   5.277  18.748  0.00  0.00    +0.000 A 
ATOM     31  C   UNL     1       3.900   5.354  19.602  0.00  0.00    +0.000 A 
ATOM     32  C   UNL     1       2.880   6.268  19.348  0.00  0.00    +0.000 A 
ENDBRANCH  26  27
ENDBRANCH  25  26
ENDBRANCH  20  25
ENDBRANCH  18  20
ENDBRANCH   2  18
TORSDOF 10
ENDMDL
