MODEL 1
REMARK VINA RESULT:      -8.9      0.000      0.000
REMARK  Name = 
REMARK  10 active torsions:
REMARK  status: ('A' for Active; 'I' for Inactive)
REMARK    1  A    between atoms: C_1  and  C_2
REMARK    2  A    between atoms: C_5  and  N_6
REMARK    3  A    between atoms: C_7  and  C_9
REMARK    4  A    between atoms: C_9  and  C_10
REMARK    5  A    between atoms: C_10  and  N_11
REMARK    6  A    between atoms: C_16  and  C_17
REMARK    7  A    between atoms: N_19  and  C_20
REMARK    8  A    between atoms: C_20  and  C_21
REMARK    9  A    between atoms: C_24  and  C_25
REMARK   10  A    between atoms: C_26  and  C_27
REMARK                            x       y       z     vdW  Elec       q    Type
REMARK                         _______ _______ _______ _____ _____    ______ ____
ROOT
ATOM      1  N   UNL     1       6.142   5.737  16.890  0.00  0.00    +0.000 N 
ATOM      2  N   UNL     1       5.697   6.514  15.878  0.00  0.00    +0.000 NA
ATOM      3  N   UNL     1       4.521   6.994  16.216  0.00  0.00    +0.000 NA
ATOM      4  C   UNL     1       4.146   6.401  17.384  0.00  0.00    +0.000 A 
ATOM      5  C   UNL     1       3.036   6.654  18.198  0.00  0.00    +0.000 A 
ATOM      6  C   UNL     1       2.895   5.915  19.378  0.00  0.00    +0.000 A 
ATOM      7  C   UNL     1       3.739   4.820  19.623  0.00  0.00    +0.000 A 
ATOM      8  C   UNL     1       4.883   4.580  18.832  0.00  0.00    +0.000 A 
ATOM      9  C   UNL     1       5.102   5.459  17.761  0.00  0.00    +0.000 A 
ENDROOT
BRANCH   6  10
ATOM     10  C   UNL     1       1.926   6.433  20.400  0.00  0.00    +0.000 C 
ATOM     11  O   UNL     1       1.125   5.675  20.934  0.00  0.00    +0.000 OA
ATOM     12  N   UNL     1       1.928   7.802  20.576  0.00  0.00    +0.000 N 
ATOM     13  H   UNL     1       2.569   8.377  20.053  0.00  0.00    +0.000 HD
BRANCH  12  14
ATOM     14  C   UNL     1       0.872   8.516  21.280  0.00  0.00    +0.000 C 
BRANCH  14  15
ATOM     15  C   UNL     1       0.483   9.784  20.547  0.00  0.00    +0.000 A 
ATOM     16  C   UNL     1       1.091  11.001  20.868  0.00  0.00    +0.000 A 
ATOM     17  C   UNL     1       0.745  12.177  20.188  0.00  0.00    +0.000 A 
ATOM     18  C   UNL     1      -0.214  12.171  19.164  0.00  0.00    +0.000 A 
ATOM     19  C   UNL     1      -0.551  13.466  18.471  0.00  0.00    +0.000 C 
ATOM     20  C   UNL     1      -0.828  10.952  18.818  0.00  0.00    +0.000 A 
ATOM     21  C   UNL     1      -1.841  10.842  17.709  0.00  0.00    +0.000 C 
ATOM     22  C   UNL     1      -0.474   9.775  19.516  0.00  0.00    +0.000 A 
ENDBRANCH  14  15
ENDBRANCH  12  14
ENDBRANCH   6  10
BRANCH   1  23
ATOM     23  C   UNL     1       7.552   5.904  17.215  0.00  0.00    +0.000 C 
BRANCH  23  24
ATOM     24  C   UNL     1       7.925   6.815  18.378  0.00  0.00    +0.000 C 
BRANCH  24  26
ATOM     25  N   UNL     1       9.019   8.931  19.153  0.00  0.00    +0.000 N 
ATOM     26  C   UNL     1       8.178   8.324  18.254  0.00  0.00    +0.000 C 
ATOM     27  O   UNL     1       7.596   8.910  17.336  0.00  0.00    +0.000 OA
ATOM     28  H   UNL     1       9.407   8.363  19.903  0.00  0.00    +0.000 HD
BRANCH  25  33
ATOM     29  C   UNL     1      10.380  14.516  19.337  0.00  0.00    +0.000 C 
ATOM     30  C   UNL     1      10.018  13.063  19.319  0.00  0.00    +0.000 A 
ATOM     31  C   UNL     1       9.674  12.383  20.492  0.00  0.00    +0.000 A 
ATOM     32  C   UNL     1       9.328  11.023  20.473  0.00  0.00    +0.000 A 
ATOM     33  C   UNL     1       9.330  10.307  19.272  0.00  0.00    +0.000 A 
ATOM     34  C   UNL     1       9.673  10.994  18.098  0.00  0.00    +0.000 A 
ATOM     35  C   UNL     1      10.017  12.345  18.112  0.00  0.00    +0.000 A 
ENDBRANCH  25  33
ENDBRANCH  24  26
ENDBRANCH  23  24
ENDBRANCH   1  23
TORSDOF 7
ENDMDL
MODEL 2
REMARK VINA RESULT:      -8.9      1.431      1.965
REMARK  Name = 
REMARK  10 active torsions:
REMARK  status: ('A' for Active; 'I' for Inactive)
REMARK    1  A    between atoms: C_1  and  C_2
REMARK    2  A    between atoms: C_5  and  N_6
REMARK    3  A    between atoms: C_7  and  C_9
REMARK    4  A    between atoms: C_9  and  C_10
REMARK    5  A    between atoms: C_10  and  N_11
REMARK    6  A    between atoms: C_16  and  C_17
REMARK    7  A    between atoms: N_19  and  C_20
REMARK    8  A    between atoms: C_20  and  C_21
REMARK    9  A    between atoms: C_24  and  C_25
REMARK   10  A    between atoms: C_26  and  C_27
REMARK                            x       y       z     vdW  Elec       q    Type
REMARK                         _______ _______ _______ _____ _____    ______ ____
ROOT
ATOM      1  N   UNL     1       6.156   5.520  17.012  0.00  0.00    +0.000 N 
ATOM      2  N   UNL     1       6.070   6.003  15.753  0.00  0.00    +0.000 NA
ATOM      3  N   UNL     1       5.044   6.824  15.697  0.00  0.00    +0.000 NA
ATOM      4  C   UNL     1       4.382   6.749  16.886  0.00  0.00    +0.000 A 
ATOM      5  C   UNL     1       3.300   7.503  17.355  0.00  0.00    +0.000 A 
ATOM      6  C   UNL     1       2.819   7.244  18.643  0.00  0.00    +0.000 A 
ATOM      7  C   UNL     1       3.287   6.127  19.354  0.00  0.00    +0.000 A 
ATOM      8  C   UNL     1       4.402   5.385  18.910  0.00  0.00    +0.000 A 
ATOM      9  C   UNL     1       4.984   5.790  17.700  0.00  0.00    +0.000 A 
ENDROOT
BRANCH   6  10
ATOM     10  C   UNL     1       1.921   8.277  19.259  0.00  0.00    +0.000 C 
ATOM     11  O   UNL     1       1.504   8.131  20.402  0.00  0.00    +0.000 OA
ATOM     12  N   UNL     1       1.517   9.290  18.414  0.00  0.00    +0.000 N 
ATOM     13  H   UNL     1       1.845   9.313  17.461  0.00  0.00    +0.000 HD
BRANCH  12  14
ATOM     14  C   UNL     1       0.424  10.199  18.725  0.00  0.00    +0.000 C 
BRANCH  14  15
ATOM     15  C   UNL     1       0.887  11.641  18.716  0.00  0.00    +0.000 A 
ATOM     16  C   UNL     1       2.188  11.963  18.317  0.00  0.00    +0.000 A 
ATOM     17  C   UNL     1       2.622  13.296  18.295  0.00  0.00    +0.000 A 
ATOM     18  C   UNL     1       1.769  14.346  18.664  0.00  0.00    +0.000 A 
ATOM     19  C   UNL     1       2.291  15.759  18.626  0.00  0.00    +0.000 C 
ATOM     20  C   UNL     1       0.451  14.042  19.056  0.00  0.00    +0.000 A 
ATOM     21  C   UNL     1      -0.546  15.106  19.435  0.00  0.00    +0.000 C 
ATOM     22  C   UNL     1       0.028  12.694  19.080  0.00  0.00    +0.000 A 
ENDBRANCH  14  15
ENDBRANCH  12  14
ENDBRANCH   6  10
BRANCH   1  23
ATOM     23  C   UNL     1       7.507   5.456  17.551  0.00  0.00    +0.000 C 
BRANCH  23  24
ATOM     24  C   UNL     1       7.913   6.470  18.613  0.00  0.00    +0.000 C 
BRANCH  24  26
ATOM     25  N   UNL     1       8.946   8.675  19.205  0.00  0.00    +0.000 N 
ATOM     26  C   UNL     1       8.147   7.964  18.343  0.00  0.00    +0.000 C 
ATOM     27  O   UNL     1       7.590   8.442  17.351  0.00  0.00    +0.000 OA
ATOM     28  H   UNL     1       9.315   8.193  20.022  0.00  0.00    +0.000 HD
BRANCH  25  33
ATOM     29  C   UNL     1      10.174  14.282  18.850  0.00  0.00    +0.000 C 
ATOM     30  C   UNL     1       9.850  12.825  18.973  0.00  0.00    +0.000 A 
ATOM     31  C   UNL     1       9.635  12.230  20.220  0.00  0.00    +0.000 A 
ATOM     32  C   UNL     1       9.323  10.865  20.333  0.00  0.00    +0.000 A 
ATOM     33  C   UNL     1       9.231  10.062  19.192  0.00  0.00    +0.000 A 
ATOM     34  C   UNL     1       9.445  10.665  17.944  0.00  0.00    +0.000 A 
ATOM     35  C   UNL     1       9.753  12.020  17.826  0.00  0.00    +0.000 A 
ENDBRANCH  25  33
ENDBRANCH  24  26
ENDBRANCH  23  24
ENDBRANCH   1  23
TORSDOF 7
ENDMDL
MODEL 3
REMARK VINA RESULT:      -8.6      3.021      4.687
REMARK  Name = 
REMARK  10 active torsions:
REMARK  status: ('A' for Active; 'I' for Inactive)
REMARK    1  A    between atoms: C_1  and  C_2
REMARK    2  A    between atoms: C_5  and  N_6
REMARK    3  A    between atoms: C_7  and  C_9
REMARK    4  A    between atoms: C_9  and  C_10
REMARK    5  A    between atoms: C_10  and  N_11
REMARK    6  A    between atoms: C_16  and  C_17
REMARK    7  A    between atoms: N_19  and  C_20
REMARK    8  A    between atoms: C_20  and  C_21
REMARK    9  A    between atoms: C_24  and  C_25
REMARK   10  A    between atoms: C_26  and  C_27
REMARK                            x       y       z     vdW  Elec       q    Type
REMARK                         _______ _______ _______ _____ _____    ______ ____
ROOT
ATOM      1  N   UNL     1       2.337   2.129  18.372  0.00  0.00    +0.000 N 
ATOM      2  N   UNL     1       2.557   2.360  17.059  0.00  0.00    +0.000 NA
ATOM      3  N   UNL     1       2.470   3.655  16.850  0.00  0.00    +0.000 NA
ATOM      4  C   UNL     1       2.044   4.239  18.006  0.00  0.00    +0.000 A 
ATOM      5  C   UNL     1       1.902   5.594  18.322  0.00  0.00    +0.000 A 
ATOM      6  C   UNL     1       1.468   5.935  19.609  0.00  0.00    +0.000 A 
ATOM      7  C   UNL     1       1.003   4.934  20.478  0.00  0.00    +0.000 A 
ATOM      8  C   UNL     1       1.178   3.565  20.186  0.00  0.00    +0.000 A 
ATOM      9  C   UNL     1       1.792   3.256  18.963  0.00  0.00    +0.000 A 
ENDROOT
BRANCH   6  10
ATOM     10  C   UNL     1       1.665   7.357  20.044  0.00  0.00    +0.000 C 
ATOM     11  O   UNL     1       2.207   8.163  19.297  0.00  0.00    +0.000 OA
ATOM     12  N   UNL     1       1.321   7.629  21.353  0.00  0.00    +0.000 N 
ATOM     13  H   UNL     1       0.942   6.900  21.937  0.00  0.00    +0.000 HD
BRANCH  12  14
ATOM     14  C   UNL     1       1.717   8.847  22.044  0.00  0.00    +0.000 C 
BRANCH  14  15
ATOM     15  C   UNL     1       0.596   9.866  22.049  0.00  0.00    +0.000 A 
ATOM     16  C   UNL     1      -0.305   9.921  23.117  0.00  0.00    +0.000 A 
ATOM     17  C   UNL     1      -1.338  10.868  23.135  0.00  0.00    +0.000 A 
ATOM     18  C   UNL     1      -1.498  11.792  22.092  0.00  0.00    +0.000 A 
ATOM     19  C   UNL     1      -2.631  12.784  22.162  0.00  0.00    +0.000 C 
ATOM     20  C   UNL     1      -0.592  11.760  21.014  0.00  0.00    +0.000 A 
ATOM     21  C   UNL     1      -0.664  12.735  19.868  0.00  0.00    +0.000 C 
ATOM     22  C   UNL     1       0.441  10.797  21.006  0.00  0.00    +0.000 A 
ENDBRANCH  14  15
ENDBRANCH  12  14
ENDBRANCH   6  10
BRANCH   1  23
ATOM     23  C   UNL     1       3.232   1.153  18.979  0.00  0.00    +0.000 C 
BRANCH  23  24
ATOM     24  C   UNL     1       4.641   1.596  19.353  0.00  0.00    +0.000 C 
BRANCH  24  26
ATOM     25  N   UNL     1       5.607   3.614  18.227  0.00  0.00    +0.000 N 
ATOM     26  C   UNL     1       5.115   3.056  19.381  0.00  0.00    +0.000 C 
ATOM     27  O   UNL     1       5.024   3.648  20.460  0.00  0.00    +0.000 OA
ATOM     28  H   UNL     1       5.686   3.020  17.405  0.00  0.00    +0.000 HD
BRANCH  25  33
ATOM     29  C   UNL     1       8.068   8.788  17.723  0.00  0.00    +0.000 C 
ATOM     30  C   UNL     1       7.407   7.449  17.833  0.00  0.00    +0.000 A 
ATOM     31  C   UNL     1       6.228   7.160  17.138  0.00  0.00    +0.000 A 
ATOM     32  C   UNL     1       5.613   5.901  17.235  0.00  0.00    +0.000 A 
ATOM     33  C   UNL     1       6.164   4.903  18.046  0.00  0.00    +0.000 A 
ATOM     34  C   UNL     1       7.348   5.198  18.739  0.00  0.00    +0.000 A 
ATOM     35  C   UNL     1       7.963   6.446  18.644  0.00  0.00    +0.000 A 
ENDBRANCH  25  33
ENDBRANCH  24  26
ENDBRANCH  23  24
ENDBRANCH   1  23
TORSDOF 7
ENDMDL
MODEL 4
REMARK VINA RESULT:      -8.5      2.945      4.576
REMARK  Name = 
REMARK  10 active torsions:
REMARK  status: ('A' for Active; 'I' for Inactive)
REMARK    1  A    between atoms: C_1  and  C_2
REMARK    2  A    between atoms: C_5  and  N_6
REMARK    3  A    between atoms: C_7  and  C_9
REMARK    4  A    between atoms: C_9  and  C_10
REMARK    5  A    between atoms: C_10  and  N_11
REMARK    6  A    between atoms: C_16  and  C_17
REMARK    7  A    between atoms: N_19  and  C_20
REMARK    8  A    between atoms: C_20  and  C_21
REMARK    9  A    between atoms: C_24  and  C_25
REMARK   10  A    between atoms: C_26  and  C_27
REMARK                            x       y       z     vdW  Elec       q    Type
REMARK                         _______ _______ _______ _____ _____    ______ ____
ROOT
ATOM      1  N   UNL     1       2.390   2.289  18.432  0.00  0.00    +0.000 N 
ATOM      2  N   UNL     1       2.488   2.505  17.102  0.00  0.00    +0.000 NA
ATOM      3  N   UNL     1       2.337   3.793  16.884  0.00  0.00    +0.000 NA
ATOM      4  C   UNL     1       1.992   4.381  18.064  0.00  0.00    +0.000 A 
ATOM      5  C   UNL     1       1.829   5.736  18.373  0.00  0.00    +0.000 A 
ATOM      6  C   UNL     1       1.496   6.083  19.687  0.00  0.00    +0.000 A 
ATOM      7  C   UNL     1       1.143   5.081  20.607  0.00  0.00    +0.000 A 
ATOM      8  C   UNL     1       1.341   3.714  20.320  0.00  0.00    +0.000 A 
ATOM      9  C   UNL     1       1.858   3.406  19.053  0.00  0.00    +0.000 A 
ENDROOT
BRANCH   6  10
ATOM     10  C   UNL     1       1.679   7.518  20.085  0.00  0.00    +0.000 C 
ATOM     11  O   UNL     1       1.978   7.807  21.238  0.00  0.00    +0.000 OA
ATOM     12  N   UNL     1       1.362   8.446  19.114  0.00  0.00    +0.000 N 
ATOM     13  H   UNL     1       1.055   8.140  18.204  0.00  0.00    +0.000 HD
BRANCH  12  14
ATOM     14  C   UNL     1       1.180   9.863  19.395  0.00  0.00    +0.000 C 
BRANCH  14  15
ATOM     15  C   UNL     1      -0.178  10.346  18.930  0.00  0.00    +0.000 A 
ATOM     16  C   UNL     1      -0.746   9.840  17.757  0.00  0.00    +0.000 A 
ATOM     17  C   UNL     1      -2.006  10.273  17.324  0.00  0.00    +0.000 A 
ATOM     18  C   UNL     1      -2.740  11.220  18.054  0.00  0.00    +0.000 A 
ATOM     19  C   UNL     1      -4.088  11.654  17.538  0.00  0.00    +0.000 C 
ATOM     20  C   UNL     1      -2.191  11.733  19.245  0.00  0.00    +0.000 A 
ATOM     21  C   UNL     1      -2.921  12.725  20.111  0.00  0.00    +0.000 C 
ATOM     22  C   UNL     1      -0.916  11.291  19.666  0.00  0.00    +0.000 A 
ENDBRANCH  14  15
ENDBRANCH  12  14
ENDBRANCH   6  10
BRANCH   1  23
ATOM     23  C   UNL     1       3.368   1.354  18.973  0.00  0.00    +0.000 C 
BRANCH  23  24
ATOM     24  C   UNL     1       4.631   1.917  19.614  0.00  0.00    +0.000 C 
BRANCH  24  26
ATOM     25  N   UNL     1       5.764   3.810  18.428  0.00  0.00    +0.000 N 
ATOM     26  C   UNL     1       5.066   3.387  19.532  0.00  0.00    +0.000 C 
ATOM     27  O   UNL     1       4.758   4.110  20.483  0.00  0.00    +0.000 OA
ATOM     28  H   UNL     1       6.011   3.118  17.724  0.00  0.00    +0.000 HD
BRANCH  25  33
ATOM     29  C   UNL     1       8.239   8.946  17.666  0.00  0.00    +0.000 C 
ATOM     30  C   UNL     1       7.574   7.616  17.842  0.00  0.00    +0.000 A 
ATOM     31  C   UNL     1       6.393   7.297  17.166  0.00  0.00    +0.000 A 
ATOM     32  C   UNL     1       5.774   6.046  17.326  0.00  0.00    +0.000 A 
ATOM     33  C   UNL     1       6.325   5.088  18.182  0.00  0.00    +0.000 A 
ATOM     34  C   UNL     1       7.512   5.412  18.857  0.00  0.00    +0.000 A 
ATOM     35  C   UNL     1       8.130   6.651  18.699  0.00  0.00    +0.000 A 
ENDBRANCH  25  33
ENDBRANCH  24  26
ENDBRANCH  23  24
ENDBRANCH   1  23
TORSDOF 7
ENDMDL
MODEL 5
REMARK VINA RESULT:      -8.4      1.056      1.465
REMARK  Name = 
REMARK  10 active torsions:
REMARK  status: ('A' for Active; 'I' for Inactive)
REMARK    1  A    between atoms: C_1  and  C_2
REMARK    2  A    between atoms: C_5  and  N_6
REMARK    3  A    between atoms: C_7  and  C_9
REMARK    4  A    between atoms: C_9  and  C_10
REMARK    5  A    between atoms: C_10  and  N_11
REMARK    6  A    between atoms: C_16  and  C_17
REMARK    7  A    between atoms: N_19  and  C_20
REMARK    8  A    between atoms: C_20  and  C_21
REMARK    9  A    between atoms: C_24  and  C_25
REMARK   10  A    between atoms: C_26  and  C_27
REMARK                            x       y       z     vdW  Elec       q    Type
REMARK                         _______ _______ _______ _____ _____    ______ ____
ROOT
ATOM      1  N   UNL     1       6.057   5.882  16.908  0.00  0.00    +0.000 N 
ATOM      2  N   UNL     1       5.730   6.564  15.788  0.00  0.00    +0.000 NA
ATOM      3  N   UNL     1       4.604   7.204  16.011  0.00  0.00    +0.000 NA
ATOM      4  C   UNL     1       4.131   6.810  17.227  0.00  0.00    +0.000 A 
ATOM      5  C   UNL     1       3.032   7.282  17.954  0.00  0.00    +0.000 A 
ATOM      6  C   UNL     1       2.775   6.721  19.210  0.00  0.00    +0.000 A 
ATOM      7  C   UNL     1       3.487   5.585  19.627  0.00  0.00    +0.000 A 
ATOM      8  C   UNL     1       4.621   5.126  18.923  0.00  0.00    +0.000 A 
ATOM      9  C   UNL     1       4.967   5.830  17.761  0.00  0.00    +0.000 A 
ENDROOT
BRANCH   6  10
ATOM     10  C   UNL     1       1.839   7.467  20.115  0.00  0.00    +0.000 C 
ATOM     11  O   UNL     1       1.334   6.906  21.080  0.00  0.00    +0.000 OA
ATOM     12  N   UNL     1       1.509   8.742  19.704  0.00  0.00    +0.000 N 
ATOM     13  H   UNL     1       1.909   9.120  18.860  0.00  0.00    +0.000 HD
BRANCH  12  14
ATOM     14  C   UNL     1       0.400   9.498  20.267  0.00  0.00    +0.000 C 
BRANCH  14  15
ATOM     15  C   UNL     1       0.540  10.979  19.977  0.00  0.00    +0.000 A 
ATOM     16  C   UNL     1      -0.324  11.901  20.575  0.00  0.00    +0.000 A 
ATOM     17  C   UNL     1      -0.195  13.274  20.322  0.00  0.00    +0.000 A 
ATOM     18  C   UNL     1       0.803  13.766  19.468  0.00  0.00    +0.000 A 
ATOM     19  C   UNL     1       0.891  15.251  19.227  0.00  0.00    +0.000 C 
ATOM     20  C   UNL     1       1.691  12.853  18.866  0.00  0.00    +0.000 A 
ATOM     21  C   UNL     1       2.814  13.292  17.964  0.00  0.00    +0.000 C 
ATOM     22  C   UNL     1       1.546  11.472  19.126  0.00  0.00    +0.000 A 
ENDBRANCH  14  15
ENDBRANCH  12  14
ENDBRANCH   6  10
BRANCH   1  23
ATOM     23  C   UNL     1       7.466   5.941  17.270  0.00  0.00    +0.000 C 
BRANCH  23  24
ATOM     24  C   UNL     1       7.884   6.861  18.411  0.00  0.00    +0.000 C 
BRANCH  24  26
ATOM     25  N   UNL     1       9.037   8.957  19.153  0.00  0.00    +0.000 N 
ATOM     26  C   UNL     1       8.193   8.356  18.252  0.00  0.00    +0.000 C 
ATOM     27  O   UNL     1       7.652   8.937  17.307  0.00  0.00    +0.000 OA
ATOM     28  H   UNL     1       9.389   8.396  19.926  0.00  0.00    +0.000 HD
BRANCH  25  33
ATOM     29  C   UNL     1      10.631  14.482  19.233  0.00  0.00    +0.000 C 
ATOM     30  C   UNL     1      10.205  13.047  19.241  0.00  0.00    +0.000 A 
ATOM     31  C   UNL     1       9.662  12.455  20.386  0.00  0.00    +0.000 A 
ATOM     32  C   UNL     1       9.255  11.111  20.389  0.00  0.00    +0.000 A 
ATOM     33  C   UNL     1       9.395  10.324  19.241  0.00  0.00    +0.000 A 
ATOM     34  C   UNL     1       9.939  10.924  18.095  0.00  0.00    +0.000 A 
ATOM     35  C   UNL     1      10.343  12.258  18.087  0.00  0.00    +0.000 A 
ENDBRANCH  25  33
ENDBRANCH  24  26
ENDBRANCH  23  24
ENDBRANCH   1  23
TORSDOF 7
ENDMDL
MODEL 6
REMARK VINA RESULT:      -8.3      4.551      5.938
REMARK  Name = 
REMARK  10 active torsions:
REMARK  status: ('A' for Active; 'I' for Inactive)
REMARK    1  A    between atoms: C_1  and  C_2
REMARK    2  A    between atoms: C_5  and  N_6
REMARK    3  A    between atoms: C_7  and  C_9
REMARK    4  A    between atoms: C_9  and  C_10
REMARK    5  A    between atoms: C_10  and  N_11
REMARK    6  A    between atoms: C_16  and  C_17
REMARK    7  A    between atoms: N_19  and  C_20
REMARK    8  A    between atoms: C_20  and  C_21
REMARK    9  A    between atoms: C_24  and  C_25
REMARK   10  A    between atoms: C_26  and  C_27
REMARK                            x       y       z     vdW  Elec       q    Type
REMARK                         _______ _______ _______ _____ _____    ______ ____
ROOT
ATOM      1  N   UNL     1       3.109   3.303  20.421  0.00  0.00    +0.000 N 
ATOM      2  N   UNL     1       2.078   3.199  21.288  0.00  0.00    +0.000 NA
ATOM      3  N   UNL     1       1.402   4.326  21.259  0.00  0.00    +0.000 NA
ATOM      4  C   UNL     1       2.091   5.209  20.483  0.00  0.00    +0.000 A 
ATOM      5  C   UNL     1       1.734   6.494  20.059  0.00  0.00    +0.000 A 
ATOM      6  C   UNL     1       2.621   7.191  19.231  0.00  0.00    +0.000 A 
ATOM      7  C   UNL     1       3.911   6.684  19.003  0.00  0.00    +0.000 A 
ATOM      8  C   UNL     1       4.268   5.375  19.391  0.00  0.00    +0.000 A 
ATOM      9  C   UNL     1       3.286   4.628  20.059  0.00  0.00    +0.000 A 
ENDROOT
BRANCH   6  10
ATOM     10  C   UNL     1       2.082   8.387  18.503  0.00  0.00    +0.000 C 
ATOM     11  O   UNL     1       2.422   8.613  17.347  0.00  0.00    +0.000 OA
ATOM     12  N   UNL     1       1.312   9.245  19.261  0.00  0.00    +0.000 N 
ATOM     13  H   UNL     1       1.126   9.033  20.229  0.00  0.00    +0.000 HD
BRANCH  12  14
ATOM     14  C   UNL     1       0.959  10.590  18.832  0.00  0.00    +0.000 C 
BRANCH  14  15
ATOM     15  C   UNL     1      -0.519  10.699  18.520  0.00  0.00    +0.000 A 
ATOM     16  C   UNL     1      -1.368  11.426  19.360  0.00  0.00    +0.000 A 
ATOM     17  C   UNL     1      -2.735  11.542  19.072  0.00  0.00    +0.000 A 
ATOM     18  C   UNL     1      -3.293  10.939  17.936  0.00  0.00    +0.000 A 
ATOM     19  C   UNL     1      -4.771  11.092  17.680  0.00  0.00    +0.000 C 
ATOM     20  C   UNL     1      -2.452  10.213  17.071  0.00  0.00    +0.000 A 
ATOM     21  C   UNL     1      -2.955   9.564  15.809  0.00  0.00    +0.000 C 
ATOM     22  C   UNL     1      -1.077  10.100  17.376  0.00  0.00    +0.000 A 
ENDBRANCH  14  15
ENDBRANCH  12  14
ENDBRANCH   6  10
BRANCH   1  23
ATOM     23  C   UNL     1       3.344   2.120  19.605  0.00  0.00    +0.000 C 
BRANCH  23  24
ATOM     24  C   UNL     1       2.921   2.154  18.141  0.00  0.00    +0.000 C 
BRANCH  24  26
ATOM     25  N   UNL     1       4.919   2.857  16.804  0.00  0.00    +0.000 N 
ATOM     26  C   UNL     1       3.582   3.027  17.066  0.00  0.00    +0.000 C 
ATOM     27  O   UNL     1       2.857   3.846  16.493  0.00  0.00    +0.000 OA
ATOM     28  H   UNL     1       5.435   2.188  17.372  0.00  0.00    +0.000 HD
BRANCH  25  33
ATOM     29  C   UNL     1       8.143   5.692  12.977  0.00  0.00    +0.000 C 
ATOM     30  C   UNL     1       7.317   4.970  13.997  0.00  0.00    +0.000 A 
ATOM     31  C   UNL     1       7.519   5.164  15.367  0.00  0.00    +0.000 A 
ATOM     32  C   UNL     1       6.738   4.492  16.322  0.00  0.00    +0.000 A 
ATOM     33  C   UNL     1       5.740   3.598  15.920  0.00  0.00    +0.000 A 
ATOM     34  C   UNL     1       5.541   3.409  14.544  0.00  0.00    +0.000 A 
ATOM     35  C   UNL     1       6.313   4.075  13.593  0.00  0.00    +0.000 A 
ENDBRANCH  25  33
ENDBRANCH  24  26
ENDBRANCH  23  24
ENDBRANCH   1  23
TORSDOF 7
ENDMDL
MODEL 7
REMARK VINA RESULT:      -8.3      1.824      8.087
REMARK  Name = 
REMARK  10 active torsions:
REMARK  status: ('A' for Active; 'I' for Inactive)
REMARK    1  A    between atoms: C_1  and  C_2
REMARK    2  A    between atoms: C_5  and  N_6
REMARK    3  A    between atoms: C_7  and  C_9
REMARK    4  A    between atoms: C_9  and  C_10
REMARK    5  A    between atoms: C_10  and  N_11
REMARK    6  A    between atoms: C_16  and  C_17
REMARK    7  A    between atoms: N_19  and  C_20
REMARK    8  A    between atoms: C_20  and  C_21
REMARK    9  A    between atoms: C_24  and  C_25
REMARK   10  A    between atoms: C_26  and  C_27
REMARK                            x       y       z     vdW  Elec       q    Type
REMARK                         _______ _______ _______ _____ _____    ______ ____
ROOT
ATOM      1  N   UNL     1       5.708   5.026  18.442  0.00  0.00    +0.000 N 
ATOM      2  N   UNL     1       6.660   4.243  18.995  0.00  0.00    +0.000 NA
ATOM      3  N   UNL     1       7.740   4.972  19.172  0.00  0.00    +0.000 NA
ATOM      4  C   UNL     1       7.526   6.186  18.590  0.00  0.00    +0.000 A 
ATOM      5  C   UNL     1       8.325   7.335  18.602  0.00  0.00    +0.000 A 
ATOM      6  C   UNL     1       7.856   8.477  17.942  0.00  0.00    +0.000 A 
ATOM      7  C   UNL     1       6.712   8.396  17.131  0.00  0.00    +0.000 A 
ATOM      8  C   UNL     1       5.879   7.258  17.143  0.00  0.00    +0.000 A 
ATOM      9  C   UNL     1       6.279   6.194  17.966  0.00  0.00    +0.000 A 
ENDROOT
BRANCH   6  10
ATOM     10  C   UNL     1       8.530   9.778  18.262  0.00  0.00    +0.000 C 
ATOM     11  O   UNL     1       8.398  10.743  17.518  0.00  0.00    +0.000 OA
ATOM     12  N   UNL     1       9.383   9.752  19.347  0.00  0.00    +0.000 N 
ATOM     13  H   UNL     1       9.498   8.903  19.877  0.00  0.00    +0.000 HD
BRANCH  12  14
ATOM     14  C   UNL     1      10.347  10.806  19.628  0.00  0.00    +0.000 C 
BRANCH  14  15
ATOM     15  C   UNL     1       9.835  11.749  20.697  0.00  0.00    +0.000 A 
ATOM     16  C   UNL     1      10.309  13.063  20.766  0.00  0.00    +0.000 A 
ATOM     17  C   UNL     1       9.833  13.947  21.744  0.00  0.00    +0.000 A 
ATOM     18  C   UNL     1       8.866  13.547  22.678  0.00  0.00    +0.000 A 
ATOM     19  C   UNL     1       8.395  14.538  23.711  0.00  0.00    +0.000 C 
ATOM     20  C   UNL     1       8.368  12.231  22.616  0.00  0.00    +0.000 A 
ATOM     21  C   UNL     1       7.304  11.725  23.554  0.00  0.00    +0.000 C 
ATOM     22  C   UNL     1       8.861  11.349  21.629  0.00  0.00    +0.000 A 
ENDBRANCH  14  15
ENDBRANCH  12  14
ENDBRANCH   6  10
BRANCH   1  23
ATOM     23  C   UNL     1       4.374   4.853  18.999  0.00  0.00    +0.000 C 
BRANCH  23  24
ATOM     24  C   UNL     1       3.297   5.866  18.631  0.00  0.00    +0.000 C 
BRANCH  24  26
ATOM     25  N   UNL     1       2.105   7.847  19.596  0.00  0.00    +0.000 N 
ATOM     26  C   UNL     1       2.313   6.490  19.631  0.00  0.00    +0.000 C 
ATOM     27  O   UNL     1       1.761   5.719  20.421  0.00  0.00    +0.000 OA
ATOM     28  H   UNL     1       2.652   8.397  18.937  0.00  0.00    +0.000 HD
BRANCH  25  33
ATOM     29  C   UNL     1      -1.201  11.220  22.878  0.00  0.00    +0.000 C 
ATOM     30  C   UNL     1      -0.331  10.326  22.049  0.00  0.00    +0.000 A 
ATOM     31  C   UNL     1       0.524   9.391  22.639  0.00  0.00    +0.000 A 
ATOM     32  C   UNL     1       1.334   8.548  21.860  0.00  0.00    +0.000 A 
ATOM     33  C   UNL     1       1.311   8.635  20.465  0.00  0.00    +0.000 A 
ATOM     34  C   UNL     1       0.449   9.573  19.878  0.00  0.00    +0.000 A 
ATOM     35  C   UNL     1      -0.357  10.411  20.647  0.00  0.00    +0.000 A 
ENDBRANCH  25  33
ENDBRANCH  24  26
ENDBRANCH  23  24
ENDBRANCH   1  23
TORSDOF 7
ENDMDL
MODEL 8
REMARK VINA RESULT:      -8.2      4.272      6.045
REMARK  Name = 
REMARK  10 active torsions:
REMARK  status: ('A' for Active; 'I' for Inactive)
REMARK    1  A    between atoms: C_1  and  C_2
REMARK    2  A    between atoms: C_5  and  N_6
REMARK    3  A    between atoms: C_7  and  C_9
REMARK    4  A    between atoms: C_9  and  C_10
REMARK    5  A    between atoms: C_10  and  N_11
REMARK    6  A    between atoms: C_16  and  C_17
REMARK    7  A    between atoms: N_19  and  C_20
REMARK    8  A    between atoms: C_20  and  C_21
REMARK    9  A    between atoms: C_24  and  C_25
REMARK   10  A    between atoms: C_26  and  C_27
REMARK                            x       y       z     vdW  Elec       q    Type
REMARK                         _______ _______ _______ _____ _____    ______ ____
ROOT
ATOM      1  N   UNL     1       1.495   3.014  20.449  0.00  0.00    +0.000 N 
ATOM      2  N   UNL     1       1.111   2.323  19.353  0.00  0.00    +0.000 NA
ATOM      3  N   UNL     1       1.179   3.128  18.315  0.00  0.00    +0.000 NA
ATOM      4  C   UNL     1       1.462   4.380  18.774  0.00  0.00    +0.000 A 
ATOM      5  C   UNL     1       1.740   5.551  18.059  0.00  0.00    +0.000 A 
ATOM      6  C   UNL     1       2.032   6.715  18.780  0.00  0.00    +0.000 A 
ATOM      7  C   UNL     1       1.852   6.740  20.172  0.00  0.00    +0.000 A 
ATOM      8  C   UNL     1       1.612   5.558  20.905  0.00  0.00    +0.000 A 
ATOM      9  C   UNL     1       1.511   4.370  20.167  0.00  0.00    +0.000 A 
ENDROOT
BRANCH   6  10
ATOM     10  C   UNL     1       2.671   7.844  18.026  0.00  0.00    +0.000 C 
ATOM     11  O   UNL     1       3.800   7.720  17.567  0.00  0.00    +0.000 OA
ATOM     12  N   UNL     1       1.959   9.027  18.015  0.00  0.00    +0.000 N 
ATOM     13  H   UNL     1       1.063   9.080  18.472  0.00  0.00    +0.000 HD
BRANCH  12  14
ATOM     14  C   UNL     1       2.536  10.300  17.611  0.00  0.00    +0.000 C 
BRANCH  14  15
ATOM     15  C   UNL     1       1.969  11.444  18.426  0.00  0.00    +0.000 A 
ATOM     16  C   UNL     1       1.040  11.197  19.441  0.00  0.00    +0.000 A 
ATOM     17  C   UNL     1       0.519  12.248  20.209  0.00  0.00    +0.000 A 
ATOM     18  C   UNL     1       0.914  13.576  19.988  0.00  0.00    +0.000 A 
ATOM     19  C   UNL     1       0.317  14.666  20.840  0.00  0.00    +0.000 C 
ATOM     20  C   UNL     1       1.859  13.843  18.978  0.00  0.00    +0.000 A 
ATOM     21  C   UNL     1       2.369  15.232  18.694  0.00  0.00    +0.000 C 
ATOM     22  C   UNL     1       2.372  12.775  18.209  0.00  0.00    +0.000 A 
ENDBRANCH  14  15
ENDBRANCH  12  14
ENDBRANCH   6  10
BRANCH   1  23
ATOM     23  C   UNL     1       2.371   2.285  21.356  0.00  0.00    +0.000 C 
BRANCH  23  24
ATOM     24  C   UNL     1       3.851   2.184  21.009  0.00  0.00    +0.000 C 
BRANCH  24  26
ATOM     25  N   UNL     1       4.933   3.525  19.191  0.00  0.00    +0.000 N 
ATOM     26  C   UNL     1       4.422   2.314  19.590  0.00  0.00    +0.000 C 
ATOM     27  O   UNL     1       4.383   1.305  18.881  0.00  0.00    +0.000 OA
ATOM     28  H   UNL     1       4.869   4.307  19.838  0.00  0.00    +0.000 HD
BRANCH  25  33
ATOM     29  C   UNL     1       7.210   5.127  14.158  0.00  0.00    +0.000 C 
ATOM     30  C   UNL     1       6.592   4.699  15.453  0.00  0.00    +0.000 A 
ATOM     31  C   UNL     1       5.287   4.199  15.508  0.00  0.00    +0.000 A 
ATOM     32  C   UNL     1       4.712   3.791  16.722  0.00  0.00    +0.000 A 
ATOM     33  C   UNL     1       5.433   3.887  17.916  0.00  0.00    +0.000 A 
ATOM     34  C   UNL     1       6.742   4.388  17.855  0.00  0.00    +0.000 A 
ATOM     35  C   UNL     1       7.318   4.792  16.652  0.00  0.00    +0.000 A 
ENDBRANCH  25  33
ENDBRANCH  24  26
ENDBRANCH  23  24
ENDBRANCH   1  23
TORSDOF 7
ENDMDL
MODEL 9
REMARK VINA RESULT:      -8.2      5.256     10.607
REMARK  Name = 
REMARK  10 active torsions:
REMARK  status: ('A' for Active; 'I' for Inactive)
REMARK    1  A    between atoms: C_1  and  C_2
REMARK    2  A    between atoms: C_5  and  N_6
REMARK    3  A    between atoms: C_7  and  C_9
REMARK    4  A    between atoms: C_9  and  C_10
REMARK    5  A    between atoms: C_10  and  N_11
REMARK    6  A    between atoms: C_16  and  C_17
REMARK    7  A    between atoms: N_19  and  C_20
REMARK    8  A    between atoms: C_20  and  C_21
REMARK    9  A    between atoms: C_24  and  C_25
REMARK   10  A    between atoms: C_26  and  C_27
REMARK                            x       y       z     vdW  Elec       q    Type
REMARK                         _______ _______ _______ _____ _____    ______ ____
ROOT
ATOM      1  N   UNL     1      -3.870  11.401  17.047  0.00  0.00    +0.000 N 
ATOM      2  N   UNL     1      -3.724  10.730  15.883  0.00  0.00    +0.000 NA
ATOM      3  N   UNL     1      -2.616  10.025  15.952  0.00  0.00    +0.000 NA
ATOM      4  C   UNL     1      -1.974  10.364  17.106  0.00  0.00    +0.000 A 
ATOM      5  C   UNL     1      -0.821   9.818  17.680  0.00  0.00    +0.000 A 
ATOM      6  C   UNL     1      -0.379  10.335  18.904  0.00  0.00    +0.000 A 
ATOM      7  C   UNL     1      -0.969  11.497  19.426  0.00  0.00    +0.000 A 
ATOM      8  C   UNL     1      -2.154  12.032  18.878  0.00  0.00    +0.000 A 
ATOM      9  C   UNL     1      -2.681  11.375  17.757  0.00  0.00    +0.000 A 
ENDROOT
BRANCH   6  10
ATOM     10  C   UNL     1       0.619   9.519  19.671  0.00  0.00    +0.000 C 
ATOM     11  O   UNL     1       0.973   9.868  20.791  0.00  0.00    +0.000 OA
ATOM     12  N   UNL     1       1.179   8.464  18.979  0.00  0.00    +0.000 N 
ATOM     13  H   UNL     1       0.892   8.272  18.033  0.00  0.00    +0.000 HD
BRANCH  12  14
ATOM     14  C   UNL     1       2.367   7.755  19.432  0.00  0.00    +0.000 C 
BRANCH  14  15
ATOM     15  C   UNL     1       2.201   6.256  19.292  0.00  0.00    +0.000 A 
ATOM     16  C   UNL     1       2.252   5.654  18.031  0.00  0.00    +0.000 A 
ATOM     17  C   UNL     1       2.111   4.266  17.892  0.00  0.00    +0.000 A 
ATOM     18  C   UNL     1       1.919   3.439  19.009  0.00  0.00    +0.000 A 
ATOM     19  C   UNL     1       1.766   1.954  18.799  0.00  0.00    +0.000 C 
ATOM     20  C   UNL     1       1.877   4.026  20.288  0.00  0.00    +0.000 A 
ATOM     21  C   UNL     1       1.711   3.214  21.546  0.00  0.00    +0.000 C 
ATOM     22  C   UNL     1       2.015   5.427  20.412  0.00  0.00    +0.000 A 
ENDBRANCH  14  15
ENDBRANCH  12  14
ENDBRANCH   6  10
BRANCH   1  23
ATOM     23  C   UNL     1      -5.224  11.408  17.583  0.00  0.00    +0.000 C 
BRANCH  23  24
ATOM     24  C   UNL     1      -5.687  12.630  18.367  0.00  0.00    +0.000 C 
BRANCH  24  26
ATOM     25  N   UNL     1      -4.715  13.943  20.266  0.00  0.00    +0.000 N 
ATOM     26  C   UNL     1      -5.437  12.845  19.866  0.00  0.00    +0.000 C 
ATOM     27  O   UNL     1      -5.907  12.001  20.634  0.00  0.00    +0.000 OA
ATOM     28  H   UNL     1      -4.329  14.549  19.545  0.00  0.00    +0.000 HD
BRANCH  25  33
ATOM     29  C   UNL     1      -2.799  15.170  25.548  0.00  0.00    +0.000 C 
ATOM     30  C   UNL     1      -3.323  14.868  24.178  0.00  0.00    +0.000 A 
ATOM     31  C   UNL     1      -4.592  15.294  23.773  0.00  0.00    +0.000 A 
ATOM     32  C   UNL     1      -5.079  15.017  22.486  0.00  0.00    +0.000 A 
ATOM     33  C   UNL     1      -4.304  14.292  21.575  0.00  0.00    +0.000 A 
ATOM     34  C   UNL     1      -3.031  13.869  21.986  0.00  0.00    +0.000 A 
ATOM     35  C   UNL     1      -2.543  14.143  23.263  0.00  0.00    +0.000 A 
ENDBRANCH  25  33
ENDBRANCH  24  26
ENDBRANCH  23  24
ENDBRANCH   1  23
TORSDOF 7
ENDMDL
