MODEL 1
REMARK VINA RESULT:      -8.1      0.000      0.000
REMARK  Name = 
REMARK  3 active torsions:
REMARK  status: ('A' for Active; 'I' for Inactive)
REMARK    1  A    between atoms: C_1  and  C_2
REMARK    2  A    between atoms: C_5  and  C_6
REMARK    3  A    between atoms: C_16  and  C_17
REMARK                            x       y       z     vdW  Elec       q    Type
REMARK                         _______ _______ _______ _____ _____    ______ ____
ROOT
ATOM      1  C   UNL     1       1.847   8.528  17.835  0.00  0.00    +0.000 C 
ATOM      2  C   UNL     1       2.363   7.575  18.635  0.00  0.00    +0.000 C 
ATOM      3  C   UNL     1       2.154   7.308  20.097  0.00  0.00    +0.000 C 
ATOM      4  C   UNL     1       1.990   5.828  20.472  0.00  0.00    +0.000 C 
ATOM      5  C   UNL     1       2.855   4.867  19.689  0.00  0.00    +0.000 C 
ATOM      6  C   UNL     1       3.462   3.835  20.304  0.00  0.00    +0.000 C 
ATOM      7  C   UNL     1       4.160   2.776  19.540  0.00  0.00    +0.000 C 
ATOM      8  O   UNL     1       4.712   1.861  20.143  0.00  0.00    +0.000 OA
ATOM      9  C   UNL     1       4.059   2.801  18.033  0.00  0.00    +0.000 C 
ATOM     10  C   UNL     1       4.025   4.232  17.523  0.00  0.00    +0.000 C 
ATOM     11  C   UNL     1       2.921   5.093  18.181  0.00  0.00    +0.000 C 
ATOM     12  C   UNL     1       1.550   4.777  17.553  0.00  0.00    +0.000 C 
ATOM     13  C   UNL     1       3.241   6.583  17.931  0.00  0.00    +0.000 C 
ATOM     14  O   UNL     1       4.109   6.967  17.152  0.00  0.00    +0.000 OA
ENDROOT
BRANCH   1  19
ATOM     15  C   UNL     1      -1.752  12.841  19.267  0.00  0.00    +0.000 C 
ATOM     16  C   UNL     1      -0.838  11.721  18.868  0.00  0.00    +0.000 A 
ATOM     17  C   UNL     1      -1.324  10.605  18.180  0.00  0.00    +0.000 A 
ATOM     18  C   UNL     1      -0.468   9.550  17.842  0.00  0.00    +0.000 A 
ATOM     19  C   UNL     1       0.894   9.605  18.148  0.00  0.00    +0.000 A 
ATOM     20  C   UNL     1       1.368  10.716  18.861  0.00  0.00    +0.000 A 
ATOM     21  C   UNL     1       0.511  11.760  19.224  0.00  0.00    +0.000 A 
ENDBRANCH   1  19
TORSDOF 1
ENDMDL
MODEL 2
REMARK VINA RESULT:      -8.0      0.206      1.065
REMARK  Name = 
REMARK  3 active torsions:
REMARK  status: ('A' for Active; 'I' for Inactive)
REMARK    1  A    between atoms: C_1  and  C_2
REMARK    2  A    between atoms: C_5  and  C_6
REMARK    3  A    between atoms: C_16  and  C_17
REMARK                            x       y       z     vdW  Elec       q    Type
REMARK                         _______ _______ _______ _____ _____    ______ ____
ROOT
ATOM      1  C   UNL     1       1.928   8.472  17.826  0.00  0.00    +0.000 C 
ATOM      2  C   UNL     1       2.415   7.478  18.593  0.00  0.00    +0.000 C 
ATOM      3  C   UNL     1       2.217   7.180  20.049  0.00  0.00    +0.000 C 
ATOM      4  C   UNL     1       1.997   5.698  20.388  0.00  0.00    +0.000 C 
ATOM      5  C   UNL     1       2.809   4.723  19.566  0.00  0.00    +0.000 C 
ATOM      6  C   UNL     1       3.381   3.651  20.143  0.00  0.00    +0.000 C 
ATOM      7  C   UNL     1       4.022   2.585  19.339  0.00  0.00    +0.000 C 
ATOM      8  O   UNL     1       4.544   1.631  19.909  0.00  0.00    +0.000 OA
ATOM      9  C   UNL     1       3.899   2.655  17.836  0.00  0.00    +0.000 C 
ATOM     10  C   UNL     1       3.918   4.100  17.364  0.00  0.00    +0.000 C 
ATOM     11  C   UNL     1       2.861   4.988  18.063  0.00  0.00    +0.000 C 
ATOM     12  C   UNL     1       1.469   4.746  17.450  0.00  0.00    +0.000 C 
ATOM     13  C   UNL     1       3.240   6.469  17.848  0.00  0.00    +0.000 C 
ATOM     14  O   UNL     1       4.112   6.838  17.066  0.00  0.00    +0.000 OA
ENDROOT
BRANCH   1  19
ATOM     15  C   UNL     1      -1.795  12.744  19.052  0.00  0.00    +0.000 C 
ATOM     16  C   UNL     1      -0.814  11.648  18.762  0.00  0.00    +0.000 A 
ATOM     17  C   UNL     1       0.552  11.820  19.004  0.00  0.00    +0.000 A 
ATOM     18  C   UNL     1       1.463  10.802  18.698  0.00  0.00    +0.000 A 
ATOM     19  C   UNL     1       1.026   9.580  18.183  0.00  0.00    +0.000 A 
ATOM     20  C   UNL     1      -0.344   9.424  17.919  0.00  0.00    +0.000 A 
ATOM     21  C   UNL     1      -1.253  10.448  18.199  0.00  0.00    +0.000 A 
ENDBRANCH   1  19
TORSDOF 1
ENDMDL
MODEL 3
REMARK VINA RESULT:      -7.6      1.914      2.208
REMARK  Name = 
REMARK  3 active torsions:
REMARK  status: ('A' for Active; 'I' for Inactive)
REMARK    1  A    between atoms: C_1  and  C_2
REMARK    2  A    between atoms: C_5  and  C_6
REMARK    3  A    between atoms: C_16  and  C_17
REMARK                            x       y       z     vdW  Elec       q    Type
REMARK                         _______ _______ _______ _____ _____    ______ ____
ROOT
ATOM      1  C   UNL     1       1.951   7.943  19.673  0.00  0.00    +0.000 C 
ATOM      2  C   UNL     1       2.301   6.666  19.923  0.00  0.00    +0.000 C 
ATOM      3  C   UNL     1       1.952   5.764  21.070  0.00  0.00    +0.000 C 
ATOM      4  C   UNL     1       1.605   4.320  20.681  0.00  0.00    +0.000 C 
ATOM      5  C   UNL     1       2.422   3.745  19.546  0.00  0.00    +0.000 C 
ATOM      6  C   UNL     1       2.866   2.476  19.596  0.00  0.00    +0.000 C 
ATOM      7  C   UNL     1       3.505   1.830  18.427  0.00  0.00    +0.000 C 
ATOM      8  O   UNL     1       3.909   0.674  18.523  0.00  0.00    +0.000 OA
ATOM      9  C   UNL     1       3.524   2.583  17.118  0.00  0.00    +0.000 C 
ATOM     10  C   UNL     1       3.681   4.075  17.362  0.00  0.00    +0.000 C 
ATOM     11  C   UNL     1       2.627   4.653  18.336  0.00  0.00    +0.000 C 
ATOM     12  C   UNL     1       1.282   4.855  17.611  0.00  0.00    +0.000 C 
ATOM     13  C   UNL     1       3.121   6.026  18.842  0.00  0.00    +0.000 C 
ATOM     14  O   UNL     1       4.082   6.618  18.359  0.00  0.00    +0.000 OA
ENDROOT
BRANCH   1  19
ATOM     15  C   UNL     1      -1.412  11.357  22.935  0.00  0.00    +0.000 C 
ATOM     16  C   UNL     1      -0.538  10.499  22.070  0.00  0.00    +0.000 A 
ATOM     17  C   UNL     1      -0.585  10.598  20.676  0.00  0.00    +0.000 A 
ATOM     18  C   UNL     1       0.211   9.768  19.876  0.00  0.00    +0.000 A 
ATOM     19  C   UNL     1       1.097   8.854  20.451  0.00  0.00    +0.000 A 
ATOM     20  C   UNL     1       1.119   8.744  21.850  0.00  0.00    +0.000 A 
ATOM     21  C   UNL     1       0.306   9.551  22.651  0.00  0.00    +0.000 A 
ENDBRANCH   1  19
TORSDOF 1
ENDMDL
MODEL 4
REMARK VINA RESULT:      -7.6      1.894      2.294
REMARK  Name = 
REMARK  3 active torsions:
REMARK  status: ('A' for Active; 'I' for Inactive)
REMARK    1  A    between atoms: C_1  and  C_2
REMARK    2  A    between atoms: C_5  and  C_6
REMARK    3  A    between atoms: C_16  and  C_17
REMARK                            x       y       z     vdW  Elec       q    Type
REMARK                         _______ _______ _______ _____ _____    ______ ____
ROOT
ATOM      1  C   UNL     1       1.920   7.905  19.749  0.00  0.00    +0.000 C 
ATOM      2  C   UNL     1       2.287   6.629  19.973  0.00  0.00    +0.000 C 
ATOM      3  C   UNL     1       1.962   5.704  21.108  0.00  0.00    +0.000 C 
ATOM      4  C   UNL     1       1.627   4.262  20.700  0.00  0.00    +0.000 C 
ATOM      5  C   UNL     1       2.437   3.716  19.546  0.00  0.00    +0.000 C 
ATOM      6  C   UNL     1       2.898   2.452  19.569  0.00  0.00    +0.000 C 
ATOM      7  C   UNL     1       3.531   1.832  18.383  0.00  0.00    +0.000 C 
ATOM      8  O   UNL     1       3.949   0.681  18.455  0.00  0.00    +0.000 OA
ATOM      9  C   UNL     1       3.525   2.608  17.087  0.00  0.00    +0.000 C 
ATOM     10  C   UNL     1       3.668   4.097  17.354  0.00  0.00    +0.000 C 
ATOM     11  C   UNL     1       2.618   4.646  18.349  0.00  0.00    +0.000 C 
ATOM     12  C   UNL     1       1.263   4.844  17.643  0.00  0.00    +0.000 C 
ATOM     13  C   UNL     1       3.102   6.016  18.872  0.00  0.00    +0.000 C 
ATOM     14  O   UNL     1       4.050   6.628  18.389  0.00  0.00    +0.000 OA
ENDROOT
BRANCH   1  19
ATOM     15  C   UNL     1      -1.445  11.577  22.716  0.00  0.00    +0.000 C 
ATOM     16  C   UNL     1      -0.582  10.604  21.971  0.00  0.00    +0.000 A 
ATOM     17  C   UNL     1       0.194   9.661  22.652  0.00  0.00    +0.000 A 
ATOM     18  C   UNL     1       1.022   8.778  21.948  0.00  0.00    +0.000 A 
ATOM     19  C   UNL     1       1.063   8.793  20.552  0.00  0.00    +0.000 A 
ATOM     20  C   UNL     1       0.302   9.759  19.877  0.00  0.00    +0.000 A 
ATOM     21  C   UNL     1      -0.506  10.660  20.578  0.00  0.00    +0.000 A 
ENDBRANCH   1  19
TORSDOF 1
ENDMDL
MODEL 5
REMARK VINA RESULT:      -7.5      3.312      7.314
REMARK  Name = 
REMARK  3 active torsions:
REMARK  status: ('A' for Active; 'I' for Inactive)
REMARK    1  A    between atoms: C_1  and  C_2
REMARK    2  A    between atoms: C_5  and  C_6
REMARK    3  A    between atoms: C_16  and  C_17
REMARK                            x       y       z     vdW  Elec       q    Type
REMARK                         _______ _______ _______ _____ _____    ______ ____
ROOT
ATOM      1  C   UNL     1       5.343   4.332  16.527  0.00  0.00    +0.000 C 
ATOM      2  C   UNL     1       4.829   5.342  17.254  0.00  0.00    +0.000 C 
ATOM      3  C   UNL     1       4.674   6.799  16.931  0.00  0.00    +0.000 C 
ATOM      4  C   UNL     1       3.336   7.422  17.354  0.00  0.00    +0.000 C 
ATOM      5  C   UNL     1       2.780   6.921  18.668  0.00  0.00    +0.000 C 
ATOM      6  C   UNL     1       2.213   7.774  19.541  0.00  0.00    +0.000 C 
ATOM      7  C   UNL     1       1.498   7.292  20.745  0.00  0.00    +0.000 C 
ATOM      8  O   UNL     1       1.009   8.107  21.522  0.00  0.00    +0.000 OA
ATOM      9  C   UNL     1       1.294   5.804  20.905  0.00  0.00    +0.000 C 
ATOM     10  C   UNL     1       2.484   5.038  20.351  0.00  0.00    +0.000 C 
ATOM     11  C   UNL     1       2.829   5.412  18.889  0.00  0.00    +0.000 C 
ATOM     12  C   UNL     1       1.856   4.717  17.916  0.00  0.00    +0.000 C 
ATOM     13  C   UNL     1       4.261   4.925  18.579  0.00  0.00    +0.000 C 
ATOM     14  O   UNL     1       4.897   4.181  19.320  0.00  0.00    +0.000 OA
ENDROOT
BRANCH   1  19
ATOM     15  C   UNL     1       7.433   4.148  11.122  0.00  0.00    +0.000 C 
ATOM     16  C   UNL     1       6.903   4.228  12.523  0.00  0.00    +0.000 A 
ATOM     17  C   UNL     1       7.596   4.925  13.517  0.00  0.00    +0.000 A 
ATOM     18  C   UNL     1       7.110   4.964  14.830  0.00  0.00    +0.000 A 
ATOM     19  C   UNL     1       5.906   4.343  15.167  0.00  0.00    +0.000 A 
ATOM     20  C   UNL     1       5.230   3.623  14.170  0.00  0.00    +0.000 A 
ATOM     21  C   UNL     1       5.726   3.559  12.864  0.00  0.00    +0.000 A 
ENDBRANCH   1  19
TORSDOF 1
ENDMDL
MODEL 6
REMARK VINA RESULT:      -7.5      3.307      7.239
REMARK  Name = 
REMARK  3 active torsions:
REMARK  status: ('A' for Active; 'I' for Inactive)
REMARK    1  A    between atoms: C_1  and  C_2
REMARK    2  A    between atoms: C_5  and  C_6
REMARK    3  A    between atoms: C_16  and  C_17
REMARK                            x       y       z     vdW  Elec       q    Type
REMARK                         _______ _______ _______ _____ _____    ______ ____
ROOT
ATOM      1  C   UNL     1       5.306   4.203  16.496  0.00  0.00    +0.000 C 
ATOM      2  C   UNL     1       4.808   5.230  17.211  0.00  0.00    +0.000 C 
ATOM      3  C   UNL     1       4.648   6.680  16.858  0.00  0.00    +0.000 C 
ATOM      4  C   UNL     1       3.320   7.315  17.295  0.00  0.00    +0.000 C 
ATOM      5  C   UNL     1       2.792   6.845  18.631  0.00  0.00    +0.000 C 
ATOM      6  C   UNL     1       2.245   7.718  19.497  0.00  0.00    +0.000 C 
ATOM      7  C   UNL     1       1.555   7.265  20.726  0.00  0.00    +0.000 C 
ATOM      8  O   UNL     1       1.084   8.098  21.495  0.00  0.00    +0.000 OA
ATOM      9  C   UNL     1       1.352   5.782  20.924  0.00  0.00    +0.000 C 
ATOM     10  C   UNL     1       2.529   5.001  20.362  0.00  0.00    +0.000 C 
ATOM     11  C   UNL     1       2.843   5.341  18.885  0.00  0.00    +0.000 C 
ATOM     12  C   UNL     1       1.849   4.627  17.949  0.00  0.00    +0.000 C 
ATOM     13  C   UNL     1       4.268   4.845  18.556  0.00  0.00    +0.000 C 
ATOM     14  O   UNL     1       4.919   4.116  19.300  0.00  0.00    +0.000 OA
ENDROOT
BRANCH   1  19
ATOM     15  C   UNL     1       7.533   4.344  11.145  0.00  0.00    +0.000 C 
ATOM     16  C   UNL     1       6.946   4.276  12.524  0.00  0.00    +0.000 A 
ATOM     17  C   UNL     1       5.749   3.596  12.764  0.00  0.00    +0.000 A 
ATOM     18  C   UNL     1       5.193   3.567  14.049  0.00  0.00    +0.000 A 
ATOM     19  C   UNL     1       5.839   4.182  15.124  0.00  0.00    +0.000 A 
ATOM     20  C   UNL     1       7.026   4.885  14.869  0.00  0.00    +0.000 A 
ATOM     21  C   UNL     1       7.571   4.938  13.582  0.00  0.00    +0.000 A 
ENDBRANCH   1  19
TORSDOF 1
ENDMDL
MODEL 7
REMARK VINA RESULT:      -7.3      4.804      6.247
REMARK  Name = 
REMARK  3 active torsions:
REMARK  status: ('A' for Active; 'I' for Inactive)
REMARK    1  A    between atoms: C_1  and  C_2
REMARK    2  A    between atoms: C_5  and  C_6
REMARK    3  A    between atoms: C_16  and  C_17
REMARK                            x       y       z     vdW  Elec       q    Type
REMARK                         _______ _______ _______ _____ _____    ______ ____
ROOT
ATOM      1  C   UNL     1       7.505   8.205  17.299  0.00  0.00    +0.000 C 
ATOM      2  C   UNL     1       7.196   6.963  17.720  0.00  0.00    +0.000 C 
ATOM      3  C   UNL     1       7.507   6.262  19.010  0.00  0.00    +0.000 C 
ATOM      4  C   UNL     1       6.353   5.441  19.600  0.00  0.00    +0.000 C 
ATOM      5  C   UNL     1       5.493   4.719  18.587  0.00  0.00    +0.000 C 
ATOM      6  C   UNL     1       5.069   3.463  18.819  0.00  0.00    +0.000 C 
ATOM      7  C   UNL     1       4.080   2.801  17.938  0.00  0.00    +0.000 C 
ATOM      8  O   UNL     1       3.733   1.648  18.180  0.00  0.00    +0.000 OA
ATOM      9  C   UNL     1       3.444   3.620  16.840  0.00  0.00    +0.000 C 
ATOM     10  C   UNL     1       4.437   4.622  16.276  0.00  0.00    +0.000 C 
ATOM     11  C   UNL     1       5.082   5.523  17.357  0.00  0.00    +0.000 C 
ATOM     12  C   UNL     1       4.105   6.639  17.775  0.00  0.00    +0.000 C 
ATOM     13  C   UNL     1       6.348   6.178  16.763  0.00  0.00    +0.000 C 
ATOM     14  O   UNL     1       6.634   6.138  15.570  0.00  0.00    +0.000 OA
ENDROOT
BRANCH   1  19
ATOM     15  C   UNL     1      10.419  12.553  19.792  0.00  0.00    +0.000 C 
ATOM     16  C   UNL     1       9.658  11.417  19.177  0.00  0.00    +0.000 A 
ATOM     17  C   UNL     1       9.673  10.144  19.755  0.00  0.00    +0.000 A 
ATOM     18  C   UNL     1       8.986   9.081  19.155  0.00  0.00    +0.000 A 
ATOM     19  C   UNL     1       8.240   9.277  17.991  0.00  0.00    +0.000 A 
ATOM     20  C   UNL     1       8.251  10.551  17.403  0.00  0.00    +0.000 A 
ATOM     21  C   UNL     1       8.957  11.608  17.985  0.00  0.00    +0.000 A 
ENDBRANCH   1  19
TORSDOF 1
ENDMDL
MODEL 8
REMARK VINA RESULT:      -7.2      0.968      1.006
REMARK  Name = 
REMARK  3 active torsions:
REMARK  status: ('A' for Active; 'I' for Inactive)
REMARK    1  A    between atoms: C_1  and  C_2
REMARK    2  A    between atoms: C_5  and  C_6
REMARK    3  A    between atoms: C_16  and  C_17
REMARK                            x       y       z     vdW  Elec       q    Type
REMARK                         _______ _______ _______ _____ _____    ______ ____
ROOT
ATOM      1  C   UNL     1       2.065   8.215  18.340  0.00  0.00    +0.000 C 
ATOM      2  C   UNL     1       2.526   7.116  18.968  0.00  0.00    +0.000 C 
ATOM      3  C   UNL     1       2.386   6.676  20.395  0.00  0.00    +0.000 C 
ATOM      4  C   UNL     1       2.087   5.183  20.590  0.00  0.00    +0.000 C 
ATOM      5  C   UNL     1       2.789   4.255  19.624  0.00  0.00    +0.000 C 
ATOM      6  C   UNL     1       3.319   3.094  20.052  0.00  0.00    +0.000 C 
ATOM      7  C   UNL     1       3.845   2.084  19.105  0.00  0.00    +0.000 C 
ATOM      8  O   UNL     1       4.332   1.045  19.541  0.00  0.00    +0.000 OA
ATOM      9  C   UNL     1       3.647   2.323  17.627  0.00  0.00    +0.000 C 
ATOM     10  C   UNL     1       3.736   3.806  17.308  0.00  0.00    +0.000 C 
ATOM     11  C   UNL     1       2.779   4.676  18.157  0.00  0.00    +0.000 C 
ATOM     12  C   UNL     1       1.342   4.585  17.606  0.00  0.00    +0.000 C 
ATOM     13  C   UNL     1       3.242   6.146  18.075  0.00  0.00    +0.000 C 
ATOM     14  O   UNL     1       4.093   6.544  17.284  0.00  0.00    +0.000 OA
ENDROOT
BRANCH   1  19
ATOM     15  C   UNL     1      -0.921  12.769  20.329  0.00  0.00    +0.000 C 
ATOM     16  C   UNL     1      -0.176  11.572  19.818  0.00  0.00    +0.000 A 
ATOM     17  C   UNL     1      -0.407  10.299  20.349  0.00  0.00    +0.000 A 
ATOM     18  C   UNL     1       0.319   9.194  19.888  0.00  0.00    +0.000 A 
ATOM     19  C   UNL     1       1.258   9.329  18.863  0.00  0.00    +0.000 A 
ATOM     20  C   UNL     1       1.501  10.614  18.353  0.00  0.00    +0.000 A 
ATOM     21  C   UNL     1       0.798  11.724  18.830  0.00  0.00    +0.000 A 
ENDBRANCH   1  19
TORSDOF 1
ENDMDL
MODEL 9
REMARK VINA RESULT:      -7.1      4.791      6.228
REMARK  Name = 
REMARK  3 active torsions:
REMARK  status: ('A' for Active; 'I' for Inactive)
REMARK    1  A    between atoms: C_1  and  C_2
REMARK    2  A    between atoms: C_5  and  C_6
REMARK    3  A    between atoms: C_16  and  C_17
REMARK                            x       y       z     vdW  Elec       q    Type
REMARK                         _______ _______ _______ _____ _____    ______ ____
ROOT
ATOM      1  C   UNL     1       7.471   8.234  17.235  0.00  0.00    +0.000 C 
ATOM      2  C   UNL     1       7.183   6.993  17.673  0.00  0.00    +0.000 C 
ATOM      3  C   UNL     1       7.556   6.296  18.948  0.00  0.00    +0.000 C 
ATOM      4  C   UNL     1       6.432   5.475  19.595  0.00  0.00    +0.000 C 
ATOM      5  C   UNL     1       5.525   4.749  18.626  0.00  0.00    +0.000 C 
ATOM      6  C   UNL     1       5.114   3.494  18.881  0.00  0.00    +0.000 C 
ATOM      7  C   UNL     1       4.085   2.829  18.049  0.00  0.00    +0.000 C 
ATOM      8  O   UNL     1       3.751   1.677  18.311  0.00  0.00    +0.000 OA
ATOM      9  C   UNL     1       3.396   3.644  16.981  0.00  0.00    +0.000 C 
ATOM     10  C   UNL     1       4.360   4.646  16.368  0.00  0.00    +0.000 C 
ATOM     11  C   UNL     1       5.055   5.550  17.415  0.00  0.00    +0.000 C 
ATOM     12  C   UNL     1       4.099   6.667  17.876  0.00  0.00    +0.000 C 
ATOM     13  C   UNL     1       6.291   6.205  16.760  0.00  0.00    +0.000 C 
ATOM     14  O   UNL     1       6.519   6.162  15.554  0.00  0.00    +0.000 OA
ENDROOT
BRANCH   1  19
ATOM     15  C   UNL     1      10.456  12.340  20.034  0.00  0.00    +0.000 C 
ATOM     16  C   UNL     1       9.694  11.291  19.280  0.00  0.00    +0.000 A 
ATOM     17  C   UNL     1       9.026  11.600  18.092  0.00  0.00    +0.000 A 
ATOM     18  C   UNL     1       8.289  10.621  17.414  0.00  0.00    +0.000 A 
ATOM     19  C   UNL     1       8.236   9.308  17.887  0.00  0.00    +0.000 A 
ATOM     20  C   UNL     1       8.887   9.013  19.095  0.00  0.00    +0.000 A 
ATOM     21  C   UNL     1       9.602   9.994  19.788  0.00  0.00    +0.000 A 
ENDBRANCH   1  19
TORSDOF 1
ENDMDL
