MODEL 1
REMARK VINA RESULT:      -7.7      0.000      0.000
REMARK  Name = 
REMARK  3 active torsions:
REMARK  status: ('A' for Active; 'I' for Inactive)
REMARK    1  A    between atoms: N_11  and  C_12
REMARK    2  A    between atoms: C_12  and  C_13
REMARK    3  A    between atoms: C_16  and  C_17
REMARK                            x       y       z     vdW  Elec       q    Type
REMARK                         _______ _______ _______ _____ _____    ______ ____
ROOT
ATOM      1  O   UNL     1       5.485   7.205  17.326  0.00  0.00    +0.000 OA
ATOM      2  C   UNL     1       4.622   6.402  17.696  0.00  0.00    +0.000 C 
ATOM      3  C   UNL     1       3.211   6.905  17.925  0.00  0.00    +0.000 C 
ATOM      4  S   UNL     1       2.461   6.166  19.376  0.00  0.00    +0.000 S 
ATOM      5  C   UNL     1       2.703   4.479  18.868  0.00  0.00    +0.000 A 
ATOM      6  C   UNL     1       1.728   3.544  19.248  0.00  0.00    +0.000 A 
ATOM      7  C   UNL     1       1.856   2.206  18.889  0.00  0.00    +0.000 A 
ATOM      8  C   UNL     1       2.966   1.795  18.163  0.00  0.00    +0.000 A 
ATOM      9  C   UNL     1       3.950   2.721  17.797  0.00  0.00    +0.000 A 
ATOM     10  C   UNL     1       3.840   4.078  18.136  0.00  0.00    +0.000 A 
ATOM     11  N   UNL     1       4.857   5.026  17.759  0.00  0.00    +0.000 N 
ENDROOT
BRANCH  11  12
ATOM     12  C   UNL     1       6.200   4.566  17.376  0.00  0.00    +0.000 C 
BRANCH  12  13
ATOM     13  C   UNL     1       6.478   4.694  15.912  0.00  0.00    +0.000 A 
ATOM     14  N   UNL     1       7.591   5.289  15.452  0.00  0.00    +0.000 NA
ATOM     15  O   UNL     1       7.523   5.084  14.075  0.00  0.00    +0.000 OA
ATOM     16  C   UNL     1       6.377   4.377  13.840  0.00  0.00    +0.000 A 
ATOM     17  N   UNL     1       5.690   4.129  14.936  0.00  0.00    +0.000 NA
BRANCH  16  18
ATOM     18  C   UNL     1       6.128   3.986  12.426  0.00  0.00    +0.000 C 
ATOM     19  C   UNL     1       4.878   3.139  12.233  0.00  0.00    +0.000 C 
ATOM     20  C   UNL     1       5.295   2.177  11.148  0.00  0.00    +0.000 C 
ATOM     21  C   UNL     1       6.751   1.945  11.479  0.00  0.00    +0.000 C 
ATOM     22  O   UNL     1       7.250   3.193  11.975  0.00  0.00    +0.000 OA
ENDBRANCH  16  18
ENDBRANCH  12  13
ENDBRANCH  11  12
TORSDOF 3
ENDMDL
MODEL 2
REMARK VINA RESULT:      -7.4      2.928      4.944
REMARK  Name = 
REMARK  3 active torsions:
REMARK  status: ('A' for Active; 'I' for Inactive)
REMARK    1  A    between atoms: N_11  and  C_12
REMARK    2  A    between atoms: C_12  and  C_13
REMARK    3  A    between atoms: C_16  and  C_17
REMARK                            x       y       z     vdW  Elec       q    Type
REMARK                         _______ _______ _______ _____ _____    ______ ____
ROOT
ATOM      1  O   UNL     1       3.546   1.401  18.635  0.00  0.00    +0.000 OA
ATOM      2  C   UNL     1       3.130   2.427  19.183  0.00  0.00    +0.000 C 
ATOM      3  C   UNL     1       2.985   2.438  20.691  0.00  0.00    +0.000 C 
ATOM      4  S   UNL     1       1.494   3.286  21.217  0.00  0.00    +0.000 S 
ATOM      5  C   UNL     1       1.844   4.811  20.373  0.00  0.00    +0.000 A 
ATOM      6  C   UNL     1       1.409   5.999  20.980  0.00  0.00    +0.000 A 
ATOM      7  C   UNL     1       1.644   7.229  20.373  0.00  0.00    +0.000 A 
ATOM      8  C   UNL     1       2.300   7.275  19.151  0.00  0.00    +0.000 A 
ATOM      9  C   UNL     1       2.720   6.091  18.532  0.00  0.00    +0.000 A 
ATOM     10  C   UNL     1       2.506   4.838  19.128  0.00  0.00    +0.000 A 
ATOM     11  N   UNL     1       2.938   3.623  18.487  0.00  0.00    +0.000 N 
ENDROOT
BRANCH  11  12
ATOM     12  C   UNL     1       3.242   3.607  17.048  0.00  0.00    +0.000 C 
BRANCH  12  13
ATOM     13  C   UNL     1       4.602   4.137  16.721  0.00  0.00    +0.000 A 
ATOM     14  N   UNL     1       5.042   4.227  15.455  0.00  0.00    +0.000 NA
ATOM     15  O   UNL     1       6.269   4.875  15.584  0.00  0.00    +0.000 OA
ATOM     16  C   UNL     1       6.445   5.121  16.917  0.00  0.00    +0.000 A 
ATOM     17  N   UNL     1       5.456   4.669  17.660  0.00  0.00    +0.000 NA
BRANCH  16  18
ATOM     18  C   UNL     1       7.676   5.872  17.287  0.00  0.00    +0.000 C 
ATOM     19  C   UNL     1       7.774   6.200  18.769  0.00  0.00    +0.000 C 
ATOM     20  C   UNL     1       8.410   7.569  18.763  0.00  0.00    +0.000 C 
ATOM     21  C   UNL     1       7.801   8.190  17.528  0.00  0.00    +0.000 C 
ATOM     22  O   UNL     1       7.667   7.129  16.574  0.00  0.00    +0.000 OA
ENDBRANCH  16  18
ENDBRANCH  12  13
ENDBRANCH  11  12
TORSDOF 3
ENDMDL
MODEL 3
REMARK VINA RESULT:      -6.8      4.427      8.230
REMARK  Name = 
REMARK  3 active torsions:
REMARK  status: ('A' for Active; 'I' for Inactive)
REMARK    1  A    between atoms: N_11  and  C_12
REMARK    2  A    between atoms: C_12  and  C_13
REMARK    3  A    between atoms: C_16  and  C_17
REMARK                            x       y       z     vdW  Elec       q    Type
REMARK                         _______ _______ _______ _____ _____    ______ ____
ROOT
ATOM      1  O   UNL     1       1.534   4.680  17.834  0.00  0.00    +0.000 OA
ATOM      2  C   UNL     1       2.752   4.785  18.015  0.00  0.00    +0.000 C 
ATOM      3  C   UNL     1       3.545   3.543  18.364  0.00  0.00    +0.000 C 
ATOM      4  S   UNL     1       4.792   3.869  19.611  0.00  0.00    +0.000 S 
ATOM      5  C   UNL     1       5.597   5.184  18.725  0.00  0.00    +0.000 A 
ATOM      6  C   UNL     1       6.984   5.316  18.886  0.00  0.00    +0.000 A 
ATOM      7  C   UNL     1       7.678   6.326  18.226  0.00  0.00    +0.000 A 
ATOM      8  C   UNL     1       6.986   7.216  17.416  0.00  0.00    +0.000 A 
ATOM      9  C   UNL     1       5.599   7.099  17.267  0.00  0.00    +0.000 A 
ATOM     10  C   UNL     1       4.876   6.083  17.912  0.00  0.00    +0.000 A 
ATOM     11  N   UNL     1       3.449   5.969  17.756  0.00  0.00    +0.000 N 
ENDROOT
BRANCH  11  12
ATOM     12  C   UNL     1       2.659   7.109  17.267  0.00  0.00    +0.000 C 
BRANCH  12  13
ATOM     13  C   UNL     1       2.224   8.041  18.354  0.00  0.00    +0.000 A 
ATOM     14  N   UNL     1       1.803   9.289  18.089  0.00  0.00    +0.000 NA
ATOM     15  O   UNL     1       1.381   9.759  19.332  0.00  0.00    +0.000 OA
ATOM     16  C   UNL     1       1.580   8.743  20.224  0.00  0.00    +0.000 A 
ATOM     17  N   UNL     1       2.115   7.671  19.674  0.00  0.00    +0.000 NA
BRANCH  16  18
ATOM     18  C   UNL     1       1.136   9.001  21.620  0.00  0.00    +0.000 C 
ATOM     19  C   UNL     1      -0.285   8.541  21.909  0.00  0.00    +0.000 C 
ATOM     20  C   UNL     1      -0.796   9.611  22.842  0.00  0.00    +0.000 C 
ATOM     21  C   UNL     1      -0.120  10.848  22.298  0.00  0.00    +0.000 C 
ATOM     22  O   UNL     1       1.173  10.428  21.846  0.00  0.00    +0.000 OA
ENDBRANCH  16  18
ENDBRANCH  12  13
ENDBRANCH  11  12
TORSDOF 3
ENDMDL
MODEL 4
REMARK VINA RESULT:      -6.8      4.382      7.837
REMARK  Name = 
REMARK  3 active torsions:
REMARK  status: ('A' for Active; 'I' for Inactive)
REMARK    1  A    between atoms: N_11  and  C_12
REMARK    2  A    between atoms: C_12  and  C_13
REMARK    3  A    between atoms: C_16  and  C_17
REMARK                            x       y       z     vdW  Elec       q    Type
REMARK                         _______ _______ _______ _____ _____    ______ ____
ROOT
ATOM      1  O   UNL     1       1.016   4.538  20.296  0.00  0.00    +0.000 OA
ATOM      2  C   UNL     1       1.776   4.440  19.327  0.00  0.00    +0.000 C 
ATOM      3  C   UNL     1       1.450   3.429  18.247  0.00  0.00    +0.000 C 
ATOM      4  S   UNL     1       2.916   2.589  17.647  0.00  0.00    +0.000 S 
ATOM      5  C   UNL     1       3.805   4.065  17.206  0.00  0.00    +0.000 A 
ATOM      6  C   UNL     1       4.657   3.997  16.093  0.00  0.00    +0.000 A 
ATOM      7  C   UNL     1       5.386   5.112  15.695  0.00  0.00    +0.000 A 
ATOM      8  C   UNL     1       5.279   6.294  16.415  0.00  0.00    +0.000 A 
ATOM      9  C   UNL     1       4.444   6.361  17.537  0.00  0.00    +0.000 A 
ATOM     10  C   UNL     1       3.689   5.254  17.954  0.00  0.00    +0.000 A 
ATOM     11  N   UNL     1       2.833   5.328  19.110  0.00  0.00    +0.000 N 
ENDROOT
BRANCH  11  12
ATOM     12  C   UNL     1       3.017   6.394  20.107  0.00  0.00    +0.000 C 
BRANCH  12  13
ATOM     13  C   UNL     1       2.039   7.518  19.964  0.00  0.00    +0.000 A 
ATOM     14  N   UNL     1       1.272   7.924  20.989  0.00  0.00    +0.000 NA
ATOM     15  O   UNL     1       0.620   9.046  20.481  0.00  0.00    +0.000 OA
ATOM     16  C   UNL     1       1.066   9.212  19.200  0.00  0.00    +0.000 A 
ATOM     17  N   UNL     1       1.926   8.286  18.828  0.00  0.00    +0.000 NA
BRANCH  16  18
ATOM     18  C   UNL     1       0.544  10.402  18.475  0.00  0.00    +0.000 C 
ATOM     19  C   UNL     1       0.216  11.580  19.381  0.00  0.00    +0.000 C 
ATOM     20  C   UNL     1      -1.015  12.163  18.733  0.00  0.00    +0.000 C 
ATOM     21  C   UNL     1      -1.718  10.926  18.227  0.00  0.00    +0.000 C 
ATOM     22  O   UNL     1      -0.685  10.023  17.814  0.00  0.00    +0.000 OA
ENDBRANCH  16  18
ENDBRANCH  12  13
ENDBRANCH  11  12
TORSDOF 3
ENDMDL
MODEL 5
REMARK VINA RESULT:      -6.7      4.437      8.127
REMARK  Name = 
REMARK  3 active torsions:
REMARK  status: ('A' for Active; 'I' for Inactive)
REMARK    1  A    between atoms: N_11  and  C_12
REMARK    2  A    between atoms: C_12  and  C_13
REMARK    3  A    between atoms: C_16  and  C_17
REMARK                            x       y       z     vdW  Elec       q    Type
REMARK                         _______ _______ _______ _____ _____    ______ ____
ROOT
ATOM      1  O   UNL     1       4.843   7.145  17.576  0.00  0.00    +0.000 OA
ATOM      2  C   UNL     1       4.511   6.175  18.267  0.00  0.00    +0.000 C 
ATOM      3  C   UNL     1       5.592   5.374  18.963  0.00  0.00    +0.000 C 
ATOM      4  S   UNL     1       5.265   3.612  18.907  0.00  0.00    +0.000 S 
ATOM      5  C   UNL     1       3.650   3.701  19.643  0.00  0.00    +0.000 A 
ATOM      6  C   UNL     1       3.250   2.630  20.456  0.00  0.00    +0.000 A 
ATOM      7  C   UNL     1       1.997   2.631  21.060  0.00  0.00    +0.000 A 
ATOM      8  C   UNL     1       1.133   3.696  20.842  0.00  0.00    +0.000 A 
ATOM      9  C   UNL     1       1.520   4.759  20.018  0.00  0.00    +0.000 A 
ATOM     10  C   UNL     1       2.783   4.788  19.405  0.00  0.00    +0.000 A 
ATOM     11  N   UNL     1       3.176   5.883  18.556  0.00  0.00    +0.000 N 
ENDROOT
BRANCH  11  12
ATOM     12  C   UNL     1       2.162   6.784  17.984  0.00  0.00    +0.000 C 
BRANCH  12  13
ATOM     13  C   UNL     1       1.874   7.975  18.841  0.00  0.00    +0.000 A 
ATOM     14  N   UNL     1       1.587   9.176  18.311  0.00  0.00    +0.000 NA
ATOM     15  O   UNL     1       1.264   9.952  19.423  0.00  0.00    +0.000 OA
ATOM     16  C   UNL     1       1.379   9.140  20.516  0.00  0.00    +0.000 A 
ATOM     17  N   UNL     1       1.771   7.919  20.212  0.00  0.00    +0.000 NA
BRANCH  16  18
ATOM     18  C   UNL     1       1.017   9.748  21.824  0.00  0.00    +0.000 C 
ATOM     19  C   UNL     1      -0.243   9.163  22.446  0.00  0.00    +0.000 C 
ATOM     20  C   UNL     1      -0.884  10.369  23.089  0.00  0.00    +0.000 C 
ATOM     21  C   UNL     1      -0.538  11.465  22.110  0.00  0.00    +0.000 C 
ATOM     22  O   UNL     1       0.769  11.156  21.612  0.00  0.00    +0.000 OA
ENDBRANCH  16  18
ENDBRANCH  12  13
ENDBRANCH  11  12
TORSDOF 3
ENDMDL
MODEL 6
REMARK VINA RESULT:      -6.7      4.260      6.813
REMARK  Name = 
REMARK  3 active torsions:
REMARK  status: ('A' for Active; 'I' for Inactive)
REMARK    1  A    between atoms: N_11  and  C_12
REMARK    2  A    between atoms: C_12  and  C_13
REMARK    3  A    between atoms: C_16  and  C_17
REMARK                            x       y       z     vdW  Elec       q    Type
REMARK                         _______ _______ _______ _____ _____    ______ ____
ROOT
ATOM      1  O   UNL     1       7.639   4.315  18.067  0.00  0.00    +0.000 OA
ATOM      2  C   UNL     1       6.458   4.667  18.169  0.00  0.00    +0.000 C 
ATOM      3  C   UNL     1       5.547   3.891  19.098  0.00  0.00    +0.000 C 
ATOM      4  S   UNL     1       3.911   3.663  18.399  0.00  0.00    +0.000 S 
ATOM      5  C   UNL     1       3.589   5.389  18.119  0.00  0.00    +0.000 A 
ATOM      6  C   UNL     1       2.264   5.829  18.254  0.00  0.00    +0.000 A 
ATOM      7  C   UNL     1       1.939   7.166  18.045  0.00  0.00    +0.000 A 
ATOM      8  C   UNL     1       2.935   8.064  17.685  0.00  0.00    +0.000 A 
ATOM      9  C   UNL     1       4.256   7.626  17.532  0.00  0.00    +0.000 A 
ATOM     10  C   UNL     1       4.612   6.286  17.748  0.00  0.00    +0.000 A 
ATOM     11  N   UNL     1       5.972   5.841  17.587  0.00  0.00    +0.000 N 
ENDROOT
BRANCH  11  12
ATOM     12  C   UNL     1       6.935   6.647  16.821  0.00  0.00    +0.000 C 
BRANCH  12  13
ATOM     13  C   UNL     1       7.627   7.688  17.644  0.00  0.00    +0.000 A 
ATOM     14  N   UNL     1       8.368   7.365  18.717  0.00  0.00    +0.000 NA
ATOM     15  O   UNL     1       8.924   8.582  19.105  0.00  0.00    +0.000 OA
ATOM     16  C   UNL     1       8.471   9.520  18.221  0.00  0.00    +0.000 A 
ATOM     17  N   UNL     1       7.654   9.023  17.314  0.00  0.00    +0.000 NA
BRANCH  16  18
ATOM     18  C   UNL     1       8.994  10.901  18.407  0.00  0.00    +0.000 C 
ATOM     19  C   UNL     1      10.361  11.131  17.780  0.00  0.00    +0.000 C 
ATOM     20  C   UNL     1      11.028  12.054  18.770  0.00  0.00    +0.000 C 
ATOM     21  C   UNL     1      10.482  11.548  20.085  0.00  0.00    +0.000 C 
ATOM     22  O   UNL     1       9.133  11.142  19.825  0.00  0.00    +0.000 OA
ENDBRANCH  16  18
ENDBRANCH  12  13
ENDBRANCH  11  12
TORSDOF 3
ENDMDL
MODEL 7
REMARK VINA RESULT:      -6.6      4.180      7.871
REMARK  Name = 
REMARK  3 active torsions:
REMARK  status: ('A' for Active; 'I' for Inactive)
REMARK    1  A    between atoms: N_11  and  C_12
REMARK    2  A    between atoms: C_12  and  C_13
REMARK    3  A    between atoms: C_16  and  C_17
REMARK                            x       y       z     vdW  Elec       q    Type
REMARK                         _______ _______ _______ _____ _____    ______ ____
ROOT
ATOM      1  O   UNL     1       1.074   4.831  20.044  0.00  0.00    +0.000 OA
ATOM      2  C   UNL     1       1.862   4.633  19.113  0.00  0.00    +0.000 C 
ATOM      3  C   UNL     1       1.601   3.476  18.172  0.00  0.00    +0.000 C 
ATOM      4  S   UNL     1       3.112   2.620  17.722  0.00  0.00    +0.000 S 
ATOM      5  C   UNL     1       3.959   4.057  17.107  0.00  0.00    +0.000 A 
ATOM      6  C   UNL     1       4.843   3.874  16.032  0.00  0.00    +0.000 A 
ATOM      7  C   UNL     1       5.543   4.954  15.503  0.00  0.00    +0.000 A 
ATOM      8  C   UNL     1       5.375   6.216  16.056  0.00  0.00    +0.000 A 
ATOM      9  C   UNL     1       4.508   6.400  17.140  0.00  0.00    +0.000 A 
ATOM     10  C   UNL     1       3.781   5.331  17.686  0.00  0.00    +0.000 A 
ATOM     11  N   UNL     1       2.893   5.525  18.802  0.00  0.00    +0.000 N 
ENDROOT
BRANCH  11  12
ATOM     12  C   UNL     1       3.012   6.720  19.651  0.00  0.00    +0.000 C 
BRANCH  12  13
ATOM     13  C   UNL     1       2.159   7.861  19.195  0.00  0.00    +0.000 A 
ATOM     14  N   UNL     1       2.031   8.174  17.894  0.00  0.00    +0.000 NA
ATOM     15  O   UNL     1       1.073   9.186  17.897  0.00  0.00    +0.000 OA
ATOM     16  C   UNL     1       0.710   9.379  19.200  0.00  0.00    +0.000 A 
ATOM     17  N   UNL     1       1.364   8.601  20.039  0.00  0.00    +0.000 NA
BRANCH  16  18
ATOM     18  C   UNL     1      -0.362  10.383  19.439  0.00  0.00    +0.000 C 
ATOM     19  C   UNL     1      -1.362  10.498  18.298  0.00  0.00    +0.000 C 
ATOM     20  C   UNL     1      -1.669  11.976  18.275  0.00  0.00    +0.000 C 
ATOM     21  C   UNL     1      -0.333  12.577  18.644  0.00  0.00    +0.000 C 
ATOM     22  O   UNL     1       0.261  11.678  19.588  0.00  0.00    +0.000 OA
ENDBRANCH  16  18
ENDBRANCH  12  13
ENDBRANCH  11  12
TORSDOF 3
ENDMDL
MODEL 8
REMARK VINA RESULT:      -6.6      4.342      8.430
REMARK  Name = 
REMARK  3 active torsions:
REMARK  status: ('A' for Active; 'I' for Inactive)
REMARK    1  A    between atoms: N_11  and  C_12
REMARK    2  A    between atoms: C_12  and  C_13
REMARK    3  A    between atoms: C_16  and  C_17
REMARK                            x       y       z     vdW  Elec       q    Type
REMARK                         _______ _______ _______ _____ _____    ______ ____
ROOT
ATOM      1  O   UNL     1       1.324   4.508  17.748  0.00  0.00    +0.000 OA
ATOM      2  C   UNL     1       2.558   4.568  17.805  0.00  0.00    +0.000 C 
ATOM      3  C   UNL     1       3.354   3.286  17.674  0.00  0.00    +0.000 C 
ATOM      4  S   UNL     1       4.747   3.241  18.802  0.00  0.00    +0.000 S 
ATOM      5  C   UNL     1       5.475   4.768  18.254  0.00  0.00    +0.000 A 
ATOM      6  C   UNL     1       6.875   4.861  18.279  0.00  0.00    +0.000 A 
ATOM      7  C   UNL     1       7.512   6.028  17.868  0.00  0.00    +0.000 A 
ATOM      8  C   UNL     1       6.752   7.111  17.447  0.00  0.00    +0.000 A 
ATOM      9  C   UNL     1       5.354   7.029  17.437  0.00  0.00    +0.000 A 
ATOM     10  C   UNL     1       4.687   5.860  17.835  0.00  0.00    +0.000 A 
ATOM     11  N   UNL     1       3.249   5.782  17.826  0.00  0.00    +0.000 N 
ENDROOT
BRANCH  11  12
ATOM     12  C   UNL     1       2.436   7.007  17.794  0.00  0.00    +0.000 C 
BRANCH  12  13
ATOM     13  C   UNL     1       1.967   7.445  19.145  0.00  0.00    +0.000 A 
ATOM     14  N   UNL     1       1.993   6.620  20.205  0.00  0.00    +0.000 NA
ATOM     15  O   UNL     1       1.605   7.439  21.264  0.00  0.00    +0.000 OA
ATOM     16  C   UNL     1       1.392   8.683  20.739  0.00  0.00    +0.000 A 
ATOM     17  N   UNL     1       1.582   8.733  19.436  0.00  0.00    +0.000 NA
BRANCH  16  18
ATOM     18  C   UNL     1       1.025   9.749  21.710  0.00  0.00    +0.000 C 
ATOM     19  C   UNL     1      -0.039   9.328  22.712  0.00  0.00    +0.000 C 
ATOM     20  C   UNL     1      -0.850  10.590  22.883  0.00  0.00    +0.000 C 
ATOM     21  C   UNL     1      -0.807  11.178  21.492  0.00  0.00    +0.000 C 
ATOM     22  O   UNL     1       0.489  10.868  20.968  0.00  0.00    +0.000 OA
ENDBRANCH  16  18
ENDBRANCH  12  13
ENDBRANCH  11  12
TORSDOF 3
ENDMDL
MODEL 9
REMARK VINA RESULT:      -6.6      1.382      1.537
REMARK  Name = 
REMARK  3 active torsions:
REMARK  status: ('A' for Active; 'I' for Inactive)
REMARK    1  A    between atoms: N_11  and  C_12
REMARK    2  A    between atoms: C_12  and  C_13
REMARK    3  A    between atoms: C_16  and  C_17
REMARK                            x       y       z     vdW  Elec       q    Type
REMARK                         _______ _______ _______ _____ _____    ______ ____
ROOT
ATOM      1  O   UNL     1       4.752   7.491  17.111  0.00  0.00    +0.000 OA
ATOM      2  C   UNL     1       4.189   6.689  17.866  0.00  0.00    +0.000 C 
ATOM      3  C   UNL     1       2.692   6.804  18.062  0.00  0.00    +0.000 C 
ATOM      4  S   UNL     1       2.214   6.526  19.768  0.00  0.00    +0.000 S 
ATOM      5  C   UNL     1       2.983   4.930  19.916  0.00  0.00    +0.000 A 
ATOM      6  C   UNL     1       2.357   3.986  20.744  0.00  0.00    +0.000 A 
ATOM      7  C   UNL     1       2.906   2.719  20.910  0.00  0.00    +0.000 A 
ATOM      8  C   UNL     1       4.091   2.396  20.262  0.00  0.00    +0.000 A 
ATOM      9  C   UNL     1       4.729   3.340  19.449  0.00  0.00    +0.000 A 
ATOM     10  C   UNL     1       4.190   4.622  19.255  0.00  0.00    +0.000 A 
ATOM     11  N   UNL     1       4.851   5.590  18.420  0.00  0.00    +0.000 N 
ENDROOT
BRANCH  11  12
ATOM     12  C   UNL     1       6.273   5.431  18.075  0.00  0.00    +0.000 C 
BRANCH  12  13
ATOM     13  C   UNL     1       6.505   5.167  16.621  0.00  0.00    +0.000 A 
ATOM     14  N   UNL     1       7.449   5.822  15.924  0.00  0.00    +0.000 NA
ATOM     15  O   UNL     1       7.422   5.199  14.677  0.00  0.00    +0.000 OA
ATOM     16  C   UNL     1       6.470   4.221  14.748  0.00  0.00    +0.000 A 
ATOM     17  N   UNL     1       5.864   4.173  15.917  0.00  0.00    +0.000 NA
BRANCH  16  18
ATOM     18  C   UNL     1       6.311   3.375  13.534  0.00  0.00    +0.000 C 
ATOM     19  C   UNL     1       6.998   3.936  12.298  0.00  0.00    +0.000 C 
ATOM     20  C   UNL     1       6.040   3.568  11.192  0.00  0.00    +0.000 C 
ATOM     21  C   UNL     1       4.702   3.710  11.877  0.00  0.00    +0.000 C 
ATOM     22  O   UNL     1       4.901   3.285  13.231  0.00  0.00    +0.000 OA
ENDBRANCH  16  18
ENDBRANCH  12  13
ENDBRANCH  11  12
TORSDOF 3
ENDMDL
