MODEL 1
REMARK VINA RESULT:      -7.1      0.000      0.000
REMARK  Name = 
REMARK  10 active torsions:
REMARK  status: ('A' for Active; 'I' for Inactive)
REMARK    1  A    between atoms: C_1  and  C_2
REMARK    2  A    between atoms: C_4  and  C_5
REMARK    3  A    between atoms: C_6  and  C_7
REMARK    4  A    between atoms: C_10  and  O_11
REMARK    5  A    between atoms: O_11  and  C_12
REMARK    6  A    between atoms: C_12  and  C_13
REMARK    7  A    between atoms: C_13  and  C_14
REMARK    8  A    between atoms: C_14  and  C_15
REMARK    9  A    between atoms: C_15  and  S_16
REMARK   10  A    between atoms: S_16  and  C_17
REMARK                            x       y       z     vdW  Elec       q    Type
REMARK                         _______ _______ _______ _____ _____    ______ ____
ROOT
ATOM      1  C   UNL     1       0.779  10.443  19.853  0.00  0.00    +0.000 A 
ATOM      2  C   UNL     1       1.344  10.119  18.620  0.00  0.00    +0.000 A 
ATOM      3  C   UNL     1       1.930   8.873  18.425  0.00  0.00    +0.000 A 
ATOM      4  C   UNL     1       1.966   7.934  19.454  0.00  0.00    +0.000 A 
ATOM      5  C   UNL     1       1.402   8.256  20.697  0.00  0.00    +0.000 A 
ATOM      6  C   UNL     1       0.812   9.509  20.896  0.00  0.00    +0.000 A 
ENDROOT
BRANCH   1  12
ATOM      7  C   UNL     1      -1.705  15.674  20.226  0.00  0.00    +0.000 C 
ATOM      8  C   UNL     1      -0.965  14.362  20.211  0.00  0.00    +0.000 A 
ATOM      9  N   UNL     1      -1.586  13.314  19.559  0.00  0.00    +0.000 N 
ATOM     10  C   UNL     1      -1.050  12.047  19.457  0.00  0.00    +0.000 A 
ATOM     11  C   UNL     1      -1.867  11.025  18.700  0.00  0.00    +0.000 C 
ATOM     12  C   UNL     1       0.149  11.758  20.009  0.00  0.00    +0.000 A 
ATOM     13  C   UNL     1       0.890  12.854  20.723  0.00  0.00    +0.000 A 
ATOM     14  O   UNL     1       1.998  12.642  21.215  0.00  0.00    +0.000 OA
ATOM     15  C   UNL     1       0.240  14.206  20.801  0.00  0.00    +0.000 A 
ATOM     16 BR   UNL     1       1.162  15.555  21.711  0.00  0.00    +0.000 Br
ATOM     17  H   UNL     1      -2.492  13.485  19.128  0.00  0.00    +0.000 HD
ENDBRANCH   1  12
BRANCH   4  18
ATOM     18  O   UNL     1       2.525   6.685  19.347  0.00  0.00    +0.000 OA
BRANCH  18  19
ATOM     19  C   UNL     1       1.920   5.693  20.180  0.00  0.00    +0.000 C 
BRANCH  19  20
ATOM     20  C   UNL     1       1.830   4.358  19.455  0.00  0.00    +0.000 C 
BRANCH  20  21
ATOM     21  C   UNL     1       1.821   4.557  17.941  0.00  0.00    +0.000 C 
BRANCH  21  22
ATOM     22  C   UNL     1       2.782   3.593  17.260  0.00  0.00    +0.000 C 
BRANCH  22  23
ATOM     23  S   UNL     1       4.223   3.347  18.350  0.00  0.00    +0.000 S 
BRANCH  23  24
ATOM     24  C   UNL     1       5.425   4.313  17.466  0.00  0.00    +0.000 A 
ATOM     25  C   UNL     1       6.359   5.095  18.140  0.00  0.00    +0.000 A 
ATOM     26  C   UNL     1       7.262   5.819  17.386  0.00  0.00    +0.000 A 
ATOM     27  N   UNL     1       7.298   5.805  16.035  0.00  0.00    +0.000 NA
ATOM     28  C   UNL     1       6.394   5.025  15.412  0.00  0.00    +0.000 A 
ATOM     29  C   UNL     1       5.448   4.264  16.074  0.00  0.00    +0.000 A 
ENDBRANCH  23  24
ENDBRANCH  22  23
ENDBRANCH  21  22
ENDBRANCH  20  21
ENDBRANCH  19  20
ENDBRANCH  18  19
ENDBRANCH   4  18
TORSDOF 8
ENDMDL
MODEL 2
REMARK VINA RESULT:      -7.1      1.282      1.588
REMARK  Name = 
REMARK  10 active torsions:
REMARK  status: ('A' for Active; 'I' for Inactive)
REMARK    1  A    between atoms: C_1  and  C_2
REMARK    2  A    between atoms: C_4  and  C_5
REMARK    3  A    between atoms: C_6  and  C_7
REMARK    4  A    between atoms: C_10  and  O_11
REMARK    5  A    between atoms: O_11  and  C_12
REMARK    6  A    between atoms: C_12  and  C_13
REMARK    7  A    between atoms: C_13  and  C_14
REMARK    8  A    between atoms: C_14  and  C_15
REMARK    9  A    between atoms: C_15  and  S_16
REMARK   10  A    between atoms: S_16  and  C_17
REMARK                            x       y       z     vdW  Elec       q    Type
REMARK                         _______ _______ _______ _____ _____    ______ ____
ROOT
ATOM      1  C   UNL     1       0.783  11.193  19.729  0.00  0.00    +0.000 A 
ATOM      2  C   UNL     1       0.691  10.746  21.047  0.00  0.00    +0.000 A 
ATOM      3  C   UNL     1       0.990   9.424  21.359  0.00  0.00    +0.000 A 
ATOM      4  C   UNL     1       1.382   8.529  20.366  0.00  0.00    +0.000 A 
ATOM      5  C   UNL     1       1.473   8.974  19.039  0.00  0.00    +0.000 A 
ATOM      6  C   UNL     1       1.172  10.303  18.722  0.00  0.00    +0.000 A 
ENDROOT
BRANCH   1  12
ATOM      7  C   UNL     1      -0.476  16.698  18.389  0.00  0.00    +0.000 C 
ATOM      8  C   UNL     1      -0.025  15.310  18.763  0.00  0.00    +0.000 A 
ATOM      9  N   UNL     1      -1.006  14.338  18.814  0.00  0.00    +0.000 N 
ATOM     10  C   UNL     1      -0.765  13.021  19.145  0.00  0.00    +0.000 A 
ATOM     11  C   UNL     1      -1.958  12.092  19.142  0.00  0.00    +0.000 C 
ATOM     12  C   UNL     1       0.483  12.601  19.447  0.00  0.00    +0.000 A 
ATOM     13  C   UNL     1       1.604  13.602  19.400  0.00  0.00    +0.000 A 
ATOM     14  O   UNL     1       2.761  13.257  19.640  0.00  0.00    +0.000 OA
ATOM     15  C   UNL     1       1.265  15.021  19.039  0.00  0.00    +0.000 A 
ATOM     16 BR   UNL     1       2.665  16.260  19.005  0.00  0.00    +0.000 Br
ATOM     17  H   UNL     1      -1.962  14.608  18.594  0.00  0.00    +0.000 HD
ENDBRANCH   1  12
BRANCH   4  18
ATOM     18  O   UNL     1       1.693   7.211  20.586  0.00  0.00    +0.000 OA
BRANCH  18  19
ATOM     19  C   UNL     1       2.428   6.591  19.529  0.00  0.00    +0.000 C 
BRANCH  19  20
ATOM     20  C   UNL     1       2.408   5.076  19.670  0.00  0.00    +0.000 C 
BRANCH  20  21
ATOM     21  C   UNL     1       1.836   4.418  18.416  0.00  0.00    +0.000 C 
BRANCH  21  22
ATOM     22  C   UNL     1       2.950   3.923  17.504  0.00  0.00    +0.000 C 
BRANCH  22  23
ATOM     23  S   UNL     1       4.417   3.566  18.526  0.00  0.00    +0.000 S 
BRANCH  23  24
ATOM     24  C   UNL     1       5.623   4.535  17.651  0.00  0.00    +0.000 A 
ATOM     25  C   UNL     1       6.311   5.571  18.280  0.00  0.00    +0.000 A 
ATOM     26  C   UNL     1       7.233   6.281  17.535  0.00  0.00    +0.000 A 
ATOM     27  N   UNL     1       7.515   6.022  16.239  0.00  0.00    +0.000 NA
ATOM     28  C   UNL     1       6.848   5.002  15.665  0.00  0.00    +0.000 A 
ATOM     29  C   UNL     1       5.904   4.233  16.321  0.00  0.00    +0.000 A 
ENDBRANCH  23  24
ENDBRANCH  22  23
ENDBRANCH  21  22
ENDBRANCH  20  21
ENDBRANCH  19  20
ENDBRANCH  18  19
ENDBRANCH   4  18
TORSDOF 8
ENDMDL
MODEL 3
REMARK VINA RESULT:      -7.0      2.199      3.437
REMARK  Name = 
REMARK  10 active torsions:
REMARK  status: ('A' for Active; 'I' for Inactive)
REMARK    1  A    between atoms: C_1  and  C_2
REMARK    2  A    between atoms: C_4  and  C_5
REMARK    3  A    between atoms: C_6  and  C_7
REMARK    4  A    between atoms: C_10  and  O_11
REMARK    5  A    between atoms: O_11  and  C_12
REMARK    6  A    between atoms: C_12  and  C_13
REMARK    7  A    between atoms: C_13  and  C_14
REMARK    8  A    between atoms: C_14  and  C_15
REMARK    9  A    between atoms: C_15  and  S_16
REMARK   10  A    between atoms: S_16  and  C_17
REMARK                            x       y       z     vdW  Elec       q    Type
REMARK                         _______ _______ _______ _____ _____    ______ ____
ROOT
ATOM      1  C   UNL     1       0.704   9.796  19.283  0.00  0.00    +0.000 A 
ATOM      2  C   UNL     1       1.022   8.780  20.185  0.00  0.00    +0.000 A 
ATOM      3  C   UNL     1       1.913   7.777  19.822  0.00  0.00    +0.000 A 
ATOM      4  C   UNL     1       2.497   7.766  18.556  0.00  0.00    +0.000 A 
ATOM      5  C   UNL     1       2.177   8.783  17.645  0.00  0.00    +0.000 A 
ATOM      6  C   UNL     1       1.281   9.794  18.008  0.00  0.00    +0.000 A 
ENDROOT
BRANCH   1  12
ATOM      7  C   UNL     1      -2.956  14.050  20.763  0.00  0.00    +0.000 C 
ATOM      8  C   UNL     1      -1.923  12.991  20.474  0.00  0.00    +0.000 A 
ATOM      9  N   UNL     1      -2.283  12.016  19.563  0.00  0.00    +0.000 N 
ATOM     10  C   UNL     1      -1.461  10.973  19.190  0.00  0.00    +0.000 A 
ATOM     11  C   UNL     1      -2.016  10.002  18.175  0.00  0.00    +0.000 C 
ATOM     12  C   UNL     1      -0.221  10.849  19.715  0.00  0.00    +0.000 A 
ATOM     13  C   UNL     1       0.243  11.883  20.703  0.00  0.00    +0.000 A 
ATOM     14  O   UNL     1       1.375  11.824  21.184  0.00  0.00    +0.000 OA
ATOM     15  C   UNL     1      -0.710  12.985  21.068  0.00  0.00    +0.000 A 
ATOM     16 BR   UNL     1      -0.128  14.252  22.314  0.00  0.00    +0.000 Br
ATOM     17  H   UNL     1      -3.208  12.069  19.142  0.00  0.00    +0.000 HD
ENDBRANCH   1  12
BRANCH   4  18
ATOM     18  O   UNL     1       3.382   6.814  18.117  0.00  0.00    +0.000 OA
BRANCH  18  19
ATOM     19  C   UNL     1       4.156   6.203  19.152  0.00  0.00    +0.000 C 
BRANCH  19  20
ATOM     20  C   UNL     1       5.237   5.308  18.566  0.00  0.00    +0.000 C 
BRANCH  20  21
ATOM     21  C   UNL     1       4.826   4.781  17.193  0.00  0.00    +0.000 C 
BRANCH  21  22
ATOM     22  C   UNL     1       4.407   3.320  17.273  0.00  0.00    +0.000 C 
BRANCH  22  23
ATOM     23  S   UNL     1       2.587   3.246  17.373  0.00  0.00    +0.000 S 
BRANCH  23  24
ATOM     24  C   UNL     1       2.402   3.006  19.125  0.00  0.00    +0.000 A 
ATOM     25  C   UNL     1       3.453   2.525  19.902  0.00  0.00    +0.000 A 
ATOM     26  C   UNL     1       3.234   2.364  21.257  0.00  0.00    +0.000 A 
ATOM     27  N   UNL     1       2.067   2.655  21.872  0.00  0.00    +0.000 NA
ATOM     28  C   UNL     1       1.075   3.135  21.096  0.00  0.00    +0.000 A 
ATOM     29  C   UNL     1       1.192   3.331  19.732  0.00  0.00    +0.000 A 
ENDBRANCH  23  24
ENDBRANCH  22  23
ENDBRANCH  21  22
ENDBRANCH  20  21
ENDBRANCH  19  20
ENDBRANCH  18  19
ENDBRANCH   4  18
TORSDOF 8
ENDMDL
MODEL 4
REMARK VINA RESULT:      -7.0      1.173      1.737
REMARK  Name = 
REMARK  10 active torsions:
REMARK  status: ('A' for Active; 'I' for Inactive)
REMARK    1  A    between atoms: C_1  and  C_2
REMARK    2  A    between atoms: C_4  and  C_5
REMARK    3  A    between atoms: C_6  and  C_7
REMARK    4  A    between atoms: C_10  and  O_11
REMARK    5  A    between atoms: O_11  and  C_12
REMARK    6  A    between atoms: C_12  and  C_13
REMARK    7  A    between atoms: C_13  and  C_14
REMARK    8  A    between atoms: C_14  and  C_15
REMARK    9  A    between atoms: C_15  and  S_16
REMARK   10  A    between atoms: S_16  and  C_17
REMARK                            x       y       z     vdW  Elec       q    Type
REMARK                         _______ _______ _______ _____ _____    ______ ____
ROOT
ATOM      1  C   UNL     1       0.787  10.169  19.384  0.00  0.00    +0.000 A 
ATOM      2  C   UNL     1       0.916   9.138  20.315  0.00  0.00    +0.000 A 
ATOM      3  C   UNL     1       1.679   8.015  20.014  0.00  0.00    +0.000 A 
ATOM      4  C   UNL     1       2.320   7.900  18.781  0.00  0.00    +0.000 A 
ATOM      5  C   UNL     1       2.190   8.932  17.841  0.00  0.00    +0.000 A 
ATOM      6  C   UNL     1       1.423  10.062  18.142  0.00  0.00    +0.000 A 
ENDROOT
BRANCH   1  12
ATOM      7  C   UNL     1      -2.352  14.895  20.604  0.00  0.00    +0.000 C 
ATOM      8  C   UNL     1      -1.447  13.713  20.375  0.00  0.00    +0.000 A 
ATOM      9  N   UNL     1      -1.943  12.707  19.568  0.00  0.00    +0.000 N 
ATOM     10  C   UNL     1      -1.248  11.555  19.262  0.00  0.00    +0.000 A 
ATOM     11  C   UNL     1      -1.944  10.565  18.356  0.00  0.00    +0.000 C 
ATOM     12  C   UNL     1      -0.006  11.346  19.752  0.00  0.00    +0.000 A 
ATOM     13  C   UNL     1       0.604  12.406  20.627  0.00  0.00    +0.000 A 
ATOM     14  O   UNL     1       1.743  12.269  21.073  0.00  0.00    +0.000 OA
ATOM     15  C   UNL     1      -0.216  13.629  20.925  0.00  0.00    +0.000 A 
ATOM     16 BR   UNL     1       0.546  14.929  22.033  0.00  0.00    +0.000 Br
ATOM     17  H   UNL     1      -2.875  12.821  19.176  0.00  0.00    +0.000 HD
ENDBRANCH   1  12
BRANCH   4  18
ATOM     18  O   UNL     1       3.089   6.828  18.403  0.00  0.00    +0.000 OA
BRANCH  18  19
ATOM     19  C   UNL     1       3.289   5.852  19.428  0.00  0.00    +0.000 C 
BRANCH  19  20
ATOM     20  C   UNL     1       2.535   4.569  19.111  0.00  0.00    +0.000 C 
BRANCH  20  21
ATOM     21  C   UNL     1       2.797   4.121  17.675  0.00  0.00    +0.000 C 
BRANCH  21  22
ATOM     22  C   UNL     1       4.209   3.574  17.524  0.00  0.00    +0.000 C 
BRANCH  22  23
ATOM     23  S   UNL     1       5.037   4.477  16.174  0.00  0.00    +0.000 S 
BRANCH  23  24
ATOM     24  C   UNL     1       6.208   5.415  17.127  0.00  0.00    +0.000 A 
ATOM     25  C   UNL     1       6.555   6.715  16.767  0.00  0.00    +0.000 A 
ATOM     26  C   UNL     1       7.473   7.382  17.556  0.00  0.00    +0.000 A 
ATOM     27  N   UNL     1       8.043   6.852  18.660  0.00  0.00    +0.000 NA
ATOM     28  C   UNL     1       7.673   5.601  18.994  0.00  0.00    +0.000 A 
ATOM     29  C   UNL     1       6.765   4.848  18.270  0.00  0.00    +0.000 A 
ENDBRANCH  23  24
ENDBRANCH  22  23
ENDBRANCH  21  22
ENDBRANCH  20  21
ENDBRANCH  19  20
ENDBRANCH  18  19
ENDBRANCH   4  18
TORSDOF 8
ENDMDL
MODEL 5
REMARK VINA RESULT:      -6.9      6.750     10.021
REMARK  Name = 
REMARK  10 active torsions:
REMARK  status: ('A' for Active; 'I' for Inactive)
REMARK    1  A    between atoms: C_1  and  C_2
REMARK    2  A    between atoms: C_4  and  C_5
REMARK    3  A    between atoms: C_6  and  C_7
REMARK    4  A    between atoms: C_10  and  O_11
REMARK    5  A    between atoms: O_11  and  C_12
REMARK    6  A    between atoms: C_12  and  C_13
REMARK    7  A    between atoms: C_13  and  C_14
REMARK    8  A    between atoms: C_14  and  C_15
REMARK    9  A    between atoms: C_15  and  S_16
REMARK   10  A    between atoms: S_16  and  C_17
REMARK                            x       y       z     vdW  Elec       q    Type
REMARK                         _______ _______ _______ _____ _____    ______ ____
ROOT
ATOM      1  C   UNL     1       5.632   5.717  18.045  0.00  0.00    +0.000 A 
ATOM      2  C   UNL     1       5.390   6.808  17.211  0.00  0.00    +0.000 A 
ATOM      3  C   UNL     1       6.364   7.785  17.038  0.00  0.00    +0.000 A 
ATOM      4  C   UNL     1       7.591   7.693  17.695  0.00  0.00    +0.000 A 
ATOM      5  C   UNL     1       7.837   6.599  18.537  0.00  0.00    +0.000 A 
ATOM      6  C   UNL     1       6.858   5.614  18.713  0.00  0.00    +0.000 A 
ENDROOT
BRANCH   1  12
ATOM      7  C   UNL     1       1.406   1.751  18.364  0.00  0.00    +0.000 C 
ATOM      8  C   UNL     1       2.460   2.827  18.399  0.00  0.00    +0.000 A 
ATOM      9  N   UNL     1       3.411   2.788  17.397  0.00  0.00    +0.000 N 
ATOM     10  C   UNL     1       4.446   3.693  17.285  0.00  0.00    +0.000 A 
ATOM     11  C   UNL     1       5.390   3.503  16.120  0.00  0.00    +0.000 C 
ATOM     12  C   UNL     1       4.588   4.696  18.180  0.00  0.00    +0.000 A 
ATOM     13  C   UNL     1       3.581   4.809  19.291  0.00  0.00    +0.000 A 
ATOM     14  O   UNL     1       3.655   5.723  20.112  0.00  0.00    +0.000 OA
ATOM     15  C   UNL     1       2.486   3.782  19.354  0.00  0.00    +0.000 A 
ATOM     16 BR   UNL     1       1.253   3.921  20.753  0.00  0.00    +0.000 Br
ATOM     17  H   UNL     1       3.345   2.050  16.700  0.00  0.00    +0.000 HD
ENDBRANCH   1  12
BRANCH   4  18
ATOM     18  O   UNL     1       8.603   8.611  17.582  0.00  0.00    +0.000 OA
BRANCH  18  19
ATOM     19  C   UNL     1       8.318   9.883  18.170  0.00  0.00    +0.000 C 
BRANCH  19  20
ATOM     20  C   UNL     1       9.521  10.406  18.941  0.00  0.00    +0.000 C 
BRANCH  20  21
ATOM     21  C   UNL     1      10.296  11.430  18.115  0.00  0.00    +0.000 C 
BRANCH  21  22
ATOM     22  C   UNL     1      11.610  11.793  18.791  0.00  0.00    +0.000 C 
BRANCH  22  23
ATOM     23  S   UNL     1      11.308  13.184  19.930  0.00  0.00    +0.000 S 
BRANCH  23  24
ATOM     24  C   UNL     1      10.943  14.457  18.744  0.00  0.00    +0.000 A 
ATOM     25  C   UNL     1       9.678  15.035  18.673  0.00  0.00    +0.000 A 
ATOM     26  C   UNL     1       9.468  16.018  17.725  0.00  0.00    +0.000 A 
ATOM     27  N   UNL     1      10.420  16.458  16.872  0.00  0.00    +0.000 NA
ATOM     28  C   UNL     1      11.638  15.892  16.978  0.00  0.00    +0.000 A 
ATOM     29  C   UNL     1      11.949  14.901  17.890  0.00  0.00    +0.000 A 
ENDBRANCH  23  24
ENDBRANCH  22  23
ENDBRANCH  21  22
ENDBRANCH  20  21
ENDBRANCH  19  20
ENDBRANCH  18  19
ENDBRANCH   4  18
TORSDOF 8
ENDMDL
MODEL 6
REMARK VINA RESULT:      -6.9      2.761      3.977
REMARK  Name = 
REMARK  10 active torsions:
REMARK  status: ('A' for Active; 'I' for Inactive)
REMARK    1  A    between atoms: C_1  and  C_2
REMARK    2  A    between atoms: C_4  and  C_5
REMARK    3  A    between atoms: C_6  and  C_7
REMARK    4  A    between atoms: C_10  and  O_11
REMARK    5  A    between atoms: O_11  and  C_12
REMARK    6  A    between atoms: C_12  and  C_13
REMARK    7  A    between atoms: C_13  and  C_14
REMARK    8  A    between atoms: C_14  and  C_15
REMARK    9  A    between atoms: C_15  and  S_16
REMARK   10  A    between atoms: S_16  and  C_17
REMARK                            x       y       z     vdW  Elec       q    Type
REMARK                         _______ _______ _______ _____ _____    ______ ____
ROOT
ATOM      1  C   UNL     1       0.594   9.763  19.237  0.00  0.00    +0.000 A 
ATOM      2  C   UNL     1       1.200   9.712  17.982  0.00  0.00    +0.000 A 
ATOM      3  C   UNL     1       2.136   8.724  17.698  0.00  0.00    +0.000 A 
ATOM      4  C   UNL     1       2.484   7.775  18.658  0.00  0.00    +0.000 A 
ATOM      5  C   UNL     1       1.879   7.824  19.922  0.00  0.00    +0.000 A 
ATOM      6  C   UNL     1       0.937   8.817  20.211  0.00  0.00    +0.000 A 
ENDROOT
BRANCH   1  12
ATOM      7  C   UNL     1      -3.379  13.813  20.459  0.00  0.00    +0.000 C 
ATOM      8  C   UNL     1      -2.430  12.719  20.046  0.00  0.00    +0.000 A 
ATOM      9  N   UNL     1      -1.191  12.716  20.658  0.00  0.00    +0.000 N 
ATOM     10  C   UNL     1      -0.205  11.790  20.391  0.00  0.00    +0.000 A 
ATOM     11  C   UNL     1       1.088  11.936  21.161  0.00  0.00    +0.000 C 
ATOM     12  C   UNL     1      -0.406  10.806  19.487  0.00  0.00    +0.000 A 
ATOM     13  C   UNL     1      -1.738  10.738  18.791  0.00  0.00    +0.000 A 
ATOM     14  O   UNL     1      -1.975   9.841  17.982  0.00  0.00    +0.000 OA
ATOM     15  C   UNL     1      -2.761  11.786  19.126  0.00  0.00    +0.000 A 
ATOM     16 BR   UNL     1      -4.404  11.703  18.237  0.00  0.00    +0.000 Br
ATOM     17  H   UNL     1      -0.993  13.440  21.346  0.00  0.00    +0.000 HD
ENDBRANCH   1  12
BRANCH   4  18
ATOM     18  O   UNL     1       3.397   6.770  18.461  0.00  0.00    +0.000 OA
BRANCH  18  19
ATOM     19  C   UNL     1       4.269   6.971  17.346  0.00  0.00    +0.000 C 
BRANCH  19  20
ATOM     20  C   UNL     1       5.295   5.852  17.249  0.00  0.00    +0.000 C 
BRANCH  20  21
ATOM     21  C   UNL     1       4.789   4.722  16.356  0.00  0.00    +0.000 C 
BRANCH  21  22
ATOM     22  C   UNL     1       4.448   3.488  17.179  0.00  0.00    +0.000 C 
BRANCH  22  23
ATOM     23  S   UNL     1       2.633   3.368  17.315  0.00  0.00    +0.000 S 
BRANCH  23  24
ATOM     24  C   UNL     1       2.480   3.286  19.084  0.00  0.00    +0.000 A 
ATOM     25  C   UNL     1       3.311   2.465  19.843  0.00  0.00    +0.000 A 
ATOM     26  C   UNL     1       3.132   2.453  21.213  0.00  0.00    +0.000 A 
ATOM     27  N   UNL     1       2.208   3.197  21.859  0.00  0.00    +0.000 NA
ATOM     28  C   UNL     1       1.432   3.995  21.100  0.00  0.00    +0.000 A 
ATOM     29  C   UNL     1       1.529   4.078  19.722  0.00  0.00    +0.000 A 
ENDBRANCH  23  24
ENDBRANCH  22  23
ENDBRANCH  21  22
ENDBRANCH  20  21
ENDBRANCH  19  20
ENDBRANCH  18  19
ENDBRANCH   4  18
TORSDOF 8
ENDMDL
MODEL 7
REMARK VINA RESULT:      -6.9      6.741      9.983
REMARK  Name = 
REMARK  10 active torsions:
REMARK  status: ('A' for Active; 'I' for Inactive)
REMARK    1  A    between atoms: C_1  and  C_2
REMARK    2  A    between atoms: C_4  and  C_5
REMARK    3  A    between atoms: C_6  and  C_7
REMARK    4  A    between atoms: C_10  and  O_11
REMARK    5  A    between atoms: O_11  and  C_12
REMARK    6  A    between atoms: C_12  and  C_13
REMARK    7  A    between atoms: C_13  and  C_14
REMARK    8  A    between atoms: C_14  and  C_15
REMARK    9  A    between atoms: C_15  and  S_16
REMARK   10  A    between atoms: S_16  and  C_17
REMARK                            x       y       z     vdW  Elec       q    Type
REMARK                         _______ _______ _______ _____ _____    ______ ____
ROOT
ATOM      1  C   UNL     1       5.619   5.696  18.007  0.00  0.00    +0.000 A 
ATOM      2  C   UNL     1       6.809   5.505  18.709  0.00  0.00    +0.000 A 
ATOM      3  C   UNL     1       7.829   6.447  18.626  0.00  0.00    +0.000 A 
ATOM      4  C   UNL     1       7.682   7.589  17.841  0.00  0.00    +0.000 A 
ATOM      5  C   UNL     1       6.488   7.783  17.130  0.00  0.00    +0.000 A 
ATOM      6  C   UNL     1       5.461   6.838  17.212  0.00  0.00    +0.000 A 
ENDROOT
BRANCH   1  12
ATOM      7  C   UNL     1       1.336   1.793  18.327  0.00  0.00    +0.000 C 
ATOM      8  C   UNL     1       2.404   2.855  18.360  0.00  0.00    +0.000 A 
ATOM      9  N   UNL     1       3.365   2.791  17.369  0.00  0.00    +0.000 N 
ATOM     10  C   UNL     1       4.414   3.680  17.258  0.00  0.00    +0.000 A 
ATOM     11  C   UNL     1       5.367   3.463  16.105  0.00  0.00    +0.000 C 
ATOM     12  C   UNL     1       4.560   4.692  18.142  0.00  0.00    +0.000 A 
ATOM     13  C   UNL     1       3.542   4.831  19.241  0.00  0.00    +0.000 A 
ATOM     14  O   UNL     1       3.620   5.754  20.052  0.00  0.00    +0.000 OA
ATOM     15  C   UNL     1       2.433   3.821  19.304  0.00  0.00    +0.000 A 
ATOM     16 BR   UNL     1       1.187   3.993  20.688  0.00  0.00    +0.000 Br
ATOM     17  H   UNL     1       3.296   2.045  16.680  0.00  0.00    +0.000 HD
ENDBRANCH   1  12
BRANCH   4  18
ATOM     18  O   UNL     1       8.636   8.564  17.702  0.00  0.00    +0.000 OA
BRANCH  18  19
ATOM     19  C   UNL     1       8.250   9.847  18.201  0.00  0.00    +0.000 C 
BRANCH  19  20
ATOM     20  C   UNL     1       9.463  10.747  18.384  0.00  0.00    +0.000 C 
BRANCH  20  21
ATOM     21  C   UNL     1       9.669  11.095  19.856  0.00  0.00    +0.000 C 
BRANCH  21  22
ATOM     22  C   UNL     1      10.930  11.924  20.048  0.00  0.00    +0.000 C 
BRANCH  22  23
ATOM     23  S   UNL     1      10.448  13.582  20.636  0.00  0.00    +0.000 S 
BRANCH  23  24
ATOM     24  C   UNL     1      10.681  14.502  19.133  0.00  0.00    +0.000 A 
ATOM     25  C   UNL     1       9.711  15.390  18.673  0.00  0.00    +0.000 A 
ATOM     26  C   UNL     1       9.963  16.069  17.496  0.00  0.00    +0.000 A 
ATOM     27  N   UNL     1      11.096  15.932  16.774  0.00  0.00    +0.000 NA
ATOM     28  C   UNL     1      12.022  15.080  17.254  0.00  0.00    +0.000 A 
ATOM     29  C   UNL     1      11.867  14.351  18.419  0.00  0.00    +0.000 A 
ENDBRANCH  23  24
ENDBRANCH  22  23
ENDBRANCH  21  22
ENDBRANCH  20  21
ENDBRANCH  19  20
ENDBRANCH  18  19
ENDBRANCH   4  18
TORSDOF 8
ENDMDL
MODEL 8
REMARK VINA RESULT:      -6.8      6.586      8.351
REMARK  Name = 
REMARK  10 active torsions:
REMARK  status: ('A' for Active; 'I' for Inactive)
REMARK    1  A    between atoms: C_1  and  C_2
REMARK    2  A    between atoms: C_4  and  C_5
REMARK    3  A    between atoms: C_6  and  C_7
REMARK    4  A    between atoms: C_10  and  O_11
REMARK    5  A    between atoms: O_11  and  C_12
REMARK    6  A    between atoms: C_12  and  C_13
REMARK    7  A    between atoms: C_13  and  C_14
REMARK    8  A    between atoms: C_14  and  C_15
REMARK    9  A    between atoms: C_15  and  S_16
REMARK   10  A    between atoms: S_16  and  C_17
REMARK                            x       y       z     vdW  Elec       q    Type
REMARK                         _______ _______ _______ _____ _____    ______ ____
ROOT
ATOM      1  C   UNL     1       9.581  12.482  18.570  0.00  0.00    +0.000 A 
ATOM      2  C   UNL     1       8.592  12.070  17.677  0.00  0.00    +0.000 A 
ATOM      3  C   UNL     1       8.183  10.741  17.651  0.00  0.00    +0.000 A 
ATOM      4  C   UNL     1       8.755   9.803  18.509  0.00  0.00    +0.000 A 
ATOM      5  C   UNL     1       9.752  10.213  19.407  0.00  0.00    +0.000 A 
ATOM      6  C   UNL     1      10.165  11.549  19.435  0.00  0.00    +0.000 A 
ENDROOT
BRANCH   1  12
ATOM      7  C   UNL     1      11.326  18.016  18.688  0.00  0.00    +0.000 C 
ATOM      8  C   UNL     1      10.777  16.614  18.744  0.00  0.00    +0.000 A 
ATOM      9  N   UNL     1      11.333  15.702  17.868  0.00  0.00    +0.000 N 
ATOM     10  C   UNL     1      10.944  14.381  17.784  0.00  0.00    +0.000 A 
ATOM     11  C   UNL     1      11.668  13.524  16.772  0.00  0.00    +0.000 C 
ATOM     12  C   UNL     1       9.965  13.897  18.582  0.00  0.00    +0.000 A 
ATOM     13  C   UNL     1       9.323  14.831  19.571  0.00  0.00    +0.000 A 
ATOM     14  O   UNL     1       8.448  14.426  20.336  0.00  0.00    +0.000 OA
ATOM     15  C   UNL     1       9.793  16.257  19.599  0.00  0.00    +0.000 A 
ATOM     16 BR   UNL     1       8.971  17.413  20.817  0.00  0.00    +0.000 Br
ATOM     17  H   UNL     1      12.074  16.021  17.247  0.00  0.00    +0.000 HD
ENDBRANCH   1  12
BRANCH   4  18
ATOM     18  O   UNL     1       8.411   8.476  18.548  0.00  0.00    +0.000 OA
BRANCH  18  19
ATOM     19  C   UNL     1       7.600   8.042  17.454  0.00  0.00    +0.000 C 
BRANCH  19  20
ATOM     20  C   UNL     1       7.420   6.531  17.477  0.00  0.00    +0.000 C 
BRANCH  20  21
ATOM     21  C   UNL     1       7.462   5.998  18.907  0.00  0.00    +0.000 C 
BRANCH  21  22
ATOM     22  C   UNL     1       6.263   5.104  19.191  0.00  0.00    +0.000 C 
BRANCH  22  23
ATOM     23  S   UNL     1       5.198   5.081  17.712  0.00  0.00    +0.000 S 
BRANCH  23  24
ATOM     24  C   UNL     1       3.935   6.212  18.246  0.00  0.00    +0.000 A 
ATOM     25  C   UNL     1       3.227   5.999  19.427  0.00  0.00    +0.000 A 
ATOM     26  C   UNL     1       2.260   6.921  19.777  0.00  0.00    +0.000 A 
ATOM     27  N   UNL     1       1.968   8.021  19.048  0.00  0.00    +0.000 NA
ATOM     28  C   UNL     1       2.682   8.209  17.921  0.00  0.00    +0.000 A 
ATOM     29  C   UNL     1       3.669   7.345  17.482  0.00  0.00    +0.000 A 
ENDBRANCH  23  24
ENDBRANCH  22  23
ENDBRANCH  21  22
ENDBRANCH  20  21
ENDBRANCH  19  20
ENDBRANCH  18  19
ENDBRANCH   4  18
TORSDOF 8
ENDMDL
MODEL 9
REMARK VINA RESULT:      -6.8      1.417      1.715
REMARK  Name = 
REMARK  10 active torsions:
REMARK  status: ('A' for Active; 'I' for Inactive)
REMARK    1  A    between atoms: C_1  and  C_2
REMARK    2  A    between atoms: C_4  and  C_5
REMARK    3  A    between atoms: C_6  and  C_7
REMARK    4  A    between atoms: C_10  and  O_11
REMARK    5  A    between atoms: O_11  and  C_12
REMARK    6  A    between atoms: C_12  and  C_13
REMARK    7  A    between atoms: C_13  and  C_14
REMARK    8  A    between atoms: C_14  and  C_15
REMARK    9  A    between atoms: C_15  and  S_16
REMARK   10  A    between atoms: S_16  and  C_17
REMARK                            x       y       z     vdW  Elec       q    Type
REMARK                         _______ _______ _______ _____ _____    ______ ____
ROOT
ATOM      1  C   UNL     1       1.143  10.721  19.138  0.00  0.00    +0.000 A 
ATOM      2  C   UNL     1       1.848  10.201  18.052  0.00  0.00    +0.000 A 
ATOM      3  C   UNL     1       2.275   8.877  18.066  0.00  0.00    +0.000 A 
ATOM      4  C   UNL     1       2.009   8.054  19.159  0.00  0.00    +0.000 A 
ATOM      5  C   UNL     1       1.303   8.574  20.253  0.00  0.00    +0.000 A 
ATOM      6  C   UNL     1       0.873   9.905  20.243  0.00  0.00    +0.000 A 
ENDROOT
BRANCH   1  12
ATOM      7  C   UNL     1      -0.654  16.216  18.636  0.00  0.00    +0.000 C 
ATOM      8  C   UNL     1      -0.082  14.836  18.834  0.00  0.00    +0.000 A 
ATOM      9  N   UNL     1      -0.868  13.780  18.415  0.00  0.00    +0.000 N 
ATOM     10  C   UNL     1      -0.499  12.456  18.528  0.00  0.00    +0.000 A 
ATOM     11  C   UNL     1      -1.482  11.432  18.009  0.00  0.00    +0.000 C 
ATOM     12  C   UNL     1       0.690  12.114  19.073  0.00  0.00    +0.000 A 
ATOM     13  C   UNL     1       1.605  13.213  19.538  0.00  0.00    +0.000 A 
ATOM     14  O   UNL     1       2.708  12.948  20.015  0.00  0.00    +0.000 OA
ATOM     15  C   UNL     1       1.131  14.631  19.392  0.00  0.00    +0.000 A 
ATOM     16 BR   UNL     1       2.269  15.987  19.995  0.00  0.00    +0.000 Br
ATOM     17  H   UNL     1      -1.773  13.990  17.999  0.00  0.00    +0.000 HD
ENDBRANCH   1  12
BRANCH   4  18
ATOM     18  O   UNL     1       2.394   6.740  19.254  0.00  0.00    +0.000 OA
BRANCH  18  19
ATOM     19  C   UNL     1       2.194   5.977  18.062  0.00  0.00    +0.000 C 
BRANCH  19  20
ATOM     20  C   UNL     1       1.957   4.510  18.389  0.00  0.00    +0.000 C 
BRANCH  20  21
ATOM     21  C   UNL     1       2.736   3.605  17.438  0.00  0.00    +0.000 C 
BRANCH  21  22
ATOM     22  C   UNL     1       4.220   3.610  17.775  0.00  0.00    +0.000 C 
BRANCH  22  23
ATOM     23  S   UNL     1       5.132   4.290  16.350  0.00  0.00    +0.000 S 
BRANCH  23  24
ATOM     24  C   UNL     1       6.283   5.334  17.214  0.00  0.00    +0.000 A 
ATOM     25  C   UNL     1       6.544   6.633  16.783  0.00  0.00    +0.000 A 
ATOM     26  C   UNL     1       7.451   7.385  17.505  0.00  0.00    +0.000 A 
ATOM     27  N   UNL     1       8.089   6.939  18.609  0.00  0.00    +0.000 NA
ATOM     28  C   UNL     1       7.803   5.685  19.012  0.00  0.00    +0.000 A 
ATOM     29  C   UNL     1       6.913   4.852  18.359  0.00  0.00    +0.000 A 
ENDBRANCH  23  24
ENDBRANCH  22  23
ENDBRANCH  21  22
ENDBRANCH  20  21
ENDBRANCH  19  20
ENDBRANCH  18  19
ENDBRANCH   4  18
TORSDOF 8
ENDMDL
