MODEL 1
REMARK VINA RESULT:      -6.9      0.000      0.000
REMARK  Name = 
REMARK  7 active torsions:
REMARK  status: ('A' for Active; 'I' for Inactive)
REMARK    1  A    between atoms: C_1  and  C_2
REMARK    2  A    between atoms: C_2  and  N_3
REMARK    3  A    between atoms: N_3  and  C_4
REMARK    4  A    between atoms: N_3  and  S_11
REMARK    5  A    between atoms: C_7  and  O_8
REMARK    6  A    between atoms: S_11  and  C_14
REMARK    7  A    between atoms: C_17  and  O_18
REMARK                            x       y       z     vdW  Elec       q    Type
REMARK                         _______ _______ _______ _____ _____    ______ ____
ROOT
ATOM      1  N   UNL     1       3.267   4.544  18.845  0.00  0.00    +0.000 N 
ENDROOT
BRANCH   1   2
ATOM      2  C   UNL     1       2.777   5.886  18.972  0.00  0.00    +0.000 A 
ATOM      3  C   UNL     1       2.181   6.246  20.184  0.00  0.00    +0.000 A 
ATOM      4  C   UNL     1       1.674   7.534  20.369  0.00  0.00    +0.000 A 
ATOM      5  C   UNL     1       1.758   8.451  19.326  0.00  0.00    +0.000 A 
ATOM      6  C   UNL     1       2.348   8.103  18.116  0.00  0.00    +0.000 A 
ATOM      7  C   UNL     1       2.863   6.815  17.934  0.00  0.00    +0.000 A 
BRANCH   5   8
ATOM      8  O   UNL     1       1.263   9.715  19.456  0.00  0.00    +0.000 OA
ATOM      9  H   UNL     1       0.679   9.742  20.230  0.00  0.00    +0.000 HD
ENDBRANCH   5   8
ENDBRANCH   1   2
BRANCH   1  10
ATOM     10  S   UNL     1       4.943   4.310  19.070  0.00  0.00    +0.000 S 
ATOM     11  O   UNL     1       5.467   5.455  19.788  0.00  0.00    +0.000 OA
ATOM     12  O   UNL     1       5.165   2.973  19.581  0.00  0.00    +0.000 OA
BRANCH  10  13
ATOM     13  C   UNL     1       5.660   4.370  17.432  0.00  0.00    +0.000 A 
ATOM     14  C   UNL     1       4.837   4.245  16.305  0.00  0.00    +0.000 A 
ATOM     15  C   UNL     1       5.363   4.471  15.028  0.00  0.00    +0.000 A 
ATOM     16  C   UNL     1       6.702   4.831  14.892  0.00  0.00    +0.000 A 
ATOM     17  C   UNL     1       7.526   4.955  16.006  0.00  0.00    +0.000 A 
ATOM     18  C   UNL     1       7.005   4.732  17.283  0.00  0.00    +0.000 A 
BRANCH  16  19
ATOM     19  O   UNL     1       7.247   5.100  13.671  0.00  0.00    +0.000 OA
ATOM     20  H   UNL     1       6.540   5.131  13.007  0.00  0.00    +0.000 HD
ENDBRANCH  16  19
ENDBRANCH  10  13
ENDBRANCH   1  10
BRANCH   1  22
ATOM     21  C   UNL     1       2.126   2.530  17.901  0.00  0.00    +0.000 C 
ATOM     22  C   UNL     1       2.378   3.397  19.130  0.00  0.00    +0.000 C 
ENDBRANCH   1  22
TORSDOF 6
ENDMDL
MODEL 2
REMARK VINA RESULT:      -6.9      0.058      1.083
REMARK  Name = 
REMARK  7 active torsions:
REMARK  status: ('A' for Active; 'I' for Inactive)
REMARK    1  A    between atoms: C_1  and  C_2
REMARK    2  A    between atoms: C_2  and  N_3
REMARK    3  A    between atoms: N_3  and  C_4
REMARK    4  A    between atoms: N_3  and  S_11
REMARK    5  A    between atoms: C_7  and  O_8
REMARK    6  A    between atoms: S_11  and  C_14
REMARK    7  A    between atoms: C_17  and  O_18
REMARK                            x       y       z     vdW  Elec       q    Type
REMARK                         _______ _______ _______ _____ _____    ______ ____
ROOT
ATOM      1  N   UNL     1       3.261   4.512  18.844  0.00  0.00    +0.000 N 
ENDROOT
BRANCH   1   2
ATOM      2  C   UNL     1       2.739   5.834  19.023  0.00  0.00    +0.000 A 
ATOM      3  C   UNL     1       2.834   6.721  17.946  0.00  0.00    +0.000 A 
ATOM      4  C   UNL     1       2.353   8.027  18.058  0.00  0.00    +0.000 A 
ATOM      5  C   UNL     1       1.790   8.440  19.262  0.00  0.00    +0.000 A 
ATOM      6  C   UNL     1       1.691   7.567  20.340  0.00  0.00    +0.000 A 
ATOM      7  C   UNL     1       2.165   6.256  20.225  0.00  0.00    +0.000 A 
BRANCH   5   8
ATOM      8  O   UNL     1       1.322   9.710  19.422  0.00  0.00    +0.000 OA
ATOM      9  H   UNL     1       2.039  10.265  19.764  0.00  0.00    +0.000 HD
ENDBRANCH   5   8
ENDBRANCH   1   2
BRANCH   1  10
ATOM     10  S   UNL     1       4.940   4.306  19.077  0.00  0.00    +0.000 S 
ATOM     11  O   UNL     1       5.442   5.465  19.790  0.00  0.00    +0.000 OA
ATOM     12  O   UNL     1       5.182   2.976  19.597  0.00  0.00    +0.000 OA
BRANCH  10  13
ATOM     13  C   UNL     1       5.663   4.369  17.441  0.00  0.00    +0.000 A 
ATOM     14  C   UNL     1       4.845   4.237  16.311  0.00  0.00    +0.000 A 
ATOM     15  C   UNL     1       5.374   4.464  15.036  0.00  0.00    +0.000 A 
ATOM     16  C   UNL     1       6.711   4.833  14.904  0.00  0.00    +0.000 A 
ATOM     17  C   UNL     1       7.530   4.965  16.022  0.00  0.00    +0.000 A 
ATOM     18  C   UNL     1       7.006   4.740  17.297  0.00  0.00    +0.000 A 
BRANCH  16  19
ATOM     19  O   UNL     1       7.259   5.104  13.685  0.00  0.00    +0.000 OA
ATOM     20  H   UNL     1       7.531   4.271  13.267  0.00  0.00    +0.000 HD
ENDBRANCH  16  19
ENDBRANCH  10  13
ENDBRANCH   1  10
BRANCH   1  22
ATOM     21  C   UNL     1       2.200   2.500  17.807  0.00  0.00    +0.000 C 
ATOM     22  C   UNL     1       2.397   3.332  19.069  0.00  0.00    +0.000 C 
ENDBRANCH   1  22
TORSDOF 6
ENDMDL
MODEL 3
REMARK VINA RESULT:      -6.9      1.993      3.204
REMARK  Name = 
REMARK  7 active torsions:
REMARK  status: ('A' for Active; 'I' for Inactive)
REMARK    1  A    between atoms: C_1  and  C_2
REMARK    2  A    between atoms: C_2  and  N_3
REMARK    3  A    between atoms: N_3  and  C_4
REMARK    4  A    between atoms: N_3  and  S_11
REMARK    5  A    between atoms: C_7  and  O_8
REMARK    6  A    between atoms: S_11  and  C_14
REMARK    7  A    between atoms: C_17  and  O_18
REMARK                            x       y       z     vdW  Elec       q    Type
REMARK                         _______ _______ _______ _____ _____    ______ ____
ROOT
ATOM      1  N   UNL     1       4.325   5.900  18.398  0.00  0.00    +0.000 N 
ENDROOT
BRANCH   1   2
ATOM      2  C   UNL     1       3.218   5.086  18.807  0.00  0.00    +0.000 A 
ATOM      3  C   UNL     1       2.562   4.342  17.821  0.00  0.00    +0.000 A 
ATOM      4  C   UNL     1       1.470   3.536  18.151  0.00  0.00    +0.000 A 
ATOM      5  C   UNL     1       1.034   3.493  19.472  0.00  0.00    +0.000 A 
ATOM      6  C   UNL     1       1.679   4.230  20.459  0.00  0.00    +0.000 A 
ATOM      7  C   UNL     1       2.778   5.031  20.131  0.00  0.00    +0.000 A 
BRANCH   5   8
ATOM      8  O   UNL     1      -0.037   2.733  19.837  0.00  0.00    +0.000 OA
ATOM      9  H   UNL     1      -0.787   3.320  20.019  0.00  0.00    +0.000 HD
ENDBRANCH   5   8
ENDBRANCH   1   2
BRANCH   1  10
ATOM     10  S   UNL     1       5.871   5.176  18.432  0.00  0.00    +0.000 S 
ATOM     11  O   UNL     1       6.842   6.201  18.765  0.00  0.00    +0.000 OA
ATOM     12  O   UNL     1       5.802   3.962  19.220  0.00  0.00    +0.000 OA
BRANCH  10  13
ATOM     13  C   UNL     1       6.210   4.688  16.745  0.00  0.00    +0.000 A 
ATOM     14  C   UNL     1       5.398   3.734  16.117  0.00  0.00    +0.000 A 
ATOM     15  C   UNL     1       5.546   3.483  14.749  0.00  0.00    +0.000 A 
ATOM     16  C   UNL     1       6.495   4.196  14.020  0.00  0.00    +0.000 A 
ATOM     17  C   UNL     1       7.306   5.144  14.636  0.00  0.00    +0.000 A 
ATOM     18  C   UNL     1       7.162   5.399  16.002  0.00  0.00    +0.000 A 
BRANCH  16  19
ATOM     19  O   UNL     1       6.646   4.014  12.677  0.00  0.00    +0.000 OA
ATOM     20  H   UNL     1       5.773   3.882  12.273  0.00  0.00    +0.000 HD
ENDBRANCH  16  19
ENDBRANCH  10  13
ENDBRANCH   1  10
BRANCH   1  22
ATOM     21  C   UNL     1       2.980   7.938  17.860  0.00  0.00    +0.000 C 
ATOM     22  C   UNL     1       4.119   7.013  17.445  0.00  0.00    +0.000 C 
ENDBRANCH   1  22
TORSDOF 6
ENDMDL
MODEL 4
REMARK VINA RESULT:      -6.9      2.000      3.056
REMARK  Name = 
REMARK  7 active torsions:
REMARK  status: ('A' for Active; 'I' for Inactive)
REMARK    1  A    between atoms: C_1  and  C_2
REMARK    2  A    between atoms: C_2  and  N_3
REMARK    3  A    between atoms: N_3  and  C_4
REMARK    4  A    between atoms: N_3  and  S_11
REMARK    5  A    between atoms: C_7  and  O_8
REMARK    6  A    between atoms: S_11  and  C_14
REMARK    7  A    between atoms: C_17  and  O_18
REMARK                            x       y       z     vdW  Elec       q    Type
REMARK                         _______ _______ _______ _____ _____    ______ ____
ROOT
ATOM      1  N   UNL     1       4.338   5.875  18.394  0.00  0.00    +0.000 N 
ENDROOT
BRANCH   1   2
ATOM      2  C   UNL     1       3.212   5.059  18.741  0.00  0.00    +0.000 A 
ATOM      3  C   UNL     1       2.817   5.036  20.082  0.00  0.00    +0.000 A 
ATOM      4  C   UNL     1       1.734   4.254  20.488  0.00  0.00    +0.000 A 
ATOM      5  C   UNL     1       1.060   3.486  19.543  0.00  0.00    +0.000 A 
ATOM      6  C   UNL     1       1.445   3.501  18.207  0.00  0.00    +0.000 A 
ATOM      7  C   UNL     1       2.525   4.291  17.798  0.00  0.00    +0.000 A 
BRANCH   5   8
ATOM      8  O   UNL     1       0.007   2.696  19.897  0.00  0.00    +0.000 OA
ATOM      9  H   UNL     1      -0.814   3.190  19.753  0.00  0.00    +0.000 HD
ENDBRANCH   5   8
ENDBRANCH   1   2
BRANCH   1  10
ATOM     10  S   UNL     1       5.873   5.128  18.426  0.00  0.00    +0.000 S 
ATOM     11  O   UNL     1       6.857   6.131  18.783  0.00  0.00    +0.000 OA
ATOM     12  O   UNL     1       5.781   3.900  19.190  0.00  0.00    +0.000 OA
BRANCH  10  13
ATOM     13  C   UNL     1       6.217   4.666  16.732  0.00  0.00    +0.000 A 
ATOM     14  C   UNL     1       5.398   3.732  16.082  0.00  0.00    +0.000 A 
ATOM     15  C   UNL     1       5.552   3.503  14.711  0.00  0.00    +0.000 A 
ATOM     16  C   UNL     1       6.513   4.218  14.000  0.00  0.00    +0.000 A 
ATOM     17  C   UNL     1       7.332   5.145  14.638  0.00  0.00    +0.000 A 
ATOM     18  C   UNL     1       7.181   5.378  16.007  0.00  0.00    +0.000 A 
BRANCH  16  19
ATOM     19  O   UNL     1       6.671   4.058  12.655  0.00  0.00    +0.000 OA
ATOM     20  H   UNL     1       6.980   3.154  12.476  0.00  0.00    +0.000 HD
ENDBRANCH  16  19
ENDBRANCH  10  13
ENDBRANCH   1  10
BRANCH   1  22
ATOM     21  C   UNL     1       2.944   7.874  17.838  0.00  0.00    +0.000 C 
ATOM     22  C   UNL     1       4.168   7.034  17.490  0.00  0.00    +0.000 C 
ENDBRANCH   1  22
TORSDOF 6
ENDMDL
MODEL 5
REMARK VINA RESULT:      -6.8      2.060      3.248
REMARK  Name = 
REMARK  7 active torsions:
REMARK  status: ('A' for Active; 'I' for Inactive)
REMARK    1  A    between atoms: C_1  and  C_2
REMARK    2  A    between atoms: C_2  and  N_3
REMARK    3  A    between atoms: N_3  and  C_4
REMARK    4  A    between atoms: N_3  and  S_11
REMARK    5  A    between atoms: C_7  and  O_8
REMARK    6  A    between atoms: S_11  and  C_14
REMARK    7  A    between atoms: C_17  and  O_18
REMARK                            x       y       z     vdW  Elec       q    Type
REMARK                         _______ _______ _______ _____ _____    ______ ____
ROOT
ATOM      1  N   UNL     1       4.313   6.072  18.235  0.00  0.00    +0.000 N 
ENDROOT
BRANCH   1   2
ATOM      2  C   UNL     1       3.242   5.248  18.713  0.00  0.00    +0.000 A 
ATOM      3  C   UNL     1       3.014   5.217  20.093  0.00  0.00    +0.000 A 
ATOM      4  C   UNL     1       1.993   4.427  20.625  0.00  0.00    +0.000 A 
ATOM      5  C   UNL     1       1.214   3.659  19.766  0.00  0.00    +0.000 A 
ATOM      6  C   UNL     1       1.432   3.682  18.393  0.00  0.00    +0.000 A 
ATOM      7  C   UNL     1       2.450   4.479  17.859  0.00  0.00    +0.000 A 
BRANCH   5   8
ATOM      8  O   UNL     1       0.216   2.861  20.242  0.00  0.00    +0.000 OA
ATOM      9  H   UNL     1       0.099   3.041  21.188  0.00  0.00    +0.000 HD
ENDBRANCH   5   8
ENDBRANCH   1   2
BRANCH   1  10
ATOM     10  S   UNL     1       5.840   5.329  18.058  0.00  0.00    +0.000 S 
ATOM     11  O   UNL     1       6.859   6.309  18.380  0.00  0.00    +0.000 OA
ATOM     12  O   UNL     1       5.822   4.052  18.742  0.00  0.00    +0.000 OA
BRANCH  10  13
ATOM     13  C   UNL     1       6.006   4.986  16.310  0.00  0.00    +0.000 A 
ATOM     14  C   UNL     1       7.142   5.425  15.617  0.00  0.00    +0.000 A 
ATOM     15  C   UNL     1       7.362   5.006  14.300  0.00  0.00    +0.000 A 
ATOM     16  C   UNL     1       6.451   4.144  13.693  0.00  0.00    +0.000 A 
ATOM     17  C   UNL     1       5.319   3.705  14.374  0.00  0.00    +0.000 A 
ATOM     18  C   UNL     1       5.096   4.119  15.690  0.00  0.00    +0.000 A 
BRANCH  16  19
ATOM     19  O   UNL     1       6.645   3.678  12.427  0.00  0.00    +0.000 OA
ATOM     20  H   UNL     1       7.399   3.066  12.425  0.00  0.00    +0.000 HD
ENDBRANCH  16  19
ENDBRANCH  10  13
ENDBRANCH   1  10
BRANCH   1  22
ATOM     21  C   UNL     1       2.835   8.056  17.874  0.00  0.00    +0.000 C 
ATOM     22  C   UNL     1       4.025   7.243  17.377  0.00  0.00    +0.000 C 
ENDBRANCH   1  22
TORSDOF 6
ENDMDL
MODEL 6
REMARK VINA RESULT:      -6.8      2.074      3.376
REMARK  Name = 
REMARK  7 active torsions:
REMARK  status: ('A' for Active; 'I' for Inactive)
REMARK    1  A    between atoms: C_1  and  C_2
REMARK    2  A    between atoms: C_2  and  N_3
REMARK    3  A    between atoms: N_3  and  C_4
REMARK    4  A    between atoms: N_3  and  S_11
REMARK    5  A    between atoms: C_7  and  O_8
REMARK    6  A    between atoms: S_11  and  C_14
REMARK    7  A    between atoms: C_17  and  O_18
REMARK                            x       y       z     vdW  Elec       q    Type
REMARK                         _______ _______ _______ _____ _____    ______ ____
ROOT
ATOM      1  N   UNL     1       4.353   6.053  18.253  0.00  0.00    +0.000 N 
ENDROOT
BRANCH   1   2
ATOM      2  C   UNL     1       3.301   5.239  18.788  0.00  0.00    +0.000 A 
ATOM      3  C   UNL     1       2.537   4.491  17.886  0.00  0.00    +0.000 A 
ATOM      4  C   UNL     1       1.492   3.686  18.341  0.00  0.00    +0.000 A 
ATOM      5  C   UNL     1       1.210   3.647  19.703  0.00  0.00    +0.000 A 
ATOM      6  C   UNL     1       1.963   4.387  20.608  0.00  0.00    +0.000 A 
ATOM      7  C   UNL     1       3.015   5.188  20.154  0.00  0.00    +0.000 A 
BRANCH   5   8
ATOM      8  O   UNL     1       0.188   2.887  20.190  0.00  0.00    +0.000 OA
ATOM      9  H   UNL     1       0.558   2.210  20.778  0.00  0.00    +0.000 HD
ENDBRANCH   5   8
ENDBRANCH   1   2
BRANCH   1  10
ATOM     10  S   UNL     1       5.879   5.313  18.057  0.00  0.00    +0.000 S 
ATOM     11  O   UNL     1       6.900   6.299  18.353  0.00  0.00    +0.000 OA
ATOM     12  O   UNL     1       5.877   4.043  18.752  0.00  0.00    +0.000 OA
BRANCH  10  13
ATOM     13  C   UNL     1       6.017   4.954  16.309  0.00  0.00    +0.000 A 
ATOM     14  C   UNL     1       7.104   5.450  15.578  0.00  0.00    +0.000 A 
ATOM     15  C   UNL     1       7.311   5.026  14.262  0.00  0.00    +0.000 A 
ATOM     16  C   UNL     1       6.438   4.101  13.693  0.00  0.00    +0.000 A 
ATOM     17  C   UNL     1       5.355   3.606  14.412  0.00  0.00    +0.000 A 
ATOM     18  C   UNL     1       5.144   4.025  15.728  0.00  0.00    +0.000 A 
BRANCH  16  19
ATOM     19  O   UNL     1       6.625   3.629  12.428  0.00  0.00    +0.000 OA
ATOM     20  H   UNL     1       7.055   4.316  11.892  0.00  0.00    +0.000 HD
ENDBRANCH  16  19
ENDBRANCH  10  13
ENDBRANCH   1  10
BRANCH   1  22
ATOM     21  C   UNL     1       2.871   8.032  17.885  0.00  0.00    +0.000 C 
ATOM     22  C   UNL     1       4.034   7.194  17.366  0.00  0.00    +0.000 C 
ENDBRANCH   1  22
TORSDOF 6
ENDMDL
MODEL 7
REMARK VINA RESULT:      -6.7      0.390      1.151
REMARK  Name = 
REMARK  7 active torsions:
REMARK  status: ('A' for Active; 'I' for Inactive)
REMARK    1  A    between atoms: C_1  and  C_2
REMARK    2  A    between atoms: C_2  and  N_3
REMARK    3  A    between atoms: N_3  and  C_4
REMARK    4  A    between atoms: N_3  and  S_11
REMARK    5  A    between atoms: C_7  and  O_8
REMARK    6  A    between atoms: S_11  and  C_14
REMARK    7  A    between atoms: C_17  and  O_18
REMARK                            x       y       z     vdW  Elec       q    Type
REMARK                         _______ _______ _______ _____ _____    ______ ____
ROOT
ATOM      1  N   UNL     1       3.265   4.653  18.937  0.00  0.00    +0.000 N 
ENDROOT
BRANCH   1   2
ATOM      2  C   UNL     1       2.751   5.984  19.073  0.00  0.00    +0.000 A 
ATOM      3  C   UNL     1       2.147   6.325  20.288  0.00  0.00    +0.000 A 
ATOM      4  C   UNL     1       1.618   7.602  20.482  0.00  0.00    +0.000 A 
ATOM      5  C   UNL     1       1.685   8.528  19.445  0.00  0.00    +0.000 A 
ATOM      6  C   UNL     1       2.282   8.199  18.233  0.00  0.00    +0.000 A 
ATOM      7  C   UNL     1       2.820   6.922  18.041  0.00  0.00    +0.000 A 
BRANCH   5   8
ATOM      8  O   UNL     1       1.166   9.781  19.584  0.00  0.00    +0.000 OA
ATOM      9  H   UNL     1       0.434   9.746  20.218  0.00  0.00    +0.000 HD
ENDBRANCH   5   8
ENDBRANCH   1   2
BRANCH   1  10
ATOM     10  S   UNL     1       4.960   4.468  19.017  0.00  0.00    +0.000 S 
ATOM     11  O   UNL     1       5.505   5.604  19.735  0.00  0.00    +0.000 OA
ATOM     12  O   UNL     1       5.265   3.121  19.457  0.00  0.00    +0.000 OA
BRANCH  10  13
ATOM     13  C   UNL     1       5.539   4.612  17.330  0.00  0.00    +0.000 A 
ATOM     14  C   UNL     1       6.893   4.862  17.076  0.00  0.00    +0.000 A 
ATOM     15  C   UNL     1       7.381   4.798  15.766  0.00  0.00    +0.000 A 
ATOM     16  C   UNL     1       6.513   4.472  14.726  0.00  0.00    +0.000 A 
ATOM     17  C   UNL     1       5.166   4.224  14.971  0.00  0.00    +0.000 A 
ATOM     18  C   UNL     1       4.674   4.286  16.277  0.00  0.00    +0.000 A 
BRANCH  16  19
ATOM     19  O   UNL     1       6.952   4.357  13.441  0.00  0.00    +0.000 OA
ATOM     20  H   UNL     1       7.068   3.417  13.226  0.00  0.00    +0.000 HD
ENDBRANCH  16  19
ENDBRANCH  10  13
ENDBRANCH   1  10
BRANCH   1  22
ATOM     21  C   UNL     1       1.286   3.237  18.363  0.00  0.00    +0.000 C 
ATOM     22  C   UNL     1       2.437   3.491  19.330  0.00  0.00    +0.000 C 
ENDBRANCH   1  22
TORSDOF 6
ENDMDL
MODEL 8
REMARK VINA RESULT:      -6.6      0.277      1.554
REMARK  Name = 
REMARK  7 active torsions:
REMARK  status: ('A' for Active; 'I' for Inactive)
REMARK    1  A    between atoms: C_1  and  C_2
REMARK    2  A    between atoms: C_2  and  N_3
REMARK    3  A    between atoms: N_3  and  C_4
REMARK    4  A    between atoms: N_3  and  S_11
REMARK    5  A    between atoms: C_7  and  O_8
REMARK    6  A    between atoms: S_11  and  C_14
REMARK    7  A    between atoms: C_17  and  O_18
REMARK                            x       y       z     vdW  Elec       q    Type
REMARK                         _______ _______ _______ _____ _____    ______ ____
ROOT
ATOM      1  N   UNL     1       3.277   4.617  18.921  0.00  0.00    +0.000 N 
ENDROOT
BRANCH   1   2
ATOM      2  C   UNL     1       2.728   5.931  19.089  0.00  0.00    +0.000 A 
ATOM      3  C   UNL     1       2.764   6.794  17.989  0.00  0.00    +0.000 A 
ATOM      4  C   UNL     1       2.255   8.090  18.088  0.00  0.00    +0.000 A 
ATOM      5  C   UNL     1       1.724   8.518  19.301  0.00  0.00    +0.000 A 
ATOM      6  C   UNL     1       1.683   7.668  20.401  0.00  0.00    +0.000 A 
ATOM      7  C   UNL     1       2.185   6.367  20.299  0.00  0.00    +0.000 A 
BRANCH   5   8
ATOM      8  O   UNL     1       1.230   9.780  19.448  0.00  0.00    +0.000 OA
ATOM      9  H   UNL     1       0.267   9.752  19.343  0.00  0.00    +0.000 HD
ENDBRANCH   5   8
ENDBRANCH   1   2
BRANCH   1  10
ATOM     10  S   UNL     1       4.975   4.473  19.010  0.00  0.00    +0.000 S 
ATOM     11  O   UNL     1       5.490   5.624  19.725  0.00  0.00    +0.000 OA
ATOM     12  O   UNL     1       5.310   3.136  19.457  0.00  0.00    +0.000 OA
BRANCH  10  13
ATOM     13  C   UNL     1       5.558   4.623  17.325  0.00  0.00    +0.000 A 
ATOM     14  C   UNL     1       6.909   4.897  17.075  0.00  0.00    +0.000 A 
ATOM     15  C   UNL     1       7.403   4.837  15.768  0.00  0.00    +0.000 A 
ATOM     16  C   UNL     1       6.546   4.493  14.725  0.00  0.00    +0.000 A 
ATOM     17  C   UNL     1       5.202   4.222  14.965  0.00  0.00    +0.000 A 
ATOM     18  C   UNL     1       4.704   4.279  16.269  0.00  0.00    +0.000 A 
BRANCH  16  19
ATOM     19  O   UNL     1       6.992   4.383  13.442  0.00  0.00    +0.000 OA
ATOM     20  H   UNL     1       7.498   5.180  13.211  0.00  0.00    +0.000 HD
ENDBRANCH  16  19
ENDBRANCH  10  13
ENDBRANCH   1  10
BRANCH   1  22
ATOM     21  C   UNL     1       1.916   2.709  18.052  0.00  0.00    +0.000 C 
ATOM     22  C   UNL     1       2.475   3.425  19.276  0.00  0.00    +0.000 C 
ENDBRANCH   1  22
TORSDOF 6
ENDMDL
MODEL 9
REMARK VINA RESULT:      -6.4      1.866      5.306
REMARK  Name = 
REMARK  7 active torsions:
REMARK  status: ('A' for Active; 'I' for Inactive)
REMARK    1  A    between atoms: C_1  and  C_2
REMARK    2  A    between atoms: C_2  and  N_3
REMARK    3  A    between atoms: N_3  and  C_4
REMARK    4  A    between atoms: N_3  and  S_11
REMARK    5  A    between atoms: C_7  and  O_8
REMARK    6  A    between atoms: S_11  and  C_14
REMARK    7  A    between atoms: C_17  and  O_18
REMARK                            x       y       z     vdW  Elec       q    Type
REMARK                         _______ _______ _______ _____ _____    ______ ____
ROOT
ATOM      1  N   UNL     1       3.850   3.628  19.092  0.00  0.00    +0.000 N 
ENDROOT
BRANCH   1   2
ATOM      2  C   UNL     1       4.827   4.324  18.307  0.00  0.00    +0.000 A 
ATOM      3  C   UNL     1       5.730   5.153  18.982  0.00  0.00    +0.000 A 
ATOM      4  C   UNL     1       6.700   5.867  18.275  0.00  0.00    +0.000 A 
ATOM      5  C   UNL     1       6.749   5.754  16.890  0.00  0.00    +0.000 A 
ATOM      6  C   UNL     1       5.856   4.932  16.209  0.00  0.00    +0.000 A 
ATOM      7  C   UNL     1       4.890   4.211  16.917  0.00  0.00    +0.000 A 
BRANCH   5   8
ATOM      8  O   UNL     1       7.669   6.444  16.158  0.00  0.00    +0.000 OA
ATOM      9  H   UNL     1       7.202   7.006  15.522  0.00  0.00    +0.000 HD
ENDBRANCH   5   8
ENDBRANCH   1   2
BRANCH   1  10
ATOM     10  S   UNL     1       2.219   4.083  18.875  0.00  0.00    +0.000 S 
ATOM     11  O   UNL     1       1.861   3.833  17.492  0.00  0.00    +0.000 OA
ATOM     12  O   UNL     1       1.426   3.507  19.942  0.00  0.00    +0.000 OA
BRANCH  10  13
ATOM     13  C   UNL     1       2.182   5.858  19.093  0.00  0.00    +0.000 A 
ATOM     14  C   UNL     1       2.341   6.701  17.986  0.00  0.00    +0.000 A 
ATOM     15  C   UNL     1       2.135   8.078  18.121  0.00  0.00    +0.000 A 
ATOM     16  C   UNL     1       1.760   8.597  19.358  0.00  0.00    +0.000 A 
ATOM     17  C   UNL     1       1.602   7.766  20.464  0.00  0.00    +0.000 A 
ATOM     18  C   UNL     1       1.806   6.391  20.333  0.00  0.00    +0.000 A 
BRANCH  16  19
ATOM     19  O   UNL     1       1.509   9.926  19.527  0.00  0.00    +0.000 OA
ATOM     20  H   UNL     1       2.072  10.269  20.240  0.00  0.00    +0.000 HD
ENDBRANCH  16  19
ENDBRANCH  10  13
ENDBRANCH   1  10
BRANCH   1  22
ATOM     21  C   UNL     1       3.777   1.201  18.500  0.00  0.00    +0.000 C 
ATOM     22  C   UNL     1       4.113   2.248  19.556  0.00  0.00    +0.000 C 
ENDBRANCH   1  22
TORSDOF 6
ENDMDL
