MODEL 1
REMARK VINA RESULT:      -7.9      0.000      0.000
REMARK  Name = 
REMARK  12 active torsions:
REMARK  status: ('A' for Active; 'I' for Inactive)
REMARK    1  A    between atoms: C_1  and  C_2
REMARK    2  A    between atoms: C_5  and  N_6
REMARK    3  A    between atoms: N_6  and  C_7
REMARK    4  A    between atoms: N_6  and  S_20
REMARK    5  A    between atoms: C_7  and  C_8
REMARK    6  A    between atoms: N_10  and  C_11
REMARK    7  A    between atoms: C_11  and  C_12
REMARK    8  A    between atoms: C_12  and  S_13
REMARK    9  A    between atoms: S_13  and  C_14
REMARK   10  A    between atoms: C_14  and  C_15
REMARK   11  A    between atoms: S_20  and  C_23
REMARK   12  A    between atoms: C_26  and  C_27
REMARK                            x       y       z     vdW  Elec       q    Type
REMARK                         _______ _______ _______ _____ _____    ______ ____
ROOT
ATOM      1  N   UNL     1       4.715   5.289  18.264  0.00  0.00    +0.000 N 
ENDROOT
BRANCH   1   6
ATOM      2  C   UNL     1       6.172   3.838  12.892  0.00  0.00    +0.000 C 
ATOM      3  C   UNL     1       5.793   4.228  14.294  0.00  0.00    +0.000 A 
ATOM      4  C   UNL     1       5.757   3.273  15.315  0.00  0.00    +0.000 A 
ATOM      5  C   UNL     1       5.402   3.643  16.616  0.00  0.00    +0.000 A 
ATOM      6  C   UNL     1       5.059   4.964  16.909  0.00  0.00    +0.000 A 
ATOM      7  C   UNL     1       5.121   5.929  15.903  0.00  0.00    +0.000 A 
ATOM      8  C   UNL     1       5.493   5.561  14.602  0.00  0.00    +0.000 A 
ENDBRANCH   1   6
BRANCH   1   9
ATOM      9  S   UNL     1       3.065   5.180  18.696  0.00  0.00    +0.000 S 
ATOM     10  O   UNL     1       2.343   4.620  17.562  0.00  0.00    +0.000 OA
ATOM     11  O   UNL     1       2.969   4.543  19.992  0.00  0.00    +0.000 OA
BRANCH   9  12
ATOM     12  C   UNL     1       2.476   6.861  18.901  0.00  0.00    +0.000 A 
ATOM     13  C   UNL     1       2.407   7.739  17.813  0.00  0.00    +0.000 A 
ATOM     14  C   UNL     1       1.859   9.020  17.985  0.00  0.00    +0.000 A 
ATOM     15  C   UNL     1       1.365   9.429  19.233  0.00  0.00    +0.000 A 
ATOM     16  C   UNL     1       0.797  10.804  19.439  0.00  0.00    +0.000 C 
ATOM     17  C   UNL     1       1.396   8.523  20.300  0.00  0.00    +0.000 A 
ATOM     18  C   UNL     1       1.939   7.244  20.135  0.00  0.00    +0.000 A 
ENDBRANCH   9  12
ENDBRANCH   1   9
BRANCH   1  19
ATOM     19  C   UNL     1       5.670   5.032  19.360  0.00  0.00    +0.000 C 
BRANCH  19  20
ATOM     20  C   UNL     1       7.028   5.714  19.351  0.00  0.00    +0.000 C 
ATOM     21  O   UNL     1       7.857   5.489  20.236  0.00  0.00    +0.000 OA
ATOM     22  N   UNL     1       7.252   6.660  18.366  0.00  0.00    +0.000 N 
ATOM     23  H   UNL     1       6.468   6.958  17.794  0.00  0.00    +0.000 HD
BRANCH  22  24
ATOM     24  C   UNL     1       8.390   7.568  18.492  0.00  0.00    +0.000 C 
BRANCH  24  25
ATOM     25  C   UNL     1       8.121   9.003  18.022  0.00  0.00    +0.000 C 
BRANCH  25  26
ATOM     26  S   UNL     1       9.174  10.162  18.957  0.00  0.00    +0.000 S 
BRANCH  26  27
ATOM     27  C   UNL     1       8.970  11.668  17.941  0.00  0.00    +0.000 C 
BRANCH  27  28
ATOM     28  C   UNL     1      10.201  12.496  18.051  0.00  0.00    +0.000 A 
ATOM     29  C   UNL     1      11.520  12.285  17.701  0.00  0.00    +0.000 A 
ATOM     30  C   UNL     1      12.237  13.425  18.133  0.00  0.00    +0.000 A 
ATOM     31  C   UNL     1      11.310  14.271  18.694  0.00  0.00    +0.000 A 
ATOM     32  O   UNL     1      10.069  13.720  18.640  0.00  0.00    +0.000 OA
ENDBRANCH  27  28
ENDBRANCH  26  27
ENDBRANCH  25  26
ENDBRANCH  24  25
ENDBRANCH  22  24
ENDBRANCH  19  20
ENDBRANCH   1  19
TORSDOF 10
ENDMDL
MODEL 2
REMARK VINA RESULT:      -7.5      0.746      1.234
REMARK  Name = 
REMARK  12 active torsions:
REMARK  status: ('A' for Active; 'I' for Inactive)
REMARK    1  A    between atoms: C_1  and  C_2
REMARK    2  A    between atoms: C_5  and  N_6
REMARK    3  A    between atoms: N_6  and  C_7
REMARK    4  A    between atoms: N_6  and  S_20
REMARK    5  A    between atoms: C_7  and  C_8
REMARK    6  A    between atoms: N_10  and  C_11
REMARK    7  A    between atoms: C_11  and  C_12
REMARK    8  A    between atoms: C_12  and  S_13
REMARK    9  A    between atoms: S_13  and  C_14
REMARK   10  A    between atoms: C_14  and  C_15
REMARK   11  A    between atoms: S_20  and  C_23
REMARK   12  A    between atoms: C_26  and  C_27
REMARK                            x       y       z     vdW  Elec       q    Type
REMARK                         _______ _______ _______ _____ _____    ______ ____
ROOT
ATOM      1  N   UNL     1       4.765   5.300  18.217  0.00  0.00    +0.000 N 
ENDROOT
BRANCH   1   6
ATOM      2  C   UNL     1       6.177   3.799  12.847  0.00  0.00    +0.000 C 
ATOM      3  C   UNL     1       5.809   4.201  14.248  0.00  0.00    +0.000 A 
ATOM      4  C   UNL     1       5.822   3.265  15.287  0.00  0.00    +0.000 A 
ATOM      5  C   UNL     1       5.477   3.647  16.587  0.00  0.00    +0.000 A 
ATOM      6  C   UNL     1       5.097   4.961  16.863  0.00  0.00    +0.000 A 
ATOM      7  C   UNL     1       5.110   5.909  15.838  0.00  0.00    +0.000 A 
ATOM      8  C   UNL     1       5.471   5.530  14.537  0.00  0.00    +0.000 A 
ENDBRANCH   1   6
BRANCH   1   9
ATOM      9  S   UNL     1       3.141   5.075  18.701  0.00  0.00    +0.000 S 
ATOM     10  O   UNL     1       2.444   4.394  17.619  0.00  0.00    +0.000 OA
ATOM     11  O   UNL     1       3.132   4.503  20.032  0.00  0.00    +0.000 OA
BRANCH   9  12
ATOM     12  C   UNL     1       2.415   6.709  18.835  0.00  0.00    +0.000 A 
ATOM     13  C   UNL     1       1.973   7.201  20.069  0.00  0.00    +0.000 A 
ATOM     14  C   UNL     1       1.491   8.517  20.161  0.00  0.00    +0.000 A 
ATOM     15  C   UNL     1       1.461   9.352  19.034  0.00  0.00    +0.000 A 
ATOM     16  C   UNL     1       0.927  10.754  19.111  0.00  0.00    +0.000 C 
ATOM     17  C   UNL     1       1.952   8.861  17.818  0.00  0.00    +0.000 A 
ATOM     18  C   UNL     1       2.435   7.552  17.719  0.00  0.00    +0.000 A 
ENDBRANCH   9  12
ENDBRANCH   1   9
BRANCH   1  19
ATOM     19  C   UNL     1       5.768   5.152  19.291  0.00  0.00    +0.000 C 
BRANCH  19  20
ATOM     20  C   UNL     1       7.143   5.778  19.127  0.00  0.00    +0.000 C 
ATOM     21  O   UNL     1       8.109   5.365  19.776  0.00  0.00    +0.000 OA
ATOM     22  N   UNL     1       7.241   6.879  18.295  0.00  0.00    +0.000 N 
ATOM     23  H   UNL     1       6.385   7.304  17.953  0.00  0.00    +0.000 HD
BRANCH  22  24
ATOM     24  C   UNL     1       8.443   7.708  18.346  0.00  0.00    +0.000 C 
BRANCH  24  25
ATOM     25  C   UNL     1       8.210   9.195  18.047  0.00  0.00    +0.000 C 
BRANCH  25  26
ATOM     26  S   UNL     1       9.239  10.212  19.156  0.00  0.00    +0.000 S 
BRANCH  26  27
ATOM     27  C   UNL     1       9.744  11.534  17.999  0.00  0.00    +0.000 C 
BRANCH  27  28
ATOM     28  C   UNL     1       9.989  12.783  18.769  0.00  0.00    +0.000 A 
ATOM     29  C   UNL     1       9.917  14.124  18.447  0.00  0.00    +0.000 A 
ATOM     30  C   UNL     1      10.345  14.836  19.592  0.00  0.00    +0.000 A 
ATOM     31  C   UNL     1      10.626  13.888  20.548  0.00  0.00    +0.000 A 
ATOM     32  O   UNL     1      10.404  12.640  20.062  0.00  0.00    +0.000 OA
ENDBRANCH  27  28
ENDBRANCH  26  27
ENDBRANCH  25  26
ENDBRANCH  24  25
ENDBRANCH  22  24
ENDBRANCH  19  20
ENDBRANCH   1  19
TORSDOF 10
ENDMDL
MODEL 3
REMARK VINA RESULT:      -7.3      1.277      1.399
REMARK  Name = 
REMARK  12 active torsions:
REMARK  status: ('A' for Active; 'I' for Inactive)
REMARK    1  A    between atoms: C_1  and  C_2
REMARK    2  A    between atoms: C_5  and  N_6
REMARK    3  A    between atoms: N_6  and  C_7
REMARK    4  A    between atoms: N_6  and  S_20
REMARK    5  A    between atoms: C_7  and  C_8
REMARK    6  A    between atoms: N_10  and  C_11
REMARK    7  A    between atoms: C_11  and  C_12
REMARK    8  A    between atoms: C_12  and  S_13
REMARK    9  A    between atoms: S_13  and  C_14
REMARK   10  A    between atoms: C_14  and  C_15
REMARK   11  A    between atoms: S_20  and  C_23
REMARK   12  A    between atoms: C_26  and  C_27
REMARK                            x       y       z     vdW  Elec       q    Type
REMARK                         _______ _______ _______ _____ _____    ______ ____
ROOT
ATOM      1  N   UNL     1       4.881   5.376  18.177  0.00  0.00    +0.000 N 
ENDROOT
BRANCH   1   6
ATOM      2  C   UNL     1       6.152   3.754  12.807  0.00  0.00    +0.000 C 
ATOM      3  C   UNL     1       5.822   4.189  14.208  0.00  0.00    +0.000 A 
ATOM      4  C   UNL     1       5.819   3.266  15.260  0.00  0.00    +0.000 A 
ATOM      5  C   UNL     1       5.508   3.677  16.560  0.00  0.00    +0.000 A 
ATOM      6  C   UNL     1       5.178   5.008  16.823  0.00  0.00    +0.000 A 
ATOM      7  C   UNL     1       5.208   5.940  15.785  0.00  0.00    +0.000 A 
ATOM      8  C   UNL     1       5.535   5.532  14.484  0.00  0.00    +0.000 A 
ENDBRANCH   1   6
BRANCH   1   9
ATOM      9  S   UNL     1       3.269   5.165  18.706  0.00  0.00    +0.000 S 
ATOM     10  O   UNL     1       2.523   4.540  17.623  0.00  0.00    +0.000 OA
ATOM     11  O   UNL     1       3.290   4.543  20.014  0.00  0.00    +0.000 OA
BRANCH   9  12
ATOM     12  C   UNL     1       2.582   6.806  18.926  0.00  0.00    +0.000 A 
ATOM     13  C   UNL     1       2.461   7.687  17.845  0.00  0.00    +0.000 A 
ATOM     14  C   UNL     1       1.838   8.932  18.027  0.00  0.00    +0.000 A 
ATOM     15  C   UNL     1       1.320   9.300  19.278  0.00  0.00    +0.000 A 
ATOM     16  C   UNL     1       0.671  10.637  19.496  0.00  0.00    +0.000 C 
ATOM     17  C   UNL     1       1.404   8.388  20.338  0.00  0.00    +0.000 A 
ATOM     18  C   UNL     1       2.022   7.146  20.162  0.00  0.00    +0.000 A 
ENDBRANCH   9  12
ENDBRANCH   1   9
BRANCH   1  19
ATOM     19  C   UNL     1       5.909   5.249  19.230  0.00  0.00    +0.000 C 
BRANCH  19  20
ATOM     20  C   UNL     1       7.253   5.936  19.054  0.00  0.00    +0.000 C 
ATOM     21  O   UNL     1       8.269   5.492  19.597  0.00  0.00    +0.000 OA
ATOM     22  N   UNL     1       7.268   7.122  18.341  0.00  0.00    +0.000 N 
ATOM     23  H   UNL     1       6.381   7.550  18.097  0.00  0.00    +0.000 HD
BRANCH  22  24
ATOM     24  C   UNL     1       8.447   7.983  18.410  0.00  0.00    +0.000 C 
BRANCH  24  25
ATOM     25  C   UNL     1       8.192   9.450  18.043  0.00  0.00    +0.000 C 
BRANCH  25  26
ATOM     26  S   UNL     1       9.644  10.456  18.494  0.00  0.00    +0.000 S 
BRANCH  26  27
ATOM     27  C   UNL     1       9.292  10.750  20.263  0.00  0.00    +0.000 C 
BRANCH  27  28
ATOM     28  C   UNL     1       9.570  12.176  20.581  0.00  0.00    +0.000 A 
ATOM     29  C   UNL     1      10.086  13.228  19.850  0.00  0.00    +0.000 A 
ATOM     30  C   UNL     1      10.179  14.326  20.737  0.00  0.00    +0.000 A 
ATOM     31  C   UNL     1       9.692  13.885  21.944  0.00  0.00    +0.000 A 
ATOM     32  O   UNL     1       9.310  12.585  21.858  0.00  0.00    +0.000 OA
ENDBRANCH  27  28
ENDBRANCH  26  27
ENDBRANCH  25  26
ENDBRANCH  24  25
ENDBRANCH  22  24
ENDBRANCH  19  20
ENDBRANCH   1  19
TORSDOF 10
ENDMDL
MODEL 4
REMARK VINA RESULT:      -7.0      4.349      7.923
REMARK  Name = 
REMARK  12 active torsions:
REMARK  status: ('A' for Active; 'I' for Inactive)
REMARK    1  A    between atoms: C_1  and  C_2
REMARK    2  A    between atoms: C_5  and  N_6
REMARK    3  A    between atoms: N_6  and  C_7
REMARK    4  A    between atoms: N_6  and  S_20
REMARK    5  A    between atoms: C_7  and  C_8
REMARK    6  A    between atoms: N_10  and  C_11
REMARK    7  A    between atoms: C_11  and  C_12
REMARK    8  A    between atoms: C_12  and  S_13
REMARK    9  A    between atoms: S_13  and  C_14
REMARK   10  A    between atoms: C_14  and  C_15
REMARK   11  A    between atoms: S_20  and  C_23
REMARK   12  A    between atoms: C_26  and  C_27
REMARK                            x       y       z     vdW  Elec       q    Type
REMARK                         _______ _______ _______ _____ _____    ______ ____
ROOT
ATOM      1  N   UNL     1       4.471   6.023  18.401  0.00  0.00    +0.000 N 
ENDROOT
BRANCH   1   6
ATOM      2  C   UNL     1       0.450   2.003  19.271  0.00  0.00    +0.000 C 
ATOM      3  C   UNL     1       1.501   3.056  19.054  0.00  0.00    +0.000 A 
ATOM      4  C   UNL     1       1.748   3.565  17.775  0.00  0.00    +0.000 A 
ATOM      5  C   UNL     1       2.729   4.542  17.581  0.00  0.00    +0.000 A 
ATOM      6  C   UNL     1       3.487   5.010  18.656  0.00  0.00    +0.000 A 
ATOM      7  C   UNL     1       3.226   4.529  19.940  0.00  0.00    +0.000 A 
ATOM      8  C   UNL     1       2.232   3.560  20.137  0.00  0.00    +0.000 A 
ENDBRANCH   1   6
BRANCH   1   9
ATOM      9  S   UNL     1       6.087   5.505  18.194  0.00  0.00    +0.000 S 
ATOM     10  O   UNL     1       6.944   6.679  18.269  0.00  0.00    +0.000 OA
ATOM     11  O   UNL     1       6.328   4.383  19.078  0.00  0.00    +0.000 OA
BRANCH   9  12
ATOM     12  C   UNL     1       6.214   4.879  16.519  0.00  0.00    +0.000 A 
ATOM     13  C   UNL     1       5.470   3.768  16.106  0.00  0.00    +0.000 A 
ATOM     14  C   UNL     1       5.522   3.353  14.765  0.00  0.00    +0.000 A 
ATOM     15  C   UNL     1       6.299   4.050  13.828  0.00  0.00    +0.000 A 
ATOM     16  C   UNL     1       6.383   3.606  12.395  0.00  0.00    +0.000 C 
ATOM     17  C   UNL     1       6.999   5.189  14.245  0.00  0.00    +0.000 A 
ATOM     18  C   UNL     1       6.951   5.607  15.578  0.00  0.00    +0.000 A 
ENDBRANCH   9  12
ENDBRANCH   1   9
BRANCH   1  19
ATOM     19  C   UNL     1       4.106   7.251  17.667  0.00  0.00    +0.000 C 
BRANCH  19  20
ATOM     20  C   UNL     1       2.829   7.991  18.030  0.00  0.00    +0.000 C 
ATOM     21  O   UNL     1       2.260   8.715  17.207  0.00  0.00    +0.000 OA
ATOM     22  N   UNL     1       2.390   7.891  19.338  0.00  0.00    +0.000 N 
ATOM     23  H   UNL     1       3.003   7.459  20.022  0.00  0.00    +0.000 HD
BRANCH  22  24
ATOM     24  C   UNL     1       1.372   8.820  19.824  0.00  0.00    +0.000 C 
BRANCH  24  25
ATOM     25  C   UNL     1       0.576   8.323  21.037  0.00  0.00    +0.000 C 
BRANCH  25  26
ATOM     26  S   UNL     1       0.419   9.666  22.260  0.00  0.00    +0.000 S 
BRANCH  26  27
ATOM     27  C   UNL     1       0.537  11.118  21.157  0.00  0.00    +0.000 C 
BRANCH  27  28
ATOM     28  C   UNL     1      -0.387  12.175  21.648  0.00  0.00    +0.000 A 
ATOM     29  C   UNL     1      -1.146  13.140  21.016  0.00  0.00    +0.000 A 
ATOM     30  C   UNL     1      -1.759  13.902  22.038  0.00  0.00    +0.000 A 
ATOM     31  C   UNL     1      -1.357  13.342  23.226  0.00  0.00    +0.000 A 
ATOM     32  O   UNL     1      -0.532  12.287  23.001  0.00  0.00    +0.000 OA
ENDBRANCH  27  28
ENDBRANCH  26  27
ENDBRANCH  25  26
ENDBRANCH  24  25
ENDBRANCH  22  24
ENDBRANCH  19  20
ENDBRANCH   1  19
TORSDOF 10
ENDMDL
MODEL 5
REMARK VINA RESULT:      -6.9      4.618      9.297
REMARK  Name = 
REMARK  12 active torsions:
REMARK  status: ('A' for Active; 'I' for Inactive)
REMARK    1  A    between atoms: C_1  and  C_2
REMARK    2  A    between atoms: C_5  and  N_6
REMARK    3  A    between atoms: N_6  and  C_7
REMARK    4  A    between atoms: N_6  and  S_20
REMARK    5  A    between atoms: C_7  and  C_8
REMARK    6  A    between atoms: N_10  and  C_11
REMARK    7  A    between atoms: C_11  and  C_12
REMARK    8  A    between atoms: C_12  and  S_13
REMARK    9  A    between atoms: S_13  and  C_14
REMARK   10  A    between atoms: C_14  and  C_15
REMARK   11  A    between atoms: S_20  and  C_23
REMARK   12  A    between atoms: C_26  and  C_27
REMARK                            x       y       z     vdW  Elec       q    Type
REMARK                         _______ _______ _______ _____ _____    ______ ____
ROOT
ATOM      1  N   UNL     1       0.906  11.243  19.088  0.00  0.00    +0.000 N 
ENDROOT
BRANCH   1   6
ATOM      2  C   UNL     1       4.422  15.727  19.873  0.00  0.00    +0.000 C 
ATOM      3  C   UNL     1       3.503  14.556  19.657  0.00  0.00    +0.000 A 
ATOM      4  C   UNL     1       2.751  14.034  20.714  0.00  0.00    +0.000 A 
ATOM      5  C   UNL     1       1.901  12.944  20.506  0.00  0.00    +0.000 A 
ATOM      6  C   UNL     1       1.804  12.350  19.247  0.00  0.00    +0.000 A 
ATOM      7  C   UNL     1       2.528  12.883  18.179  0.00  0.00    +0.000 A 
ATOM      8  C   UNL     1       3.369  13.986  18.384  0.00  0.00    +0.000 A 
ENDBRANCH   1   6
BRANCH   1   9
ATOM      9  S   UNL     1      -0.728  11.608  18.741  0.00  0.00    +0.000 S 
ATOM     10  O   UNL     1      -0.755  12.849  17.979  0.00  0.00    +0.000 OA
ATOM     11  O   UNL     1      -1.361  10.422  18.202  0.00  0.00    +0.000 OA
BRANCH   9  12
ATOM     12  C   UNL     1      -1.521  11.950  20.312  0.00  0.00    +0.000 A 
ATOM     13  C   UNL     1      -2.714  12.680  20.373  0.00  0.00    +0.000 A 
ATOM     14  C   UNL     1      -3.361  12.857  21.606  0.00  0.00    +0.000 A 
ATOM     15  C   UNL     1      -2.834  12.296  22.780  0.00  0.00    +0.000 A 
ATOM     16  C   UNL     1      -3.502  12.495  24.111  0.00  0.00    +0.000 C 
ATOM     17  C   UNL     1      -1.668  11.527  22.695  0.00  0.00    +0.000 A 
ATOM     18  C   UNL     1      -1.019  11.346  21.469  0.00  0.00    +0.000 A 
ENDBRANCH   9  12
ENDBRANCH   1   9
BRANCH   1  19
ATOM     19  C   UNL     1       1.391   9.958  18.545  0.00  0.00    +0.000 C 
BRANCH  19  20
ATOM     20  C   UNL     1       1.497   8.748  19.458  0.00  0.00    +0.000 C 
ATOM     21  O   UNL     1       1.075   8.790  20.617  0.00  0.00    +0.000 OA
ATOM     22  N   UNL     1       2.165   7.642  18.965  0.00  0.00    +0.000 N 
ATOM     23  H   UNL     1       2.673   7.732  18.092  0.00  0.00    +0.000 HD
BRANCH  22  24
ATOM     24  C   UNL     1       2.577   6.586  19.888  0.00  0.00    +0.000 C 
BRANCH  24  25
ATOM     25  C   UNL     1       3.778   5.755  19.418  0.00  0.00    +0.000 C 
BRANCH  25  26
ATOM     26  S   UNL     1       3.982   5.937  17.615  0.00  0.00    +0.000 S 
BRANCH  26  27
ATOM     27  C   UNL     1       3.974   4.180  17.114  0.00  0.00    +0.000 C 
BRANCH  27  28
ATOM     28  C   UNL     1       2.847   3.488  17.795  0.00  0.00    +0.000 A 
ATOM     29  C   UNL     1       1.482   3.698  17.821  0.00  0.00    +0.000 A 
ATOM     30  C   UNL     1       0.946   2.746  18.720  0.00  0.00    +0.000 A 
ATOM     31  C   UNL     1       2.010   1.999  19.166  0.00  0.00    +0.000 A 
ATOM     32  O   UNL     1       3.167   2.435  18.603  0.00  0.00    +0.000 OA
ENDBRANCH  27  28
ENDBRANCH  26  27
ENDBRANCH  25  26
ENDBRANCH  24  25
ENDBRANCH  22  24
ENDBRANCH  19  20
ENDBRANCH   1  19
TORSDOF 10
ENDMDL
MODEL 6
REMARK VINA RESULT:      -6.9      4.648      9.375
REMARK  Name = 
REMARK  12 active torsions:
REMARK  status: ('A' for Active; 'I' for Inactive)
REMARK    1  A    between atoms: C_1  and  C_2
REMARK    2  A    between atoms: C_5  and  N_6
REMARK    3  A    between atoms: N_6  and  C_7
REMARK    4  A    between atoms: N_6  and  S_20
REMARK    5  A    between atoms: C_7  and  C_8
REMARK    6  A    between atoms: N_10  and  C_11
REMARK    7  A    between atoms: C_11  and  C_12
REMARK    8  A    between atoms: C_12  and  S_13
REMARK    9  A    between atoms: S_13  and  C_14
REMARK   10  A    between atoms: C_14  and  C_15
REMARK   11  A    between atoms: S_20  and  C_23
REMARK   12  A    between atoms: C_26  and  C_27
REMARK                            x       y       z     vdW  Elec       q    Type
REMARK                         _______ _______ _______ _____ _____    ______ ____
ROOT
ATOM      1  N   UNL     1       0.909  11.397  19.105  0.00  0.00    +0.000 N 
ENDROOT
BRANCH   1   6
ATOM      2  C   UNL     1       4.624  15.752  19.672  0.00  0.00    +0.000 C 
ATOM      3  C   UNL     1       3.653  14.612  19.534  0.00  0.00    +0.000 A 
ATOM      4  C   UNL     1       3.456  13.986  18.299  0.00  0.00    +0.000 A 
ATOM      5  C   UNL     1       2.550  12.928  18.179  0.00  0.00    +0.000 A 
ATOM      6  C   UNL     1       1.815  12.495  19.283  0.00  0.00    +0.000 A 
ATOM      7  C   UNL     1       2.027  13.094  20.526  0.00  0.00    +0.000 A 
ATOM      8  C   UNL     1       2.947  14.144  20.650  0.00  0.00    +0.000 A 
ENDBRANCH   1   6
BRANCH   1   9
ATOM      9  S   UNL     1      -0.718  11.780  18.745  0.00  0.00    +0.000 S 
ATOM     10  O   UNL     1      -0.741  13.105  18.143  0.00  0.00    +0.000 OA
ATOM     11  O   UNL     1      -1.309  10.662  18.038  0.00  0.00    +0.000 OA
BRANCH   9  12
ATOM     12  C   UNL     1      -1.574  11.911  20.314  0.00  0.00    +0.000 A 
ATOM     13  C   UNL     1      -0.990  11.438  21.495  0.00  0.00    +0.000 A 
ATOM     14  C   UNL     1      -1.643  11.633  22.722  0.00  0.00    +0.000 A 
ATOM     15  C   UNL     1      -2.870  12.312  22.783  0.00  0.00    +0.000 A 
ATOM     16  C   UNL     1      -3.593  12.510  24.085  0.00  0.00    +0.000 C 
ATOM     17  C   UNL     1      -3.417  12.823  21.600  0.00  0.00    +0.000 A 
ATOM     18  C   UNL     1      -2.770  12.633  20.374  0.00  0.00    +0.000 A 
ENDBRANCH   9  12
ENDBRANCH   1   9
BRANCH   1  19
ATOM     19  C   UNL     1       1.389  10.113  18.556  0.00  0.00    +0.000 C 
BRANCH  19  20
ATOM     20  C   UNL     1       1.458   8.890  19.455  0.00  0.00    +0.000 C 
ATOM     21  O   UNL     1       1.047   8.933  20.618  0.00  0.00    +0.000 OA
ATOM     22  N   UNL     1       2.080   7.765  18.944  0.00  0.00    +0.000 N 
ATOM     23  H   UNL     1       2.583   7.846  18.067  0.00  0.00    +0.000 HD
BRANCH  22  24
ATOM     24  C   UNL     1       2.461   6.684  19.851  0.00  0.00    +0.000 C 
BRANCH  24  25
ATOM     25  C   UNL     1       3.623   5.813  19.360  0.00  0.00    +0.000 C 
BRANCH  25  26
ATOM     26  S   UNL     1       3.720   5.889  17.540  0.00  0.00    +0.000 S 
BRANCH  26  27
ATOM     27  C   UNL     1       3.891   4.110  17.155  0.00  0.00    +0.000 C 
BRANCH  27  28
ATOM     28  C   UNL     1       2.922   3.341  17.982  0.00  0.00    +0.000 A 
ATOM     29  C   UNL     1       3.066   2.370  18.954  0.00  0.00    +0.000 A 
ATOM     30  C   UNL     1       1.758   1.968  19.315  0.00  0.00    +0.000 A 
ATOM     31  C   UNL     1       0.901   2.734  18.562  0.00  0.00    +0.000 A 
ATOM     32  O   UNL     1       1.596   3.578  17.757  0.00  0.00    +0.000 OA
ENDBRANCH  27  28
ENDBRANCH  26  27
ENDBRANCH  25  26
ENDBRANCH  24  25
ENDBRANCH  22  24
ENDBRANCH  19  20
ENDBRANCH   1  19
TORSDOF 10
ENDMDL
MODEL 7
REMARK VINA RESULT:      -6.9      4.322      7.818
REMARK  Name = 
REMARK  12 active torsions:
REMARK  status: ('A' for Active; 'I' for Inactive)
REMARK    1  A    between atoms: C_1  and  C_2
REMARK    2  A    between atoms: C_5  and  N_6
REMARK    3  A    between atoms: N_6  and  C_7
REMARK    4  A    between atoms: N_6  and  S_20
REMARK    5  A    between atoms: C_7  and  C_8
REMARK    6  A    between atoms: N_10  and  C_11
REMARK    7  A    between atoms: C_11  and  C_12
REMARK    8  A    between atoms: C_12  and  S_13
REMARK    9  A    between atoms: S_13  and  C_14
REMARK   10  A    between atoms: C_14  and  C_15
REMARK   11  A    between atoms: S_20  and  C_23
REMARK   12  A    between atoms: C_26  and  C_27
REMARK                            x       y       z     vdW  Elec       q    Type
REMARK                         _______ _______ _______ _____ _____    ______ ____
ROOT
ATOM      1  N   UNL     1       4.432   6.107  18.447  0.00  0.00    +0.000 N 
ENDROOT
BRANCH   1   6
ATOM      2  C   UNL     1       0.375   2.118  19.288  0.00  0.00    +0.000 C 
ATOM      3  C   UNL     1       1.435   3.158  19.058  0.00  0.00    +0.000 A 
ATOM      4  C   UNL     1       2.214   3.632  20.119  0.00  0.00    +0.000 A 
ATOM      5  C   UNL     1       3.197   4.602  19.897  0.00  0.00    +0.000 A 
ATOM      6  C   UNL     1       3.401   5.124  18.619  0.00  0.00    +0.000 A 
ATOM      7  C   UNL     1       2.650   4.636  17.549  0.00  0.00    +0.000 A 
ATOM      8  C   UNL     1       1.675   3.652  17.769  0.00  0.00    +0.000 A 
ENDBRANCH   1   6
BRANCH   1   9
ATOM      9  S   UNL     1       6.024   5.533  18.204  0.00  0.00    +0.000 S 
ATOM     10  O   UNL     1       6.933   6.659  18.357  0.00  0.00    +0.000 OA
ATOM     11  O   UNL     1       6.213   4.344  19.010  0.00  0.00    +0.000 OA
BRANCH   9  12
ATOM     12  C   UNL     1       6.127   5.017  16.490  0.00  0.00    +0.000 A 
ATOM     13  C   UNL     1       6.977   5.670  15.591  0.00  0.00    +0.000 A 
ATOM     14  C   UNL     1       7.104   5.190  14.277  0.00  0.00    +0.000 A 
ATOM     15  C   UNL     1       6.401   4.051  13.858  0.00  0.00    +0.000 A 
ATOM     16  C   UNL     1       6.509   3.537  12.450  0.00  0.00    +0.000 C 
ATOM     17  C   UNL     1       5.593   3.379  14.783  0.00  0.00    +0.000 A 
ATOM     18  C   UNL     1       5.463   3.851  16.093  0.00  0.00    +0.000 A 
ENDBRANCH   9  12
ENDBRANCH   1   9
BRANCH   1  19
ATOM     19  C   UNL     1       4.129   7.405  17.813  0.00  0.00    +0.000 C 
BRANCH  19  20
ATOM     20  C   UNL     1       2.788   8.073  18.072  0.00  0.00    +0.000 C 
ATOM     21  O   UNL     1       2.218   8.716  17.186  0.00  0.00    +0.000 OA
ATOM     22  N   UNL     1       2.288   8.006  19.360  0.00  0.00    +0.000 N 
ATOM     23  H   UNL     1       2.890   7.650  20.095  0.00  0.00    +0.000 HD
BRANCH  22  24
ATOM     24  C   UNL     1       1.186   8.886  19.746  0.00  0.00    +0.000 C 
BRANCH  24  25
ATOM     25  C   UNL     1       1.218   9.351  21.206  0.00  0.00    +0.000 C 
BRANCH  25  26
ATOM     26  S   UNL     1      -0.314   8.834  22.049  0.00  0.00    +0.000 S 
BRANCH  26  27
ATOM     27  C   UNL     1      -0.701  10.362  22.974  0.00  0.00    +0.000 C 
BRANCH  27  28
ATOM     28  C   UNL     1      -0.717  11.510  22.028  0.00  0.00    +0.000 A 
ATOM     29  C   UNL     1      -1.516  11.841  20.951  0.00  0.00    +0.000 A 
ATOM     30  C   UNL     1      -0.979  13.028  20.401  0.00  0.00    +0.000 A 
ATOM     31  C   UNL     1       0.097  13.362  21.189  0.00  0.00    +0.000 A 
ATOM     32  O   UNL     1       0.259  12.452  22.185  0.00  0.00    +0.000 OA
ENDBRANCH  27  28
ENDBRANCH  26  27
ENDBRANCH  25  26
ENDBRANCH  24  25
ENDBRANCH  22  24
ENDBRANCH  19  20
ENDBRANCH   1  19
TORSDOF 10
ENDMDL
MODEL 8
REMARK VINA RESULT:      -6.9      5.910     10.097
REMARK  Name = 
REMARK  12 active torsions:
REMARK  status: ('A' for Active; 'I' for Inactive)
REMARK    1  A    between atoms: C_1  and  C_2
REMARK    2  A    between atoms: C_5  and  N_6
REMARK    3  A    between atoms: N_6  and  C_7
REMARK    4  A    between atoms: N_6  and  S_20
REMARK    5  A    between atoms: C_7  and  C_8
REMARK    6  A    between atoms: N_10  and  C_11
REMARK    7  A    between atoms: C_11  and  C_12
REMARK    8  A    between atoms: C_12  and  S_13
REMARK    9  A    between atoms: S_13  and  C_14
REMARK   10  A    between atoms: C_14  and  C_15
REMARK   11  A    between atoms: S_20  and  C_23
REMARK   12  A    between atoms: C_26  and  C_27
REMARK                            x       y       z     vdW  Elec       q    Type
REMARK                         _______ _______ _______ _____ _____    ______ ____
ROOT
ATOM      1  N   UNL     1       1.043   9.307  20.269  0.00  0.00    +0.000 N 
ENDROOT
BRANCH   1   6
ATOM      2  C   UNL     1       3.671   4.687  18.070  0.00  0.00    +0.000 C 
ATOM      3  C   UNL     1       2.979   5.888  18.653  0.00  0.00    +0.000 A 
ATOM      4  C   UNL     1       2.842   7.064  17.908  0.00  0.00    +0.000 A 
ATOM      5  C   UNL     1       2.200   8.178  18.457  0.00  0.00    +0.000 A 
ATOM      6  C   UNL     1       1.704   8.139  19.761  0.00  0.00    +0.000 A 
ATOM      7  C   UNL     1       1.810   6.961  20.501  0.00  0.00    +0.000 A 
ATOM      8  C   UNL     1       2.440   5.839  19.945  0.00  0.00    +0.000 A 
ENDBRANCH   1   6
BRANCH   1   9
ATOM      9  S   UNL     1       1.032  10.693  19.268  0.00  0.00    +0.000 S 
ATOM     10  O   UNL     1       1.180  11.862  20.124  0.00  0.00    +0.000 OA
ATOM     11  O   UNL     1       1.961  10.481  18.177  0.00  0.00    +0.000 OA
BRANCH   9  12
ATOM     12  C   UNL     1      -0.604  10.789  18.542  0.00  0.00    +0.000 A 
ATOM     13  C   UNL     1      -1.439  11.885  18.790  0.00  0.00    +0.000 A 
ATOM     14  C   UNL     1      -2.680  11.977  18.138  0.00  0.00    +0.000 A 
ATOM     15  C   UNL     1      -3.088  10.991  17.228  0.00  0.00    +0.000 A 
ATOM     16  C   UNL     1      -4.421  11.063  16.539  0.00  0.00    +0.000 C 
ATOM     17  C   UNL     1      -2.220   9.927  16.953  0.00  0.00    +0.000 A 
ATOM     18  C   UNL     1      -0.983   9.829  17.597  0.00  0.00    +0.000 A 
ENDBRANCH   9  12
ENDBRANCH   1   9
BRANCH   1  19
ATOM     19  C   UNL     1      -0.117   9.176  21.173  0.00  0.00    +0.000 C 
BRANCH  19  20
ATOM     20  C   UNL     1      -0.280  10.146  22.332  0.00  0.00    +0.000 C 
ATOM     21  O   UNL     1       0.253   9.925  23.424  0.00  0.00    +0.000 OA
ATOM     22  N   UNL     1      -1.120  11.227  22.137  0.00  0.00    +0.000 N 
ATOM     23  H   UNL     1      -1.694  11.249  21.300  0.00  0.00    +0.000 HD
BRANCH  22  24
ATOM     24  C   UNL     1      -1.566  12.004  23.292  0.00  0.00    +0.000 C 
BRANCH  24  25
ATOM     25  C   UNL     1      -3.085  12.189  23.393  0.00  0.00    +0.000 C 
BRANCH  25  26
ATOM     26  S   UNL     1      -3.490  13.967  23.368  0.00  0.00    +0.000 S 
BRANCH  26  27
ATOM     27  C   UNL     1      -5.301  13.878  23.134  0.00  0.00    +0.000 C 
BRANCH  27  28
ATOM     28  C   UNL     1      -5.590  13.175  21.856  0.00  0.00    +0.000 A 
ATOM     29  C   UNL     1      -5.252  13.422  20.540  0.00  0.00    +0.000 A 
ATOM     30  C   UNL     1      -5.896  12.427  19.767  0.00  0.00    +0.000 A 
ATOM     31  C   UNL     1      -6.563  11.622  20.658  0.00  0.00    +0.000 A 
ATOM     32  O   UNL     1      -6.376  12.060  21.930  0.00  0.00    +0.000 OA
ENDBRANCH  27  28
ENDBRANCH  26  27
ENDBRANCH  25  26
ENDBRANCH  24  25
ENDBRANCH  22  24
ENDBRANCH  19  20
ENDBRANCH   1  19
TORSDOF 10
ENDMDL
MODEL 9
REMARK VINA RESULT:      -6.9      5.970     10.280
REMARK  Name = 
REMARK  12 active torsions:
REMARK  status: ('A' for Active; 'I' for Inactive)
REMARK    1  A    between atoms: C_1  and  C_2
REMARK    2  A    between atoms: C_5  and  N_6
REMARK    3  A    between atoms: N_6  and  C_7
REMARK    4  A    between atoms: N_6  and  S_20
REMARK    5  A    between atoms: C_7  and  C_8
REMARK    6  A    between atoms: N_10  and  C_11
REMARK    7  A    between atoms: C_11  and  C_12
REMARK    8  A    between atoms: C_12  and  S_13
REMARK    9  A    between atoms: S_13  and  C_14
REMARK   10  A    between atoms: C_14  and  C_15
REMARK   11  A    between atoms: S_20  and  C_23
REMARK   12  A    between atoms: C_26  and  C_27
REMARK                            x       y       z     vdW  Elec       q    Type
REMARK                         _______ _______ _______ _____ _____    ______ ____
ROOT
ATOM      1  N   UNL     1       0.971   9.287  20.294  0.00  0.00    +0.000 N 
ENDROOT
BRANCH   1   6
ATOM      2  C   UNL     1       3.543   4.537  18.319  0.00  0.00    +0.000 C 
ATOM      3  C   UNL     1       2.876   5.784  18.828  0.00  0.00    +0.000 A 
ATOM      4  C   UNL     1       2.279   5.810  20.092  0.00  0.00    +0.000 A 
ATOM      5  C   UNL     1       1.658   6.974  20.558  0.00  0.00    +0.000 A 
ATOM      6  C   UNL     1       1.609   8.118  19.761  0.00  0.00    +0.000 A 
ATOM      7  C   UNL     1       2.228   8.111  18.510  0.00  0.00    +0.000 A 
ATOM      8  C   UNL     1       2.864   6.949  18.050  0.00  0.00    +0.000 A 
ENDBRANCH   1   6
BRANCH   1   9
ATOM      9  S   UNL     1       0.945  10.681  19.304  0.00  0.00    +0.000 S 
ATOM     10  O   UNL     1       1.076  11.845  20.168  0.00  0.00    +0.000 OA
ATOM     11  O   UNL     1       1.879  10.489  18.214  0.00  0.00    +0.000 OA
BRANCH   9  12
ATOM     12  C   UNL     1      -0.691  10.761  18.575  0.00  0.00    +0.000 A 
ATOM     13  C   UNL     1      -1.585  11.780  18.922  0.00  0.00    +0.000 A 
ATOM     14  C   UNL     1      -2.826  11.871  18.271  0.00  0.00    +0.000 A 
ATOM     15  C   UNL     1      -3.175  10.961  17.261  0.00  0.00    +0.000 A 
ATOM     16  C   UNL     1      -4.507  11.031  16.570  0.00  0.00    +0.000 C 
ATOM     17  C   UNL     1      -2.250   9.978  16.890  0.00  0.00    +0.000 A 
ATOM     18  C   UNL     1      -1.012   9.883  17.534  0.00  0.00    +0.000 A 
ENDBRANCH   9  12
ENDBRANCH   1   9
BRANCH   1  19
ATOM     19  C   UNL     1      -0.165   9.159  21.228  0.00  0.00    +0.000 C 
BRANCH  19  20
ATOM     20  C   UNL     1      -0.311  10.145  22.375  0.00  0.00    +0.000 C 
ATOM     21  O   UNL     1       0.325   9.997  23.423  0.00  0.00    +0.000 OA
ATOM     22  N   UNL     1      -1.248  11.152  22.228  0.00  0.00    +0.000 N 
ATOM     23  H   UNL     1      -1.888  11.105  21.442  0.00  0.00    +0.000 HD
BRANCH  22  24
ATOM     24  C   UNL     1      -1.660  11.923  23.399  0.00  0.00    +0.000 C 
BRANCH  24  25
ATOM     25  C   UNL     1      -3.161  12.229  23.471  0.00  0.00    +0.000 C 
BRANCH  25  26
ATOM     26  S   UNL     1      -3.731  12.885  21.868  0.00  0.00    +0.000 S 
BRANCH  26  27
ATOM     27  C   UNL     1      -5.530  12.968  22.179  0.00  0.00    +0.000 C 
BRANCH  27  28
ATOM     28  C   UNL     1      -6.254  12.619  20.928  0.00  0.00    +0.000 A 
ATOM     29  C   UNL     1      -6.472  11.432  20.257  0.00  0.00    +0.000 A 
ATOM     30  C   UNL     1      -7.174  11.761  19.074  0.00  0.00    +0.000 A 
ATOM     31  C   UNL     1      -7.363  13.122  19.108  0.00  0.00    +0.000 A 
ATOM     32  O   UNL     1      -6.818  13.651  20.234  0.00  0.00    +0.000 OA
ENDBRANCH  27  28
ENDBRANCH  26  27
ENDBRANCH  25  26
ENDBRANCH  24  25
ENDBRANCH  22  24
ENDBRANCH  19  20
ENDBRANCH   1  19
TORSDOF 10
ENDMDL
