MODEL 1
REMARK VINA RESULT:      -7.4      0.000      0.000
REMARK  Name = 
REMARK  11 active torsions:
REMARK  status: ('A' for Active; 'I' for Inactive)
REMARK    1  A    between atoms: C_1  and  O_2
REMARK    2  A    between atoms: O_2  and  C_3
REMARK    3  A    between atoms: C_6  and  O_7
REMARK    4  A    between atoms: O_7  and  C_8
REMARK    5  A    between atoms: C_8  and  C_9
REMARK    6  A    between atoms: C_12  and  C_13
REMARK    7  A    between atoms: N_15  and  C_16
REMARK    8  A    between atoms: C_19  and  C_20
REMARK    9  A    between atoms: C_20  and  C_21
REMARK   10  A    between atoms: C_21  and  C_22
REMARK   11  A    between atoms: C_22  and  O_24
REMARK                            x       y       z     vdW  Elec       q    Type
REMARK                         _______ _______ _______ _____ _____    ______ ____
ROOT
ATOM      1  C   UNL     1       1.931   8.551  18.397  0.00  0.00    +0.000 C 
ATOM      2  O   UNL     1       2.246   9.108  17.344  0.00  0.00    +0.000 OA
ATOM      3  N   UNL     1       2.349   7.263  18.740  0.00  0.00    +0.000 N 
ATOM      4  H   UNL     1       1.910   6.855  19.561  0.00  0.00    +0.000 HD
ENDROOT
BRANCH   3   5
ATOM      5  C   UNL     1       3.242   6.453  17.996  0.00  0.00    +0.000 A 
ATOM      6  C   UNL     1       4.368   6.963  17.350  0.00  0.00    +0.000 A 
ATOM      7  C   UNL     1       5.210   6.137  16.600  0.00  0.00    +0.000 A 
ATOM      8  C   UNL     1       4.961   4.767  16.493  0.00  0.00    +0.000 A 
ATOM      9  C   UNL     1       3.840   4.244  17.150  0.00  0.00    +0.000 A 
ATOM     10  C   UNL     1       2.993   5.079  17.906  0.00  0.00    +0.000 A 
BRANCH   8  11
ATOM     11  C   UNL     1       5.875   3.894  15.663  0.00  0.00    +0.000 C 
BRANCH  11  12
ATOM     12  C   UNL     1       6.947   4.706  14.930  0.00  0.00    +0.000 C 
BRANCH  12  13
ATOM     13  C   UNL     1       6.992   4.373  13.460  0.00  0.00    +0.000 C 
ATOM     14  O   UNL     1       7.614   4.993  12.614  0.00  0.00    +0.000 OA
BRANCH  13  15
ATOM     15  O   UNL     1       6.255   3.278  13.160  0.00  0.00    +0.000 OA
ATOM     16  H   UNL     1       5.291   3.433  13.175  0.00  0.00    +0.000 HD
ENDBRANCH  13  15
ENDBRANCH  12  13
ENDBRANCH  11  12
ENDBRANCH   8  11
ENDBRANCH   3   5
BRANCH   1  20
ATOM     17  C   UNL     1      -0.149   9.911  21.296  0.00  0.00    +0.000 A 
ATOM     18  N   UNL     1      -0.508  10.569  20.208  0.00  0.00    +0.000 NA
ATOM     19  N   UNL     1       0.183  10.151  19.078  0.00  0.00    +0.000 NA
ATOM     20  C   UNL     1       1.037   9.186  19.359  0.00  0.00    +0.000 A 
ATOM     21  S   UNL     1       1.050   8.712  21.010  0.00  0.00    +0.000 S 
BRANCH  17  22
ATOM     22  C   UNL     1      -0.632  10.177  22.694  0.00  0.00    +0.000 C 
BRANCH  22  23
ATOM     23  O   UNL     1      -0.260  11.513  23.039  0.00  0.00    +0.000 OA
BRANCH  23  27
ATOM     24  C   UNL     1      -3.507  14.148  23.220  0.00  0.00    +0.000 A 
ATOM     25  C   UNL     1      -3.662  12.765  23.337  0.00  0.00    +0.000 A 
ATOM     26  C   UNL     1      -2.551  11.917  23.271  0.00  0.00    +0.000 A 
ATOM     27  C   UNL     1      -1.274  12.435  23.048  0.00  0.00    +0.000 A 
ATOM     28  C   UNL     1      -1.118  13.816  22.914  0.00  0.00    +0.000 A 
ATOM     29  C   UNL     1      -2.232  14.670  22.998  0.00  0.00    +0.000 A 
BRANCH  24  31
ATOM     30  C   UNL     1      -4.670  15.915  24.287  0.00  0.00    +0.000 C 
ATOM     31  O   UNL     1      -4.656  14.888  23.301  0.00  0.00    +0.000 OA
ENDBRANCH  24  31
ENDBRANCH  23  27
ENDBRANCH  22  23
ENDBRANCH  17  22
ENDBRANCH   1  20
TORSDOF 10
ENDMDL
MODEL 2
REMARK VINA RESULT:      -7.4      7.422     10.733
REMARK  Name = 
REMARK  11 active torsions:
REMARK  status: ('A' for Active; 'I' for Inactive)
REMARK    1  A    between atoms: C_1  and  O_2
REMARK    2  A    between atoms: O_2  and  C_3
REMARK    3  A    between atoms: C_6  and  O_7
REMARK    4  A    between atoms: O_7  and  C_8
REMARK    5  A    between atoms: C_8  and  C_9
REMARK    6  A    between atoms: C_12  and  C_13
REMARK    7  A    between atoms: N_15  and  C_16
REMARK    8  A    between atoms: C_19  and  C_20
REMARK    9  A    between atoms: C_20  and  C_21
REMARK   10  A    between atoms: C_21  and  C_22
REMARK   11  A    between atoms: C_22  and  O_24
REMARK                            x       y       z     vdW  Elec       q    Type
REMARK                         _______ _______ _______ _____ _____    ______ ____
ROOT
ATOM      1  C   UNL     1       8.165   8.908  18.277  0.00  0.00    +0.000 C 
ATOM      2  O   UNL     1       7.692   9.752  17.514  0.00  0.00    +0.000 OA
ATOM      3  N   UNL     1       9.125   9.202  19.248  0.00  0.00    +0.000 N 
ATOM      4  H   UNL     1       9.544   8.403  19.718  0.00  0.00    +0.000 HD
ENDROOT
BRANCH   3   5
ATOM      5  C   UNL     1       9.628  10.489  19.557  0.00  0.00    +0.000 A 
ATOM      6  C   UNL     1       9.345  11.146  20.755  0.00  0.00    +0.000 A 
ATOM      7  C   UNL     1       9.836  12.429  21.013  0.00  0.00    +0.000 A 
ATOM      8  C   UNL     1      10.645  13.087  20.083  0.00  0.00    +0.000 A 
ATOM      9  C   UNL     1      10.945  12.430  18.883  0.00  0.00    +0.000 A 
ATOM     10  C   UNL     1      10.450  11.135  18.627  0.00  0.00    +0.000 A 
BRANCH   8  11
ATOM     11  C   UNL     1      11.151  14.481  20.375  0.00  0.00    +0.000 C 
BRANCH  11  12
ATOM     12  C   UNL     1      10.974  15.426  19.183  0.00  0.00    +0.000 C 
BRANCH  12  13
ATOM     13  C   UNL     1       9.541  15.867  19.028  0.00  0.00    +0.000 C 
ATOM     14  O   UNL     1       8.782  15.507  18.144  0.00  0.00    +0.000 OA
BRANCH  13  15
ATOM     15  O   UNL     1       9.161  16.728  20.002  0.00  0.00    +0.000 OA
ATOM     16  H   UNL     1       8.403  16.415  20.533  0.00  0.00    +0.000 HD
ENDBRANCH  13  15
ENDBRANCH  12  13
ENDBRANCH  11  12
ENDBRANCH   8  11
ENDBRANCH   3   5
BRANCH   1  20
ATOM     17  C   UNL     1       6.896   5.372  17.592  0.00  0.00    +0.000 A 
ATOM     18  N   UNL     1       7.730   5.302  18.614  0.00  0.00    +0.000 NA
ATOM     19  N   UNL     1       8.254   6.541  18.961  0.00  0.00    +0.000 NA
ATOM     20  C   UNL     1       7.789   7.501  18.187  0.00  0.00    +0.000 A 
ATOM     21  S   UNL     1       6.674   6.969  16.993  0.00  0.00    +0.000 S 
BRANCH  17  22
ATOM     22  C   UNL     1       6.228   4.212  16.911  0.00  0.00    +0.000 C 
BRANCH  22  23
ATOM     23  O   UNL     1       4.940   4.645  16.469  0.00  0.00    +0.000 OA
BRANCH  23  27
ATOM     24  C   UNL     1       1.851   3.543  19.068  0.00  0.00    +0.000 A 
ATOM     25  C   UNL     1       2.586   2.602  18.343  0.00  0.00    +0.000 A 
ATOM     26  C   UNL     1       3.611   3.011  17.483  0.00  0.00    +0.000 A 
ATOM     27  C   UNL     1       3.892   4.367  17.306  0.00  0.00    +0.000 A 
ATOM     28  C   UNL     1       3.147   5.310  18.018  0.00  0.00    +0.000 A 
ATOM     29  C   UNL     1       2.128   4.899  18.895  0.00  0.00    +0.000 A 
BRANCH  24  31
ATOM     30  C   UNL     1       1.245   2.805  21.237  0.00  0.00    +0.000 C 
ATOM     31  O   UNL     1       0.873   3.038  19.883  0.00  0.00    +0.000 OA
ENDBRANCH  24  31
ENDBRANCH  23  27
ENDBRANCH  22  23
ENDBRANCH  17  22
ENDBRANCH   1  20
TORSDOF 10
ENDMDL
MODEL 3
REMARK VINA RESULT:      -7.3      7.775     10.842
REMARK  Name = 
REMARK  11 active torsions:
REMARK  status: ('A' for Active; 'I' for Inactive)
REMARK    1  A    between atoms: C_1  and  O_2
REMARK    2  A    between atoms: O_2  and  C_3
REMARK    3  A    between atoms: C_6  and  O_7
REMARK    4  A    between atoms: O_7  and  C_8
REMARK    5  A    between atoms: C_8  and  C_9
REMARK    6  A    between atoms: C_12  and  C_13
REMARK    7  A    between atoms: N_15  and  C_16
REMARK    8  A    between atoms: C_19  and  C_20
REMARK    9  A    between atoms: C_20  and  C_21
REMARK   10  A    between atoms: C_21  and  C_22
REMARK   11  A    between atoms: C_22  and  O_24
REMARK                            x       y       z     vdW  Elec       q    Type
REMARK                         _______ _______ _______ _____ _____    ______ ____
ROOT
ATOM      1  C   UNL     1       8.126   8.712  18.210  0.00  0.00    +0.000 C 
ATOM      2  O   UNL     1       7.642   9.564  17.463  0.00  0.00    +0.000 OA
ATOM      3  N   UNL     1       9.091   8.999  19.179  0.00  0.00    +0.000 N 
ATOM      4  H   UNL     1       9.518   8.196  19.634  0.00  0.00    +0.000 HD
ENDROOT
BRANCH   3   5
ATOM      5  C   UNL     1       9.588  10.284  19.502  0.00  0.00    +0.000 A 
ATOM      6  C   UNL     1       9.281  10.938  20.695  0.00  0.00    +0.000 A 
ATOM      7  C   UNL     1       9.768  12.221  20.966  0.00  0.00    +0.000 A 
ATOM      8  C   UNL     1      10.597  12.880  20.056  0.00  0.00    +0.000 A 
ATOM      9  C   UNL     1      10.922  12.225  18.861  0.00  0.00    +0.000 A 
ATOM     10  C   UNL     1      10.431  10.932  18.591  0.00  0.00    +0.000 A 
BRANCH   8  11
ATOM     11  C   UNL     1      11.099  14.273  20.362  0.00  0.00    +0.000 C 
BRANCH  11  12
ATOM     12  C   UNL     1      10.946  15.222  19.170  0.00  0.00    +0.000 C 
BRANCH  12  13
ATOM     13  C   UNL     1       9.499  15.422  18.796  0.00  0.00    +0.000 C 
ATOM     14  O   UNL     1       8.625  15.827  19.543  0.00  0.00    +0.000 OA
BRANCH  13  15
ATOM     15  O   UNL     1       9.256  15.103  17.503  0.00  0.00    +0.000 OA
ATOM     16  H   UNL     1      10.050  15.119  16.934  0.00  0.00    +0.000 HD
ENDBRANCH  13  15
ENDBRANCH  12  13
ENDBRANCH  11  12
ENDBRANCH   8  11
ENDBRANCH   3   5
BRANCH   1  20
ATOM     17  C   UNL     1       6.929   5.167  17.451  0.00  0.00    +0.000 A 
ATOM     18  N   UNL     1       7.643   5.114  18.561  0.00  0.00    +0.000 NA
ATOM     19  N   UNL     1       8.130   6.358  18.942  0.00  0.00    +0.000 NA
ATOM     20  C   UNL     1       7.757   7.304  18.104  0.00  0.00    +0.000 A 
ATOM     21  S   UNL     1       6.781   6.753  16.803  0.00  0.00    +0.000 S 
BRANCH  17  22
ATOM     22  C   UNL     1       6.338   3.995  16.720  0.00  0.00    +0.000 C 
BRANCH  22  23
ATOM     23  O   UNL     1       4.931   4.216  16.603  0.00  0.00    +0.000 OA
BRANCH  23  27
ATOM     24  C   UNL     1       2.408   2.608  19.529  0.00  0.00    +0.000 A 
ATOM     25  C   UNL     1       2.736   3.965  19.492  0.00  0.00    +0.000 A 
ATOM     26  C   UNL     1       3.584   4.464  18.497  0.00  0.00    +0.000 A 
ATOM     27  C   UNL     1       4.146   3.609  17.548  0.00  0.00    +0.000 A 
ATOM     28  C   UNL     1       3.833   2.249  17.593  0.00  0.00    +0.000 A 
ATOM     29  C   UNL     1       2.968   1.749  18.583  0.00  0.00    +0.000 A 
BRANCH  24  31
ATOM     30  C   UNL     1       1.525   3.081  21.677  0.00  0.00    +0.000 C 
ATOM     31  O   UNL     1       1.569   2.223  20.541  0.00  0.00    +0.000 OA
ENDBRANCH  24  31
ENDBRANCH  23  27
ENDBRANCH  22  23
ENDBRANCH  17  22
ENDBRANCH   1  20
TORSDOF 10
ENDMDL
MODEL 4
REMARK VINA RESULT:      -7.3      1.803      2.030
REMARK  Name = 
REMARK  11 active torsions:
REMARK  status: ('A' for Active; 'I' for Inactive)
REMARK    1  A    between atoms: C_1  and  O_2
REMARK    2  A    between atoms: O_2  and  C_3
REMARK    3  A    between atoms: C_6  and  O_7
REMARK    4  A    between atoms: O_7  and  C_8
REMARK    5  A    between atoms: C_8  and  C_9
REMARK    6  A    between atoms: C_12  and  C_13
REMARK    7  A    between atoms: N_15  and  C_16
REMARK    8  A    between atoms: C_19  and  C_20
REMARK    9  A    between atoms: C_20  and  C_21
REMARK   10  A    between atoms: C_21  and  C_22
REMARK   11  A    between atoms: C_22  and  O_24
REMARK                            x       y       z     vdW  Elec       q    Type
REMARK                         _______ _______ _______ _____ _____    ______ ____
ROOT
ATOM      1  C   UNL     1       1.766   8.203  19.992  0.00  0.00    +0.000 C 
ATOM      2  O   UNL     1       1.797   8.651  18.845  0.00  0.00    +0.000 OA
ATOM      3  N   UNL     1       2.280   6.952  20.343  0.00  0.00    +0.000 N 
ATOM      4  H   UNL     1       2.068   6.631  21.284  0.00  0.00    +0.000 HD
ENDROOT
BRANCH   3   5
ATOM      5  C   UNL     1       2.970   6.066  19.481  0.00  0.00    +0.000 A 
ATOM      6  C   UNL     1       4.332   5.793  19.609  0.00  0.00    +0.000 A 
ATOM      7  C   UNL     1       4.986   4.934  18.719  0.00  0.00    +0.000 A 
ATOM      8  C   UNL     1       4.288   4.306  17.686  0.00  0.00    +0.000 A 
ATOM      9  C   UNL     1       2.917   4.564  17.559  0.00  0.00    +0.000 A 
ATOM     10  C   UNL     1       2.261   5.429  18.457  0.00  0.00    +0.000 A 
BRANCH   8  11
ATOM     11  C   UNL     1       5.019   3.394  16.726  0.00  0.00    +0.000 C 
BRANCH  11  12
ATOM     12  C   UNL     1       5.634   4.158  15.551  0.00  0.00    +0.000 C 
BRANCH  12  13
ATOM     13  C   UNL     1       7.017   4.664  15.875  0.00  0.00    +0.000 C 
ATOM     14  O   UNL     1       7.786   4.157  16.674  0.00  0.00    +0.000 OA
BRANCH  13  15
ATOM     15  O   UNL     1       7.337   5.771  15.164  0.00  0.00    +0.000 OA
ATOM     16  H   UNL     1       6.916   6.589  15.493  0.00  0.00    +0.000 HD
ENDBRANCH  13  15
ENDBRANCH  12  13
ENDBRANCH  11  12
ENDBRANCH   8  11
ENDBRANCH   3   5
BRANCH   1  20
ATOM     17  C   UNL     1      -0.248  10.304  22.464  0.00  0.00    +0.000 A 
ATOM     18  N   UNL     1       0.665   9.647  23.156  0.00  0.00    +0.000 NA
ATOM     19  N   UNL     1       1.469   8.847  22.354  0.00  0.00    +0.000 NA
ATOM     20  C   UNL     1       1.132   8.938  21.083  0.00  0.00    +0.000 A 
ATOM     21  S   UNL     1      -0.175  10.008  20.772  0.00  0.00    +0.000 S 
BRANCH  17  22
ATOM     22  C   UNL     1      -1.330  11.180  23.030  0.00  0.00    +0.000 C 
BRANCH  22  23
ATOM     23  O   UNL     1      -0.789  12.492  23.196  0.00  0.00    +0.000 OA
BRANCH  23  27
ATOM     24  C   UNL     1      -3.772  15.378  23.741  0.00  0.00    +0.000 A 
ATOM     25  C   UNL     1      -3.939  14.284  22.887  0.00  0.00    +0.000 A 
ATOM     26  C   UNL     1      -2.917  13.342  22.732  0.00  0.00    +0.000 A 
ATOM     27  C   UNL     1      -1.700  13.496  23.397  0.00  0.00    +0.000 A 
ATOM     28  C   UNL     1      -1.524  14.597  24.238  0.00  0.00    +0.000 A 
ATOM     29  C   UNL     1      -2.557  15.536  24.408  0.00  0.00    +0.000 A 
BRANCH  24  31
ATOM     30  C   UNL     1      -4.899  17.039  25.000  0.00  0.00    +0.000 C 
ATOM     31  O   UNL     1      -4.833  16.239  23.824  0.00  0.00    +0.000 OA
ENDBRANCH  24  31
ENDBRANCH  23  27
ENDBRANCH  22  23
ENDBRANCH  17  22
ENDBRANCH   1  20
TORSDOF 10
ENDMDL
MODEL 5
REMARK VINA RESULT:      -7.2      1.497      1.796
REMARK  Name = 
REMARK  11 active torsions:
REMARK  status: ('A' for Active; 'I' for Inactive)
REMARK    1  A    between atoms: C_1  and  O_2
REMARK    2  A    between atoms: O_2  and  C_3
REMARK    3  A    between atoms: C_6  and  O_7
REMARK    4  A    between atoms: O_7  and  C_8
REMARK    5  A    between atoms: C_8  and  C_9
REMARK    6  A    between atoms: C_12  and  C_13
REMARK    7  A    between atoms: N_15  and  C_16
REMARK    8  A    between atoms: C_19  and  C_20
REMARK    9  A    between atoms: C_20  and  C_21
REMARK   10  A    between atoms: C_21  and  C_22
REMARK   11  A    between atoms: C_22  and  O_24
REMARK                            x       y       z     vdW  Elec       q    Type
REMARK                         _______ _______ _______ _____ _____    ______ ____
ROOT
ATOM      1  C   UNL     1       1.844   8.778  18.397  0.00  0.00    +0.000 C 
ATOM      2  O   UNL     1       2.229   9.313  17.356  0.00  0.00    +0.000 OA
ATOM      3  N   UNL     1       2.189   7.475  18.765  0.00  0.00    +0.000 N 
ATOM      4  H   UNL     1       1.697   7.094  19.570  0.00  0.00    +0.000 HD
ENDROOT
BRANCH   3   5
ATOM      5  C   UNL     1       3.074   6.621  18.065  0.00  0.00    +0.000 A 
ATOM      6  C   UNL     1       4.207   7.086  17.397  0.00  0.00    +0.000 A 
ATOM      7  C   UNL     1       5.042   6.215  16.691  0.00  0.00    +0.000 A 
ATOM      8  C   UNL     1       4.778   4.844  16.651  0.00  0.00    +0.000 A 
ATOM      9  C   UNL     1       3.651   4.366  17.331  0.00  0.00    +0.000 A 
ATOM     10  C   UNL     1       2.811   5.246  18.043  0.00  0.00    +0.000 A 
BRANCH   8  11
ATOM     11  C   UNL     1       5.686   3.922  15.868  0.00  0.00    +0.000 C 
BRANCH  11  12
ATOM     12  C   UNL     1       5.652   4.210  14.365  0.00  0.00    +0.000 C 
BRANCH  12  13
ATOM     13  C   UNL     1       6.963   4.770  13.874  0.00  0.00    +0.000 C 
ATOM     14  O   UNL     1       7.757   5.406  14.546  0.00  0.00    +0.000 OA
BRANCH  13  15
ATOM     15  O   UNL     1       7.185   4.484  12.569  0.00  0.00    +0.000 OA
ATOM     16  H   UNL     1       6.371   4.401  12.037  0.00  0.00    +0.000 HD
ENDBRANCH  13  15
ENDBRANCH  12  13
ENDBRANCH  11  12
ENDBRANCH   8  11
ENDBRANCH   3   5
BRANCH   1  20
ATOM     17  C   UNL     1      -0.663  10.875  20.372  0.00  0.00    +0.000 A 
ATOM     18  N   UNL     1      -0.213   9.932  21.180  0.00  0.00    +0.000 NA
ATOM     19  N   UNL     1       0.719   9.104  20.567  0.00  0.00    +0.000 NA
ATOM     20  C   UNL     1       0.940   9.461  19.317  0.00  0.00    +0.000 A 
ATOM     21  S   UNL     1       0.042  10.832  18.804  0.00  0.00    +0.000 S 
BRANCH  17  22
ATOM     22  C   UNL     1      -1.740  11.874  20.688  0.00  0.00    +0.000 C 
BRANCH  22  23
ATOM     23  O   UNL     1      -1.773  12.048  22.106  0.00  0.00    +0.000 OA
BRANCH  23  27
ATOM     24  C   UNL     1      -5.380  13.726  23.409  0.00  0.00    +0.000 A 
ATOM     25  C   UNL     1      -4.816  14.039  22.169  0.00  0.00    +0.000 A 
ATOM     26  C   UNL     1      -3.608  13.457  21.771  0.00  0.00    +0.000 A 
ATOM     27  C   UNL     1      -2.926  12.583  22.619  0.00  0.00    +0.000 A 
ATOM     28  C   UNL     1      -3.479  12.281  23.865  0.00  0.00    +0.000 A 
ATOM     29  C   UNL     1      -4.701  12.853  24.260  0.00  0.00    +0.000 A 
BRANCH  24  31
ATOM     30  C   UNL     1      -7.560  13.537  24.317  0.00  0.00    +0.000 C 
ATOM     31  O   UNL     1      -6.564  14.347  23.701  0.00  0.00    +0.000 OA
ENDBRANCH  24  31
ENDBRANCH  23  27
ENDBRANCH  22  23
ENDBRANCH  17  22
ENDBRANCH   1  20
TORSDOF 10
ENDMDL
MODEL 6
REMARK VINA RESULT:      -7.2      2.194     11.831
REMARK  Name = 
REMARK  11 active torsions:
REMARK  status: ('A' for Active; 'I' for Inactive)
REMARK    1  A    between atoms: C_1  and  O_2
REMARK    2  A    between atoms: O_2  and  C_3
REMARK    3  A    between atoms: C_6  and  O_7
REMARK    4  A    between atoms: O_7  and  C_8
REMARK    5  A    between atoms: C_8  and  C_9
REMARK    6  A    between atoms: C_12  and  C_13
REMARK    7  A    between atoms: N_15  and  C_16
REMARK    8  A    between atoms: C_19  and  C_20
REMARK    9  A    between atoms: C_20  and  C_21
REMARK   10  A    between atoms: C_21  and  C_22
REMARK   11  A    between atoms: C_22  and  O_24
REMARK                            x       y       z     vdW  Elec       q    Type
REMARK                         _______ _______ _______ _____ _____    ______ ____
ROOT
ATOM      1  C   UNL     1       1.699   7.731  20.172  0.00  0.00    +0.000 C 
ATOM      2  O   UNL     1       1.653   8.472  19.189  0.00  0.00    +0.000 OA
ATOM      3  N   UNL     1       1.236   8.102  21.437  0.00  0.00    +0.000 N 
ATOM      4  H   UNL     1       1.458   7.465  22.198  0.00  0.00    +0.000 HD
ENDROOT
BRANCH   3   5
ATOM      5  C   UNL     1       0.584   9.317  21.760  0.00  0.00    +0.000 A 
ATOM      6  C   UNL     1       0.874  10.525  21.124  0.00  0.00    +0.000 A 
ATOM      7  C   UNL     1       0.230  11.711  21.491  0.00  0.00    +0.000 A 
ATOM      8  C   UNL     1      -0.742  11.717  22.494  0.00  0.00    +0.000 A 
ATOM      9  C   UNL     1      -1.050  10.507  23.128  0.00  0.00    +0.000 A 
ATOM     10  C   UNL     1      -0.400   9.313  22.755  0.00  0.00    +0.000 A 
BRANCH   8  11
ATOM     11  C   UNL     1      -1.414  13.014  22.886  0.00  0.00    +0.000 C 
BRANCH  11  12
ATOM     12  C   UNL     1      -2.852  12.802  23.366  0.00  0.00    +0.000 C 
BRANCH  12  13
ATOM     13  C   UNL     1      -3.841  12.895  22.232  0.00  0.00    +0.000 C 
ATOM     14  O   UNL     1      -4.942  12.372  22.208  0.00  0.00    +0.000 OA
BRANCH  13  15
ATOM     15  O   UNL     1      -3.375  13.647  21.207  0.00  0.00    +0.000 OA
ATOM     16  H   UNL     1      -3.819  14.512  21.116  0.00  0.00    +0.000 HD
ENDBRANCH  13  15
ENDBRANCH  12  13
ENDBRANCH  11  12
ENDBRANCH   8  11
ENDBRANCH   3   5
BRANCH   1  20
ATOM     17  C   UNL     1       3.655   4.491  19.667  0.00  0.00    +0.000 A 
ATOM     18  N   UNL     1       2.676   4.233  20.514  0.00  0.00    +0.000 NA
ATOM     19  N   UNL     1       1.885   5.347  20.771  0.00  0.00    +0.000 NA
ATOM     20  C   UNL     1       2.300   6.403  20.100  0.00  0.00    +0.000 A 
ATOM     21  S   UNL     1       3.667   6.115  19.102  0.00  0.00    +0.000 S 
BRANCH  17  22
ATOM     22  C   UNL     1       4.739   3.539  19.248  0.00  0.00    +0.000 C 
BRANCH  22  23
ATOM     23  O   UNL     1       5.835   4.313  18.753  0.00  0.00    +0.000 OA
BRANCH  23  27
ATOM     24  C   UNL     1       6.568   4.395  14.634  0.00  0.00    +0.000 A 
ATOM     25  C   UNL     1       7.491   4.878  15.565  0.00  0.00    +0.000 A 
ATOM     26  C   UNL     1       7.208   4.833  16.934  0.00  0.00    +0.000 A 
ATOM     27  C   UNL     1       5.984   4.341  17.392  0.00  0.00    +0.000 A 
ATOM     28  C   UNL     1       5.053   3.873  16.461  0.00  0.00    +0.000 A 
ATOM     29  C   UNL     1       5.344   3.902  15.086  0.00  0.00    +0.000 A 
BRANCH  24  31
ATOM     30  C   UNL     1       6.286   3.596  12.421  0.00  0.00    +0.000 C 
ATOM     31  O   UNL     1       6.944   4.483  13.320  0.00  0.00    +0.000 OA
ENDBRANCH  24  31
ENDBRANCH  23  27
ENDBRANCH  22  23
ENDBRANCH  17  22
ENDBRANCH   1  20
TORSDOF 10
ENDMDL
MODEL 7
REMARK VINA RESULT:      -7.2      1.106      1.472
REMARK  Name = 
REMARK  11 active torsions:
REMARK  status: ('A' for Active; 'I' for Inactive)
REMARK    1  A    between atoms: C_1  and  O_2
REMARK    2  A    between atoms: O_2  and  C_3
REMARK    3  A    between atoms: C_6  and  O_7
REMARK    4  A    between atoms: O_7  and  C_8
REMARK    5  A    between atoms: C_8  and  C_9
REMARK    6  A    between atoms: C_12  and  C_13
REMARK    7  A    between atoms: N_15  and  C_16
REMARK    8  A    between atoms: C_19  and  C_20
REMARK    9  A    between atoms: C_20  and  C_21
REMARK   10  A    between atoms: C_21  and  C_22
REMARK   11  A    between atoms: C_22  and  O_24
REMARK                            x       y       z     vdW  Elec       q    Type
REMARK                         _______ _______ _______ _____ _____    ______ ____
ROOT
ATOM      1  C   UNL     1       1.740   8.877  18.421  0.00  0.00    +0.000 C 
ATOM      2  O   UNL     1       2.129   9.348  17.351  0.00  0.00    +0.000 OA
ATOM      3  N   UNL     1       2.022   7.573  18.834  0.00  0.00    +0.000 N 
ATOM      4  H   UNL     1       1.529   7.252  19.664  0.00  0.00    +0.000 HD
ENDROOT
BRANCH   3   5
ATOM      5  C   UNL     1       2.842   6.643  18.150  0.00  0.00    +0.000 A 
ATOM      6  C   UNL     1       2.529   5.287  18.050  0.00  0.00    +0.000 A 
ATOM      7  C   UNL     1       3.379   4.393  17.391  0.00  0.00    +0.000 A 
ATOM      8  C   UNL     1       4.560   4.837  16.793  0.00  0.00    +0.000 A 
ATOM      9  C   UNL     1       4.876   6.199  16.877  0.00  0.00    +0.000 A 
ATOM     10  C   UNL     1       4.017   7.098  17.541  0.00  0.00    +0.000 A 
BRANCH   8  11
ATOM     11  C   UNL     1       5.473   3.850  16.100  0.00  0.00    +0.000 C 
BRANCH  11  12
ATOM     12  C   UNL     1       6.855   4.441  15.808  0.00  0.00    +0.000 C 
BRANCH  12  13
ATOM     13  C   UNL     1       7.089   4.609  14.328  0.00  0.00    +0.000 C 
ATOM     14  O   UNL     1       7.751   5.494  13.812  0.00  0.00    +0.000 OA
BRANCH  13  15
ATOM     15  O   UNL     1       6.478   3.644  13.599  0.00  0.00    +0.000 OA
ATOM     16  H   UNL     1       6.739   2.736  13.846  0.00  0.00    +0.000 HD
ENDBRANCH  13  15
ENDBRANCH  12  13
ENDBRANCH  11  12
ENDBRANCH   8  11
ENDBRANCH   3   5
BRANCH   1  20
ATOM     17  C   UNL     1      -0.259  10.565  21.202  0.00  0.00    +0.000 A 
ATOM     18  N   UNL     1      -0.494  11.231  20.086  0.00  0.00    +0.000 NA
ATOM     19  N   UNL     1       0.181  10.699  18.995  0.00  0.00    +0.000 NA
ATOM     20  C   UNL     1       0.898   9.645  19.332  0.00  0.00    +0.000 A 
ATOM     21  S   UNL     1       0.791   9.219  20.993  0.00  0.00    +0.000 S 
BRANCH  17  22
ATOM     22  C   UNL     1      -0.756  10.927  22.573  0.00  0.00    +0.000 C 
BRANCH  22  23
ATOM     23  O   UNL     1      -1.984  11.643  22.418  0.00  0.00    +0.000 OA
BRANCH  23  27
ATOM     24  C   UNL     1      -2.529  15.060  24.773  0.00  0.00    +0.000 A 
ATOM     25  C   UNL     1      -3.536  14.108  24.596  0.00  0.00    +0.000 A 
ATOM     26  C   UNL     1      -3.314  12.979  23.801  0.00  0.00    +0.000 A 
ATOM     27  C   UNL     1      -2.098  12.803  23.138  0.00  0.00    +0.000 A 
ATOM     28  C   UNL     1      -1.096  13.762  23.300  0.00  0.00    +0.000 A 
ATOM     29  C   UNL     1      -1.312  14.889  24.113  0.00  0.00    +0.000 A 
BRANCH  24  31
ATOM     30  C   UNL     1      -2.967  17.384  24.918  0.00  0.00    +0.000 C 
ATOM     31  O   UNL     1      -2.847  16.125  25.572  0.00  0.00    +0.000 OA
ENDBRANCH  24  31
ENDBRANCH  23  27
ENDBRANCH  22  23
ENDBRANCH  17  22
ENDBRANCH   1  20
TORSDOF 10
ENDMDL
MODEL 8
REMARK VINA RESULT:      -7.2      1.933      2.417
REMARK  Name = 
REMARK  11 active torsions:
REMARK  status: ('A' for Active; 'I' for Inactive)
REMARK    1  A    between atoms: C_1  and  O_2
REMARK    2  A    between atoms: O_2  and  C_3
REMARK    3  A    between atoms: C_6  and  O_7
REMARK    4  A    between atoms: O_7  and  C_8
REMARK    5  A    between atoms: C_8  and  C_9
REMARK    6  A    between atoms: C_12  and  C_13
REMARK    7  A    between atoms: N_15  and  C_16
REMARK    8  A    between atoms: C_19  and  C_20
REMARK    9  A    between atoms: C_20  and  C_21
REMARK   10  A    between atoms: C_21  and  C_22
REMARK   11  A    between atoms: C_22  and  O_24
REMARK                            x       y       z     vdW  Elec       q    Type
REMARK                         _______ _______ _______ _____ _____    ______ ____
ROOT
ATOM      1  C   UNL     1       1.544   9.138  18.740  0.00  0.00    +0.000 C 
ATOM      2  O   UNL     1       1.687   9.533  17.582  0.00  0.00    +0.000 OA
ATOM      3  N   UNL     1       2.013   7.902  19.194  0.00  0.00    +0.000 N 
ATOM      4  H   UNL     1       1.711   7.625  20.124  0.00  0.00    +0.000 HD
ENDROOT
BRANCH   3   5
ATOM      5  C   UNL     1       2.775   6.976  18.442  0.00  0.00    +0.000 A 
ATOM      6  C   UNL     1       2.588   5.596  18.525  0.00  0.00    +0.000 A 
ATOM      7  C   UNL     1       3.381   4.710  17.789  0.00  0.00    +0.000 A 
ATOM      8  C   UNL     1       4.375   5.184  16.929  0.00  0.00    +0.000 A 
ATOM      9  C   UNL     1       4.561   6.569  16.829  0.00  0.00    +0.000 A 
ATOM     10  C   UNL     1       3.759   7.459  17.571  0.00  0.00    +0.000 A 
BRANCH   8  11
ATOM     11  C   UNL     1       5.232   4.208  16.154  0.00  0.00    +0.000 C 
BRANCH  11  12
ATOM     12  C   UNL     1       6.618   4.774  15.838  0.00  0.00    +0.000 C 
BRANCH  12  13
ATOM     13  C   UNL     1       7.408   5.052  17.092  0.00  0.00    +0.000 C 
ATOM     14  O   UNL     1       7.797   6.149  17.455  0.00  0.00    +0.000 OA
BRANCH  13  15
ATOM     15  O   UNL     1       7.647   3.927  17.807  0.00  0.00    +0.000 OA
ATOM     16  H   UNL     1       7.048   3.807  18.569  0.00  0.00    +0.000 HD
ENDBRANCH  13  15
ENDBRANCH  12  13
ENDBRANCH  11  12
ENDBRANCH   8  11
ENDBRANCH   3   5
BRANCH   1  20
ATOM     17  C   UNL     1      -0.390  10.725  21.625  0.00  0.00    +0.000 A 
ATOM     18  N   UNL     1      -0.089  11.689  20.773  0.00  0.00    +0.000 NA
ATOM     19  N   UNL     1       0.616  11.224  19.669  0.00  0.00    +0.000 NA
ATOM     20  C   UNL     1       0.814   9.923  19.731  0.00  0.00    +0.000 A 
ATOM     21  S   UNL     1       0.149   9.170  21.124  0.00  0.00    +0.000 S 
BRANCH  17  22
ATOM     22  C   UNL     1      -1.063  10.897  22.957  0.00  0.00    +0.000 C 
BRANCH  22  23
ATOM     23  O   UNL     1      -1.436  12.271  23.085  0.00  0.00    +0.000 OA
BRANCH  23  27
ATOM     24  C   UNL     1      -5.550  12.999  22.833  0.00  0.00    +0.000 A 
ATOM     25  C   UNL     1      -4.705  13.100  21.724  0.00  0.00    +0.000 A 
ATOM     26  C   UNL     1      -3.335  12.849  21.850  0.00  0.00    +0.000 A 
ATOM     27  C   UNL     1      -2.781  12.531  23.091  0.00  0.00    +0.000 A 
ATOM     28  C   UNL     1      -3.620  12.446  24.204  0.00  0.00    +0.000 A 
ATOM     29  C   UNL     1      -5.001  12.682  24.075  0.00  0.00    +0.000 A 
BRANCH  24  31
ATOM     30  C   UNL     1      -7.802  12.581  23.440  0.00  0.00    +0.000 C 
ATOM     31  O   UNL     1      -6.874  13.262  22.602  0.00  0.00    +0.000 OA
ENDBRANCH  24  31
ENDBRANCH  23  27
ENDBRANCH  22  23
ENDBRANCH  17  22
ENDBRANCH   1  20
TORSDOF 10
ENDMDL
MODEL 9
REMARK VINA RESULT:      -7.1      1.245      1.742
REMARK  Name = 
REMARK  11 active torsions:
REMARK  status: ('A' for Active; 'I' for Inactive)
REMARK    1  A    between atoms: C_1  and  O_2
REMARK    2  A    between atoms: O_2  and  C_3
REMARK    3  A    between atoms: C_6  and  O_7
REMARK    4  A    between atoms: O_7  and  C_8
REMARK    5  A    between atoms: C_8  and  C_9
REMARK    6  A    between atoms: C_12  and  C_13
REMARK    7  A    between atoms: N_15  and  C_16
REMARK    8  A    between atoms: C_19  and  C_20
REMARK    9  A    between atoms: C_20  and  C_21
REMARK   10  A    between atoms: C_21  and  C_22
REMARK   11  A    between atoms: C_22  and  O_24
REMARK                            x       y       z     vdW  Elec       q    Type
REMARK                         _______ _______ _______ _____ _____    ______ ____
ROOT
ATOM      1  C   UNL     1       1.514   8.870  18.934  0.00  0.00    +0.000 C 
ATOM      2  O   UNL     1       1.436   9.195  17.749  0.00  0.00    +0.000 OA
ATOM      3  N   UNL     1       2.168   7.715  19.373  0.00  0.00    +0.000 N 
ATOM      4  H   UNL     1       2.042   7.477  20.354  0.00  0.00    +0.000 HD
ENDROOT
BRANCH   3   5
ATOM      5  C   UNL     1       2.891   6.810  18.560  0.00  0.00    +0.000 A 
ATOM      6  C   UNL     1       4.041   7.175  17.858  0.00  0.00    +0.000 A 
ATOM      7  C   UNL     1       4.713   6.261  17.041  0.00  0.00    +0.000 A 
ATOM      8  C   UNL     1       4.263   4.944  16.918  0.00  0.00    +0.000 A 
ATOM      9  C   UNL     1       3.118   4.565  17.630  0.00  0.00    +0.000 A 
ATOM     10  C   UNL     1       2.443   5.489  18.454  0.00  0.00    +0.000 A 
BRANCH   8  11
ATOM     11  C   UNL     1       4.996   3.976  16.016  0.00  0.00    +0.000 C 
BRANCH  11  12
ATOM     12  C   UNL     1       6.472   4.343  15.845  0.00  0.00    +0.000 C 
BRANCH  12  13
ATOM     13  C   UNL     1       6.839   4.518  14.393  0.00  0.00    +0.000 C 
ATOM     14  O   UNL     1       6.337   3.917  13.458  0.00  0.00    +0.000 OA
BRANCH  13  15
ATOM     15  O   UNL     1       7.812   5.444  14.218  0.00  0.00    +0.000 OA
ATOM     16  H   UNL     1       7.726   6.223  14.800  0.00  0.00    +0.000 HD
ENDBRANCH  13  15
ENDBRANCH  12  13
ENDBRANCH  11  12
ENDBRANCH   8  11
ENDBRANCH   3   5
BRANCH   1  20
ATOM     17  C   UNL     1      -0.005  11.364  21.395  0.00  0.00    +0.000 A 
ATOM     18  N   UNL     1      -0.325  10.152  21.812  0.00  0.00    +0.000 NA
ATOM     19  N   UNL     1       0.184   9.153  20.991  0.00  0.00    +0.000 NA
ATOM     20  C   UNL     1       0.875   9.654  19.986  0.00  0.00    +0.000 A 
ATOM     21  S   UNL     1       0.965  11.369  19.975  0.00  0.00    +0.000 S 
BRANCH  17  22
ATOM     22  C   UNL     1      -0.468  12.660  21.997  0.00  0.00    +0.000 C 
BRANCH  22  23
ATOM     23  O   UNL     1      -1.113  12.361  23.237  0.00  0.00    +0.000 OA
BRANCH  23  27
ATOM     24  C   UNL     1      -4.557  14.657  23.854  0.00  0.00    +0.000 A 
ATOM     25  C   UNL     1      -3.324  15.233  23.536  0.00  0.00    +0.000 A 
ATOM     26  C   UNL     1      -2.196  14.430  23.338  0.00  0.00    +0.000 A 
ATOM     27  C   UNL     1      -2.272  13.045  23.492  0.00  0.00    +0.000 A 
ATOM     28  C   UNL     1      -3.500  12.469  23.826  0.00  0.00    +0.000 A 
ATOM     29  C   UNL     1      -4.638  13.274  24.009  0.00  0.00    +0.000 A 
BRANCH  24  31
ATOM     30  C   UNL     1      -6.881  15.058  23.628  0.00  0.00    +0.000 C 
ATOM     31  O   UNL     1      -5.598  15.531  24.024  0.00  0.00    +0.000 OA
ENDBRANCH  24  31
ENDBRANCH  23  27
ENDBRANCH  22  23
ENDBRANCH  17  22
ENDBRANCH   1  20
TORSDOF 10
ENDMDL
