MODEL 1
REMARK VINA RESULT:      -6.6      0.000      0.000
REMARK  Name = 
REMARK  6 active torsions:
REMARK  status: ('A' for Active; 'I' for Inactive)
REMARK    1  A    between atoms: C_1  and  C_2
REMARK    2  A    between atoms: C_2  and  C_3
REMARK    3  A    between atoms: N_5  and  C1*_6
REMARK    4  A    between atoms: C3*_8  and  O3*_9
REMARK    5  A    between atoms: C4*_10  and  C5*_11
REMARK    6  A    between atoms: C5*_11  and  O5*_12
REMARK                            x       y       z     vdW  Elec       q    Type
REMARK                         _______ _______ _______ _____ _____    ______ ____
ROOT
ATOM      1  C   UNL     1       6.186   4.297  14.862  0.00  0.00    +0.000 A 
ATOM      2  C   UNL     1       5.542   4.132  16.027  0.00  0.00    +0.000 A 
ATOM      3  N   UNL     1       5.889   4.810  17.189  0.00  0.00    +0.000 N 
ATOM      4  C   UNL     1       6.965   5.699  17.161  0.00  0.00    +0.000 A 
ATOM      5  O   UNL     1       7.593   6.093  18.139  0.00  0.00    +0.000 OA
ATOM      6  N   UNL     1       7.361   6.109  15.918  0.00  0.00    +0.000 N 
ATOM      7  C   UNL     1       7.245   5.330  14.806  0.00  0.00    +0.000 A 
ATOM      8  O   UNL     1       8.003   5.445  13.851  0.00  0.00    +0.000 OA
ATOM      9  H   UNL     1       8.158   6.729  15.916  0.00  0.00    +0.000 HD
ENDROOT
BRANCH   3  10
ATOM     10  C1* UNL     1       5.433   4.245  18.482  0.00  0.00    +0.000 C 
ATOM     11  C2* UNL     1       4.783   5.211  19.468  0.00  0.00    +0.000 C 
ATOM     12  C3* UNL     1       3.331   5.138  19.061  0.00  0.00    +0.000 C 
ATOM     13  C4* UNL     1       3.191   3.636  18.920  0.00  0.00    +0.000 C 
ATOM     14  O4* UNL     1       4.400   3.234  18.220  0.00  0.00    +0.000 OA
BRANCH  12  15
ATOM     15  O3* UNL     1       3.118   5.807  17.819  0.00  0.00    +0.000 OA
ATOM     16  H3* UNL     1       2.207   5.617  17.514  0.00  0.00    +0.000 HD
ENDBRANCH  12  15
BRANCH  13  17
ATOM     17  C5* UNL     1       1.927   3.211  18.186  0.00  0.00    +0.000 C 
BRANCH  17  18
ATOM     18  O5* UNL     1       2.146   3.237  16.782  0.00  0.00    +0.000 OA
ATOM     19  H5* UNL     1       2.974   3.728  16.632  0.00  0.00    +0.000 HD
ENDBRANCH  17  18
ENDBRANCH  13  17
ENDBRANCH   3  10
BRANCH   1  21
ATOM     20  C   UNL     1       5.072   3.795  12.601  0.00  0.00    +0.000 C 
ATOM     21  C   UNL     1       6.011   3.351  13.707  0.00  0.00    +0.000 C 
ENDBRANCH   1  21
TORSDOF 5
ENDMDL
MODEL 2
REMARK VINA RESULT:      -6.6      2.252      3.809
REMARK  Name = 
REMARK  6 active torsions:
REMARK  status: ('A' for Active; 'I' for Inactive)
REMARK    1  A    between atoms: C_1  and  C_2
REMARK    2  A    between atoms: C_2  and  C_3
REMARK    3  A    between atoms: N_5  and  C1*_6
REMARK    4  A    between atoms: C3*_8  and  O3*_9
REMARK    5  A    between atoms: C4*_10  and  C5*_11
REMARK    6  A    between atoms: C5*_11  and  O5*_12
REMARK                            x       y       z     vdW  Elec       q    Type
REMARK                         _______ _______ _______ _____ _____    ______ ____
ROOT
ATOM      1  C   UNL     1       6.732   5.421  18.238  0.00  0.00    +0.000 A 
ATOM      2  C   UNL     1       5.521   5.448  18.812  0.00  0.00    +0.000 A 
ATOM      3  N   UNL     1       4.426   4.756  18.310  0.00  0.00    +0.000 N 
ATOM      4  C   UNL     1       4.576   4.003  17.143  0.00  0.00    +0.000 A 
ATOM      5  O   UNL     1       3.666   3.635  16.408  0.00  0.00    +0.000 OA
ATOM      6  N   UNL     1       5.865   3.707  16.793  0.00  0.00    +0.000 N 
ATOM      7  C   UNL     1       6.917   4.524  17.075  0.00  0.00    +0.000 A 
ATOM      8  O   UNL     1       7.925   4.549  16.378  0.00  0.00    +0.000 OA
ATOM      9  H   UNL     1       5.955   3.187  15.932  0.00  0.00    +0.000 HD
ENDROOT
BRANCH   3  10
ATOM     10  C1* UNL     1       3.075   5.195  18.734  0.00  0.00    +0.000 C 
ATOM     11  C2* UNL     1       1.896   4.339  18.282  0.00  0.00    +0.000 C 
ATOM     12  C3* UNL     1       1.792   3.336  19.407  0.00  0.00    +0.000 C 
ATOM     13  C4* UNL     1       1.928   4.278  20.587  0.00  0.00    +0.000 C 
ATOM     14  O4* UNL     1       3.007   5.172  20.201  0.00  0.00    +0.000 OA
BRANCH  12  15
ATOM     15  O3* UNL     1       2.867   2.400  19.351  0.00  0.00    +0.000 OA
ATOM     16  H3* UNL     1       3.133   2.176  20.267  0.00  0.00    +0.000 HD
ENDBRANCH  12  15
BRANCH  13  17
ATOM     17  C5* UNL     1       2.208   3.563  21.901  0.00  0.00    +0.000 C 
BRANCH  17  18
ATOM     18  O5* UNL     1       1.443   2.368  21.981  0.00  0.00    +0.000 OA
ATOM     19  H5* UNL     1       0.559   2.617  22.306  0.00  0.00    +0.000 HD
ENDBRANCH  17  18
ENDBRANCH  13  17
ENDBRANCH   3  10
BRANCH   1  21
ATOM     20  C   UNL     1       7.820   7.717  17.850  0.00  0.00    +0.000 C 
ATOM     21  C   UNL     1       7.814   6.399  18.601  0.00  0.00    +0.000 C 
ENDBRANCH   1  21
TORSDOF 5
ENDMDL
MODEL 3
REMARK VINA RESULT:      -6.3      2.303      5.247
REMARK  Name = 
REMARK  6 active torsions:
REMARK  status: ('A' for Active; 'I' for Inactive)
REMARK    1  A    between atoms: C_1  and  C_2
REMARK    2  A    between atoms: C_2  and  C_3
REMARK    3  A    between atoms: N_5  and  C1*_6
REMARK    4  A    between atoms: C3*_8  and  O3*_9
REMARK    5  A    between atoms: C4*_10  and  C5*_11
REMARK    6  A    between atoms: C5*_11  and  O5*_12
REMARK                            x       y       z     vdW  Elec       q    Type
REMARK                         _______ _______ _______ _____ _____    ______ ____
ROOT
ATOM      1  C   UNL     1       2.895   6.840  18.236  0.00  0.00    +0.000 A 
ATOM      2  C   UNL     1       3.962   6.591  17.463  0.00  0.00    +0.000 A 
ATOM      3  N   UNL     1       5.077   5.891  17.909  0.00  0.00    +0.000 N 
ATOM      4  C   UNL     1       5.106   5.429  19.227  0.00  0.00    +0.000 A 
ATOM      5  O   UNL     1       6.114   5.116  19.852  0.00  0.00    +0.000 OA
ATOM      6  N   UNL     1       3.896   5.380  19.863  0.00  0.00    +0.000 N 
ATOM      7  C   UNL     1       2.878   6.242  19.591  0.00  0.00    +0.000 A 
ATOM      8  O   UNL     1       2.039   6.542  20.432  0.00  0.00    +0.000 OA
ATOM      9  H   UNL     1       3.941   5.071  20.823  0.00  0.00    +0.000 HD
ENDROOT
BRANCH   3  10
ATOM     10  C1* UNL     1       6.344   6.056  17.157  0.00  0.00    +0.000 C 
ATOM     11  C2* UNL     1       7.361   4.923  17.259  0.00  0.00    +0.000 C 
ATOM     12  C3* UNL     1       6.941   4.028  16.118  0.00  0.00    +0.000 C 
ATOM     13  C4* UNL     1       6.743   5.078  15.043  0.00  0.00    +0.000 C 
ATOM     14  O4* UNL     1       6.037   6.151  15.724  0.00  0.00    +0.000 OA
BRANCH  12  15
ATOM     15  O3* UNL     1       5.723   3.351  16.426  0.00  0.00    +0.000 OA
ATOM     16  H3* UNL     1       5.908   2.668  17.102  0.00  0.00    +0.000 HD
ENDBRANCH  12  15
BRANCH  13  17
ATOM     17  C5* UNL     1       5.984   4.564  13.828  0.00  0.00    +0.000 C 
BRANCH  17  18
ATOM     18  O5* UNL     1       6.348   3.217  13.557  0.00  0.00    +0.000 OA
ATOM     19  H5* UNL     1       6.065   2.687  14.324  0.00  0.00    +0.000 HD
ENDBRANCH  17  18
ENDBRANCH  13  17
ENDBRANCH   3  10
BRANCH   1  21
ATOM     20  C   UNL     1       2.246   9.307  17.920  0.00  0.00    +0.000 C 
ATOM     21  C   UNL     1       1.845   7.845  17.855  0.00  0.00    +0.000 C 
ENDBRANCH   1  21
TORSDOF 5
ENDMDL
MODEL 4
REMARK VINA RESULT:      -6.2      1.587      1.863
REMARK  Name = 
REMARK  6 active torsions:
REMARK  status: ('A' for Active; 'I' for Inactive)
REMARK    1  A    between atoms: C_1  and  C_2
REMARK    2  A    between atoms: C_2  and  C_3
REMARK    3  A    between atoms: N_5  and  C1*_6
REMARK    4  A    between atoms: C3*_8  and  O3*_9
REMARK    5  A    between atoms: C4*_10  and  C5*_11
REMARK    6  A    between atoms: C5*_11  and  O5*_12
REMARK                            x       y       z     vdW  Elec       q    Type
REMARK                         _______ _______ _______ _____ _____    ______ ____
ROOT
ATOM      1  C   UNL     1       5.617   5.183  16.237  0.00  0.00    +0.000 A 
ATOM      2  C   UNL     1       4.853   4.474  17.081  0.00  0.00    +0.000 A 
ATOM      3  N   UNL     1       5.086   4.415  18.449  0.00  0.00    +0.000 N 
ATOM      4  C   UNL     1       6.171   5.112  18.984  0.00  0.00    +0.000 A 
ATOM      5  O   UNL     1       6.698   4.891  20.069  0.00  0.00    +0.000 OA
ATOM      6  N   UNL     1       6.699   6.088  18.183  0.00  0.00    +0.000 N 
ATOM      7  C   UNL     1       6.689   6.019  16.823  0.00  0.00    +0.000 A 
ATOM      8  O   UNL     1       7.543   6.569  16.139  0.00  0.00    +0.000 OA
ATOM      9  H   UNL     1       7.500   6.562  18.575  0.00  0.00    +0.000 HD
ENDROOT
BRANCH   3  10
ATOM     10  C1* UNL     1       4.491   3.286  19.204  0.00  0.00    +0.000 C 
ATOM     11  C2* UNL     1       3.889   3.608  20.569  0.00  0.00    +0.000 C 
ATOM     12  C3* UNL     1       2.466   3.958  20.205  0.00  0.00    +0.000 C 
ATOM     13  C4* UNL     1       2.173   2.822  19.245  0.00  0.00    +0.000 C 
ATOM     14  O4* UNL     1       3.373   2.733  18.429  0.00  0.00    +0.000 OA
BRANCH  12  15
ATOM     15  O3* UNL     1       2.406   5.227  19.556  0.00  0.00    +0.000 OA
ATOM     16  H3* UNL     1       1.508   5.345  19.185  0.00  0.00    +0.000 HD
ENDBRANCH  12  15
BRANCH  13  17
ATOM     17  C5* UNL     1       0.919   3.044  18.411  0.00  0.00    +0.000 C 
BRANCH  17  18
ATOM     18  O5* UNL     1       1.214   3.875  17.297  0.00  0.00    +0.000 OA
ATOM     19  H5* UNL     1       2.144   3.713  17.059  0.00  0.00    +0.000 HD
ENDBRANCH  17  18
ENDBRANCH  13  17
ENDBRANCH   3  10
BRANCH   1  21
ATOM     20  C   UNL     1       6.283   3.800  14.175  0.00  0.00    +0.000 C 
ATOM     21  C   UNL     1       5.550   5.000  14.747  0.00  0.00    +0.000 C 
ENDBRANCH   1  21
TORSDOF 5
ENDMDL
MODEL 5
REMARK VINA RESULT:      -6.2      2.252      3.779
REMARK  Name = 
REMARK  6 active torsions:
REMARK  status: ('A' for Active; 'I' for Inactive)
REMARK    1  A    between atoms: C_1  and  C_2
REMARK    2  A    between atoms: C_2  and  C_3
REMARK    3  A    between atoms: N_5  and  C1*_6
REMARK    4  A    between atoms: C3*_8  and  O3*_9
REMARK    5  A    between atoms: C4*_10  and  C5*_11
REMARK    6  A    between atoms: C5*_11  and  O5*_12
REMARK                            x       y       z     vdW  Elec       q    Type
REMARK                         _______ _______ _______ _____ _____    ______ ____
ROOT
ATOM      1  C   UNL     1       4.237   6.580  17.441  0.00  0.00    +0.000 A 
ATOM      2  C   UNL     1       3.572   5.439  17.671  0.00  0.00    +0.000 A 
ATOM      3  N   UNL     1       4.047   4.192  17.284  0.00  0.00    +0.000 N 
ATOM      4  C   UNL     1       5.268   4.109  16.611  0.00  0.00    +0.000 A 
ATOM      5  O   UNL     1       5.642   3.165  15.922  0.00  0.00    +0.000 OA
ATOM      6  N   UNL     1       6.072   5.211  16.709  0.00  0.00    +0.000 N 
ATOM      7  C   UNL     1       5.586   6.476  16.840  0.00  0.00    +0.000 A 
ATOM      8  O   UNL     1       6.204   7.454  16.436  0.00  0.00    +0.000 OA
ATOM      9  H   UNL     1       6.938   5.144  16.193  0.00  0.00    +0.000 HD
ENDROOT
BRANCH   3  10
ATOM     10  C1* UNL     1       3.069   3.082  17.177  0.00  0.00    +0.000 C 
ATOM     11  C2* UNL     1       3.374   1.814  17.968  0.00  0.00    +0.000 C 
ATOM     12  C3* UNL     1       2.713   2.109  19.293  0.00  0.00    +0.000 C 
ATOM     13  C4* UNL     1       1.394   2.660  18.790  0.00  0.00    +0.000 C 
ATOM     14  O4* UNL     1       1.774   3.539  17.696  0.00  0.00    +0.000 OA
BRANCH  12  15
ATOM     15  O3* UNL     1       3.452   3.088  20.021  0.00  0.00    +0.000 OA
ATOM     16  H3* UNL     1       2.884   3.436  20.739  0.00  0.00    +0.000 HD
ENDBRANCH  12  15
BRANCH  13  17
ATOM     17  C5* UNL     1       0.592   3.383  19.863  0.00  0.00    +0.000 C 
BRANCH  17  18
ATOM     18  O5* UNL     1       0.853   2.810  21.137  0.00  0.00    +0.000 OA
ATOM     19  H5* UNL     1       1.569   3.331  21.542  0.00  0.00    +0.000 HD
ENDBRANCH  17  18
ENDBRANCH  13  17
ENDBRANCH   3  10
BRANCH   1  21
ATOM     20  C   UNL     1       2.162   7.948  18.095  0.00  0.00    +0.000 C 
ATOM     21  C   UNL     1       3.589   7.929  17.581  0.00  0.00    +0.000 C 
ENDBRANCH   1  21
TORSDOF 5
ENDMDL
MODEL 6
REMARK VINA RESULT:      -6.1      2.106      3.274
REMARK  Name = 
REMARK  6 active torsions:
REMARK  status: ('A' for Active; 'I' for Inactive)
REMARK    1  A    between atoms: C_1  and  C_2
REMARK    2  A    between atoms: C_2  and  C_3
REMARK    3  A    between atoms: N_5  and  C1*_6
REMARK    4  A    between atoms: C3*_8  and  O3*_9
REMARK    5  A    between atoms: C4*_10  and  C5*_11
REMARK    6  A    between atoms: C5*_11  and  O5*_12
REMARK                            x       y       z     vdW  Elec       q    Type
REMARK                         _______ _______ _______ _____ _____    ______ ____
ROOT
ATOM      1  C   UNL     1       5.475   4.956  16.310  0.00  0.00    +0.000 A 
ATOM      2  C   UNL     1       4.486   4.074  16.516  0.00  0.00    +0.000 A 
ATOM      3  N   UNL     1       3.357   4.361  17.273  0.00  0.00    +0.000 N 
ATOM      4  C   UNL     1       3.238   5.620  17.865  0.00  0.00    +0.000 A 
ATOM      5  O   UNL     1       2.507   5.901  18.809  0.00  0.00    +0.000 OA
ATOM      6  N   UNL     1       4.056   6.591  17.356  0.00  0.00    +0.000 N 
ATOM      7  C   UNL     1       5.286   6.329  16.834  0.00  0.00    +0.000 A 
ATOM      8  O   UNL     1       6.189   7.157  16.849  0.00  0.00    +0.000 OA
ATOM      9  H   UNL     1       3.977   7.488  17.815  0.00  0.00    +0.000 HD
ENDROOT
BRANCH   3  10
ATOM     10  C1* UNL     1       2.571   3.221  17.803  0.00  0.00    +0.000 C 
ATOM     11  C2* UNL     1       3.344   1.956  18.165  0.00  0.00    +0.000 C 
ATOM     12  C3* UNL     1       3.709   2.219  19.606  0.00  0.00    +0.000 C 
ATOM     13  C4* UNL     1       2.374   2.731  20.107  0.00  0.00    +0.000 C 
ATOM     14  O4* UNL     1       1.926   3.631  19.057  0.00  0.00    +0.000 OA
BRANCH  12  15
ATOM     15  O3* UNL     1       4.726   3.215  19.698  0.00  0.00    +0.000 OA
ATOM     16  H3* UNL     1       5.589   2.770  19.827  0.00  0.00    +0.000 HD
ENDBRANCH  12  15
BRANCH  13  17
ATOM     17  C5* UNL     1       2.460   3.419  21.462  0.00  0.00    +0.000 C 
BRANCH  17  18
ATOM     18  O5* UNL     1       2.550   4.826  21.291  0.00  0.00    +0.000 OA
ATOM     19  H5* UNL     1       2.666   4.991  20.338  0.00  0.00    +0.000 HD
ENDBRANCH  17  18
ENDBRANCH  13  17
ENDBRANCH   3  10
BRANCH   1  21
ATOM     20  C   UNL     1       7.042   4.789  14.280  0.00  0.00    +0.000 C 
ATOM     21  C   UNL     1       6.813   4.549  15.760  0.00  0.00    +0.000 C 
ENDBRANCH   1  21
TORSDOF 5
ENDMDL
MODEL 7
REMARK VINA RESULT:      -6.1      1.800      2.930
REMARK  Name = 
REMARK  6 active torsions:
REMARK  status: ('A' for Active; 'I' for Inactive)
REMARK    1  A    between atoms: C_1  and  C_2
REMARK    2  A    between atoms: C_2  and  C_3
REMARK    3  A    between atoms: N_5  and  C1*_6
REMARK    4  A    between atoms: C3*_8  and  O3*_9
REMARK    5  A    between atoms: C4*_10  and  C5*_11
REMARK    6  A    between atoms: C5*_11  and  O5*_12
REMARK                            x       y       z     vdW  Elec       q    Type
REMARK                         _______ _______ _______ _____ _____    ______ ____
ROOT
ATOM      1  C   UNL     1       6.135   4.473  16.342  0.00  0.00    +0.000 A 
ATOM      2  C   UNL     1       4.829   4.669  16.573  0.00  0.00    +0.000 A 
ATOM      3  N   UNL     1       4.300   4.835  17.847  0.00  0.00    +0.000 N 
ATOM      4  C   UNL     1       5.156   4.785  18.950  0.00  0.00    +0.000 A 
ATOM      5  O   UNL     1       4.816   4.572  20.109  0.00  0.00    +0.000 OA
ATOM      6  N   UNL     1       6.486   4.944  18.673  0.00  0.00    +0.000 N 
ATOM      7  C   UNL     1       7.054   4.545  17.501  0.00  0.00    +0.000 A 
ATOM      8  O   UNL     1       8.232   4.217  17.428  0.00  0.00    +0.000 OA
ATOM      9  H   UNL     1       7.092   4.876  19.478  0.00  0.00    +0.000 HD
ENDROOT
BRANCH   3  10
ATOM     10  C1* UNL     1       2.848   4.597  18.030  0.00  0.00    +0.000 C 
ATOM     11  C2* UNL     1       2.261   3.357  17.362  0.00  0.00    +0.000 C 
ATOM     12  C3* UNL     1       2.446   2.312  18.436  0.00  0.00    +0.000 C 
ATOM     13  C4* UNL     1       1.963   3.104  19.634  0.00  0.00    +0.000 C 
ATOM     14  O4* UNL     1       2.574   4.412  19.461  0.00  0.00    +0.000 OA
BRANCH  12  15
ATOM     15  O3* UNL     1       3.820   1.949  18.560  0.00  0.00    +0.000 OA
ATOM     16  H3* UNL     1       3.999   1.195  17.961  0.00  0.00    +0.000 HD
ENDBRANCH  12  15
BRANCH  13  17
ATOM     17  C5* UNL     1       2.327   2.466  20.967  0.00  0.00    +0.000 C 
BRANCH  17  18
ATOM     18  O5* UNL     1       2.391   3.458  21.982  0.00  0.00    +0.000 OA
ATOM     19  H5* UNL     1       3.081   3.178  22.611  0.00  0.00    +0.000 HD
ENDBRANCH  17  18
ENDBRANCH  13  17
ENDBRANCH   3  10
BRANCH   1  21
ATOM     20  C   UNL     1       5.693   4.077  13.841  0.00  0.00    +0.000 C 
ATOM     21  C   UNL     1       6.652   3.993  15.014  0.00  0.00    +0.000 C 
ENDBRANCH   1  21
TORSDOF 5
ENDMDL
MODEL 8
REMARK VINA RESULT:      -6.0      1.677      2.448
REMARK  Name = 
REMARK  6 active torsions:
REMARK  status: ('A' for Active; 'I' for Inactive)
REMARK    1  A    between atoms: C_1  and  C_2
REMARK    2  A    between atoms: C_2  and  C_3
REMARK    3  A    between atoms: N_5  and  C1*_6
REMARK    4  A    between atoms: C3*_8  and  O3*_9
REMARK    5  A    between atoms: C4*_10  and  C5*_11
REMARK    6  A    between atoms: C5*_11  and  O5*_12
REMARK                            x       y       z     vdW  Elec       q    Type
REMARK                         _______ _______ _______ _____ _____    ______ ____
ROOT
ATOM      1  C   UNL     1       5.933   5.429  16.394  0.00  0.00    +0.000 A 
ATOM      2  C   UNL     1       4.850   5.825  17.078  0.00  0.00    +0.000 A 
ATOM      3  N   UNL     1       4.652   5.535  18.422  0.00  0.00    +0.000 N 
ATOM      4  C   UNL     1       5.613   4.785  19.104  0.00  0.00    +0.000 A 
ATOM      5  O   UNL     1       5.431   4.172  20.150  0.00  0.00    +0.000 OA
ATOM      6  N   UNL     1       6.838   4.707  18.501  0.00  0.00    +0.000 N 
ATOM      7  C   UNL     1       7.006   4.742  17.150  0.00  0.00    +0.000 A 
ATOM      8  O   UNL     1       7.952   4.195  16.598  0.00  0.00    +0.000 OA
ATOM      9  H   UNL     1       7.511   4.137  18.994  0.00  0.00    +0.000 HD
ENDROOT
BRANCH   3  10
ATOM     10  C1* UNL     1       3.269   5.617  18.952  0.00  0.00    +0.000 C 
ATOM     11  C2* UNL     1       2.135   5.560  17.934  0.00  0.00    +0.000 C 
ATOM     12  C3* UNL     1       1.881   4.075  17.836  0.00  0.00    +0.000 C 
ATOM     13  C4* UNL     1       1.896   3.727  19.311  0.00  0.00    +0.000 C 
ATOM     14  O4* UNL     1       3.031   4.469  19.836  0.00  0.00    +0.000 OA
BRANCH  12  15
ATOM     15  O3* UNL     1       2.936   3.426  17.128  0.00  0.00    +0.000 OA
ATOM     16  H3* UNL     1       2.562   2.664  16.640  0.00  0.00    +0.000 HD
ENDBRANCH  12  15
BRANCH  13  17
ATOM     17  C5* UNL     1       2.006   2.232  19.578  0.00  0.00    +0.000 C 
BRANCH  17  18
ATOM     18  O5* UNL     1       1.432   1.500  18.505  0.00  0.00    +0.000 OA
ATOM     19  H5* UNL     1       0.844   0.831  18.898  0.00  0.00    +0.000 HD
ENDBRANCH  17  18
ENDBRANCH  13  17
ENDBRANCH   3  10
BRANCH   1  21
ATOM     20  C   UNL     1       5.708   4.181  14.158  0.00  0.00    +0.000 C 
ATOM     21  C   UNL     1       5.997   5.477  14.894  0.00  0.00    +0.000 C 
ENDBRANCH   1  21
TORSDOF 5
ENDMDL
MODEL 9
REMARK VINA RESULT:      -6.0      2.657      3.475
REMARK  Name = 
REMARK  6 active torsions:
REMARK  status: ('A' for Active; 'I' for Inactive)
REMARK    1  A    between atoms: C_1  and  C_2
REMARK    2  A    between atoms: C_2  and  C_3
REMARK    3  A    between atoms: N_5  and  C1*_6
REMARK    4  A    between atoms: C3*_8  and  O3*_9
REMARK    5  A    between atoms: C4*_10  and  C5*_11
REMARK    6  A    between atoms: C5*_11  and  O5*_12
REMARK                            x       y       z     vdW  Elec       q    Type
REMARK                         _______ _______ _______ _____ _____    ______ ____
ROOT
ATOM      1  C   UNL     1       6.161   6.017  17.953  0.00  0.00    +0.000 A 
ATOM      2  C   UNL     1       5.041   6.126  18.683  0.00  0.00    +0.000 A 
ATOM      3  N   UNL     1       4.457   5.052  19.342  0.00  0.00    +0.000 N 
ATOM      4  C   UNL     1       5.046   3.790  19.239  0.00  0.00    +0.000 A 
ATOM      5  O   UNL     1       4.487   2.720  19.459  0.00  0.00    +0.000 OA
ATOM      6  N   UNL     1       6.343   3.777  18.805  0.00  0.00    +0.000 N 
ATOM      7  C   UNL     1       6.850   4.706  17.949  0.00  0.00    +0.000 A 
ATOM      8  O   UNL     1       7.777   4.452  17.189  0.00  0.00    +0.000 OA
ATOM      9  H   UNL     1       6.742   2.854  18.710  0.00  0.00    +0.000 HD
ENDROOT
BRANCH   3  10
ATOM     10  C1* UNL     1       3.030   5.170  19.728  0.00  0.00    +0.000 C 
ATOM     11  C2* UNL     1       2.087   5.800  18.707  0.00  0.00    +0.000 C 
ATOM     12  C3* UNL     1       1.647   4.597  17.908  0.00  0.00    +0.000 C 
ATOM     13  C4* UNL     1       1.363   3.638  19.047  0.00  0.00    +0.000 C 
ATOM     14  O4* UNL     1       2.486   3.824  19.952  0.00  0.00    +0.000 OA
BRANCH  12  15
ATOM     15  O3* UNL     1       2.705   4.128  17.073  0.00  0.00    +0.000 OA
ATOM     16  H3* UNL     1       2.849   4.780  16.357  0.00  0.00    +0.000 HD
ENDBRANCH  12  15
BRANCH  13  17
ATOM     17  C5* UNL     1       1.215   2.191  18.597  0.00  0.00    +0.000 C 
BRANCH  17  18
ATOM     18  O5* UNL     1       2.470   1.683  18.167  0.00  0.00    +0.000 OA
ATOM     19  H5* UNL     1       2.986   1.482  18.969  0.00  0.00    +0.000 HD
ENDBRANCH  17  18
ENDBRANCH  13  17
ENDBRANCH   3  10
BRANCH   1  21
ATOM     20  C   UNL     1       7.700   8.026  17.502  0.00  0.00    +0.000 C 
ATOM     21  C   UNL     1       6.610   7.094  17.006  0.00  0.00    +0.000 C 
ENDBRANCH   1  21
TORSDOF 5
ENDMDL
