MODEL 1
REMARK VINA RESULT:      -7.7      0.000      0.000
REMARK  Name = 
REMARK  5 active torsions:
REMARK  status: ('A' for Active; 'I' for Inactive)
REMARK    1  A    between atoms: C_4  and  C_5
REMARK    2  A    between atoms: N_9  and  C_10
REMARK    3  A    between atoms: C_10  and  C_11
REMARK    4  A    between atoms: C_11  and  C_12
REMARK    5  A    between atoms: C_12  and  N_13
REMARK                            x       y       z     vdW  Elec       q    Type
REMARK                         _______ _______ _______ _____ _____    ______ ____
ROOT
ATOM      1  C   UNL     1       1.258   8.688  20.149  0.00  0.00    +0.000 A 
ATOM      2  C   UNL     1       1.596   9.032  18.828  0.00  0.00    +0.000 A 
ATOM      3  C   UNL     1       2.345   8.145  18.060  0.00  0.00    +0.000 A 
ATOM      4  C   UNL     1       2.705   6.910  18.597  0.00  0.00    +0.000 A 
ATOM      5  N   UNL     1       3.365   5.943  17.788  0.00  0.00    +0.000 N 
ATOM      6  N   UNL     1       2.355   6.621  19.881  0.00  0.00    +0.000 NA
ATOM      7  N   UNL     1       1.683   7.491  20.636  0.00  0.00    +0.000 NA
ATOM      8  H   UNL     1       3.830   6.239  16.914  0.00  0.00    +0.000 HD
ENDROOT
BRANCH   1  12
ATOM      9  C   UNL     1      -1.092  11.294  22.636  0.00  0.00    +0.000 A 
ATOM     10  C   UNL     1      -0.627  10.080  23.144  0.00  0.00    +0.000 A 
ATOM     11  C   UNL     1       0.122   9.222  22.338  0.00  0.00    +0.000 A 
ATOM     12  C   UNL     1       0.438   9.579  21.011  0.00  0.00    +0.000 A 
ATOM     13  C   UNL     1      -0.019  10.816  20.517  0.00  0.00    +0.000 A 
ATOM     14  C   UNL     1      -0.792  11.660  21.322  0.00  0.00    +0.000 A 
ENDBRANCH   1  12
BRANCH   5  15
ATOM     15  C   UNL     1       3.189   4.525  18.028  0.00  0.00    +0.000 C 
BRANCH  15  16
ATOM     16  C   UNL     1       4.546   3.949  18.472  0.00  0.00    +0.000 C 
BRANCH  16  17
ATOM     17  C   UNL     1       5.507   4.975  19.084  0.00  0.00    +0.000 C 
BRANCH  17  18
ATOM     18  N   UNL     1       6.886   4.783  18.563  0.00  0.00    +0.000 NA
ATOM     19  C   UNL     1       7.824   5.905  18.812  0.00  0.00    +0.000 C 
ATOM     20  C   UNL     1       7.539   7.093  17.878  0.00  0.00    +0.000 C 
ATOM     21  O   UNL     1       7.633   6.690  16.526  0.00  0.00    +0.000 OA
ATOM     22  C   UNL     1       6.661   5.698  16.258  0.00  0.00    +0.000 C 
ATOM     23  C   UNL     1       6.905   4.448  17.125  0.00  0.00    +0.000 C 
ENDBRANCH  17  18
ENDBRANCH  16  17
ENDBRANCH  15  16
ENDBRANCH   5  15
TORSDOF 5
ENDMDL
MODEL 2
REMARK VINA RESULT:      -7.7      0.149      1.039
REMARK  Name = 
REMARK  5 active torsions:
REMARK  status: ('A' for Active; 'I' for Inactive)
REMARK    1  A    between atoms: C_4  and  C_5
REMARK    2  A    between atoms: N_9  and  C_10
REMARK    3  A    between atoms: C_10  and  C_11
REMARK    4  A    between atoms: C_11  and  C_12
REMARK    5  A    between atoms: C_12  and  N_13
REMARK                            x       y       z     vdW  Elec       q    Type
REMARK                         _______ _______ _______ _____ _____    ______ ____
ROOT
ATOM      1  C   UNL     1       1.320   8.657  20.054  0.00  0.00    +0.000 A 
ATOM      2  C   UNL     1       1.659   9.011  18.737  0.00  0.00    +0.000 A 
ATOM      3  C   UNL     1       2.422   8.139  17.967  0.00  0.00    +0.000 A 
ATOM      4  C   UNL     1       2.797   6.906  18.500  0.00  0.00    +0.000 A 
ATOM      5  N   UNL     1       3.473   5.952  17.689  0.00  0.00    +0.000 N 
ATOM      6  N   UNL     1       2.446   6.606  19.781  0.00  0.00    +0.000 NA
ATOM      7  N   UNL     1       1.760   7.463  20.538  0.00  0.00    +0.000 NA
ATOM      8  H   UNL     1       3.938   6.258  16.818  0.00  0.00    +0.000 HD
ENDROOT
BRANCH   1  12
ATOM      9  C   UNL     1      -1.117  11.158  22.565  0.00  0.00    +0.000 A 
ATOM     10  C   UNL     1      -0.938  11.486  21.220  0.00  0.00    +0.000 A 
ATOM     11  C   UNL     1      -0.135  10.688  20.403  0.00  0.00    +0.000 A 
ATOM     12  C   UNL     1       0.485   9.532  20.918  0.00  0.00    +0.000 A 
ATOM     13  C   UNL     1       0.280   9.200  22.271  0.00  0.00    +0.000 A 
ATOM     14  C   UNL     1      -0.505  10.019  23.091  0.00  0.00    +0.000 A 
ENDBRANCH   1  12
BRANCH   5  15
ATOM     15  C   UNL     1       3.316   4.530  17.921  0.00  0.00    +0.000 C 
BRANCH  15  16
ATOM     16  C   UNL     1       4.685   3.965  18.340  0.00  0.00    +0.000 C 
BRANCH  16  17
ATOM     17  C   UNL     1       5.599   4.969  19.053  0.00  0.00    +0.000 C 
BRANCH  17  18
ATOM     18  N   UNL     1       7.003   4.830  18.582  0.00  0.00    +0.000 NA
ATOM     19  C   UNL     1       7.881   5.999  18.840  0.00  0.00    +0.000 C 
ATOM     20  C   UNL     1       7.575   7.155  17.875  0.00  0.00    +0.000 C 
ATOM     21  O   UNL     1       7.732   6.734  16.534  0.00  0.00    +0.000 OA
ATOM     22  C   UNL     1       6.815   5.693  16.253  0.00  0.00    +0.000 C 
ATOM     23  C   UNL     1       7.085   4.472  17.152  0.00  0.00    +0.000 C 
ENDBRANCH  17  18
ENDBRANCH  16  17
ENDBRANCH  15  16
ENDBRANCH   5  15
TORSDOF 5
ENDMDL
MODEL 3
REMARK VINA RESULT:      -7.4      4.933      7.556
REMARK  Name = 
REMARK  5 active torsions:
REMARK  status: ('A' for Active; 'I' for Inactive)
REMARK    1  A    between atoms: C_4  and  C_5
REMARK    2  A    between atoms: N_9  and  C_10
REMARK    3  A    between atoms: C_10  and  C_11
REMARK    4  A    between atoms: C_11  and  C_12
REMARK    5  A    between atoms: C_12  and  N_13
REMARK                            x       y       z     vdW  Elec       q    Type
REMARK                         _______ _______ _______ _____ _____    ______ ____
ROOT
ATOM      1  C   UNL     1       5.194   5.294  17.964  0.00  0.00    +0.000 A 
ATOM      2  C   UNL     1       6.262   5.059  18.847  0.00  0.00    +0.000 A 
ATOM      3  C   UNL     1       7.347   5.930  18.856  0.00  0.00    +0.000 A 
ATOM      4  C   UNL     1       7.335   7.047  18.023  0.00  0.00    +0.000 A 
ATOM      5  N   UNL     1       8.377   8.012  18.105  0.00  0.00    +0.000 N 
ATOM      6  N   UNL     1       6.278   7.234  17.184  0.00  0.00    +0.000 NA
ATOM      7  N   UNL     1       5.261   6.373  17.137  0.00  0.00    +0.000 NA
ATOM      8  H   UNL     1       9.273   7.760  18.554  0.00  0.00    +0.000 HD
ENDROOT
BRANCH   1  12
ATOM      9  C   UNL     1       1.705   2.780  17.882  0.00  0.00    +0.000 A 
ATOM     10  C   UNL     1       2.976   2.204  17.931  0.00  0.00    +0.000 A 
ATOM     11  C   UNL     1       4.113   3.014  17.941  0.00  0.00    +0.000 A 
ATOM     12  C   UNL     1       3.993   4.419  17.926  0.00  0.00    +0.000 A 
ATOM     13  C   UNL     1       2.705   4.986  17.898  0.00  0.00    +0.000 A 
ATOM     14  C   UNL     1       1.570   4.169  17.861  0.00  0.00    +0.000 A 
ENDBRANCH   1  12
BRANCH   5  15
ATOM     15  C   UNL     1       8.130   9.407  17.798  0.00  0.00    +0.000 C 
BRANCH  15  16
ATOM     16  C   UNL     1       9.089  10.256  18.652  0.00  0.00    +0.000 C 
BRANCH  16  17
ATOM     17  C   UNL     1       9.195  11.725  18.224  0.00  0.00    +0.000 C 
BRANCH  17  18
ATOM     18  N   UNL     1      10.569  12.038  17.748  0.00  0.00    +0.000 NA
ATOM     19  C   UNL     1      11.670  11.547  18.613  0.00  0.00    +0.000 C 
ATOM     20  C   UNL     1      11.815  12.406  19.880  0.00  0.00    +0.000 C 
ATOM     21  O   UNL     1      12.051  13.757  19.535  0.00  0.00    +0.000 OA
ATOM     22  C   UNL     1      10.948  14.260  18.805  0.00  0.00    +0.000 C 
ATOM     23  C   UNL     1      10.763  13.479  17.491  0.00  0.00    +0.000 C 
ENDBRANCH  17  18
ENDBRANCH  16  17
ENDBRANCH  15  16
ENDBRANCH   5  15
TORSDOF 5
ENDMDL
MODEL 4
REMARK VINA RESULT:      -7.3      4.777      7.450
REMARK  Name = 
REMARK  5 active torsions:
REMARK  status: ('A' for Active; 'I' for Inactive)
REMARK    1  A    between atoms: C_4  and  C_5
REMARK    2  A    between atoms: N_9  and  C_10
REMARK    3  A    between atoms: C_10  and  C_11
REMARK    4  A    between atoms: C_11  and  C_12
REMARK    5  A    between atoms: C_12  and  N_13
REMARK                            x       y       z     vdW  Elec       q    Type
REMARK                         _______ _______ _______ _____ _____    ______ ____
ROOT
ATOM      1  C   UNL     1       5.007   5.107  18.174  0.00  0.00    +0.000 A 
ATOM      2  C   UNL     1       6.127   4.831  18.976  0.00  0.00    +0.000 A 
ATOM      3  C   UNL     1       7.237   5.669  18.914  0.00  0.00    +0.000 A 
ATOM      4  C   UNL     1       7.198   6.795  18.094  0.00  0.00    +0.000 A 
ATOM      5  N   UNL     1       8.273   7.728  18.109  0.00  0.00    +0.000 N 
ATOM      6  N   UNL     1       6.091   7.022  17.334  0.00  0.00    +0.000 NA
ATOM      7  N   UNL     1       5.048   6.192  17.353  0.00  0.00    +0.000 NA
ATOM      8  H   UNL     1       9.191   7.445  18.490  0.00  0.00    +0.000 HD
ENDROOT
BRANCH   1  12
ATOM      9  C   UNL     1       1.467   2.664  18.254  0.00  0.00    +0.000 A 
ATOM     10  C   UNL     1       1.386   4.018  18.585  0.00  0.00    +0.000 A 
ATOM     11  C   UNL     1       2.533   4.813  18.577  0.00  0.00    +0.000 A 
ATOM     12  C   UNL     1       3.781   4.267  18.214  0.00  0.00    +0.000 A 
ATOM     13  C   UNL     1       3.846   2.905  17.862  0.00  0.00    +0.000 A 
ATOM     14  C   UNL     1       2.696   2.108  17.897  0.00  0.00    +0.000 A 
ENDBRANCH   1  12
BRANCH   5  15
ATOM     15  C   UNL     1       8.046   9.132  17.832  0.00  0.00    +0.000 C 
BRANCH  15  16
ATOM     16  C   UNL     1       8.901   9.952  18.816  0.00  0.00    +0.000 C 
BRANCH  16  17
ATOM     17  C   UNL     1       9.508  11.230  18.224  0.00  0.00    +0.000 C 
BRANCH  17  18
ATOM     18  N   UNL     1       9.662  12.275  19.271  0.00  0.00    +0.000 NA
ATOM     19  C   UNL     1      10.009  13.629  18.775  0.00  0.00    +0.000 C 
ATOM     20  C   UNL     1      11.484  13.710  18.349  0.00  0.00    +0.000 C 
ATOM     21  O   UNL     1      12.329  13.373  19.431  0.00  0.00    +0.000 OA
ATOM     22  C   UNL     1      12.076  12.040  19.833  0.00  0.00    +0.000 C 
ATOM     23  C   UNL     1      10.624  11.884  20.321  0.00  0.00    +0.000 C 
ENDBRANCH  17  18
ENDBRANCH  16  17
ENDBRANCH  15  16
ENDBRANCH   5  15
TORSDOF 5
ENDMDL
MODEL 5
REMARK VINA RESULT:      -7.3      4.740      7.055
REMARK  Name = 
REMARK  5 active torsions:
REMARK  status: ('A' for Active; 'I' for Inactive)
REMARK    1  A    between atoms: C_4  and  C_5
REMARK    2  A    between atoms: N_9  and  C_10
REMARK    3  A    between atoms: C_10  and  C_11
REMARK    4  A    between atoms: C_11  and  C_12
REMARK    5  A    between atoms: C_12  and  N_13
REMARK                            x       y       z     vdW  Elec       q    Type
REMARK                         _______ _______ _______ _____ _____    ______ ____
ROOT
ATOM      1  C   UNL     1       8.165   8.541  18.227  0.00  0.00    +0.000 A 
ATOM      2  C   UNL     1       8.523   7.484  19.082  0.00  0.00    +0.000 A 
ATOM      3  C   UNL     1       8.024   6.208  18.839  0.00  0.00    +0.000 A 
ATOM      4  C   UNL     1       7.218   5.989  17.723  0.00  0.00    +0.000 A 
ATOM      5  N   UNL     1       6.798   4.671  17.391  0.00  0.00    +0.000 N 
ATOM      6  N   UNL     1       6.898   7.044  16.923  0.00  0.00    +0.000 NA
ATOM      7  N   UNL     1       7.332   8.277  17.184  0.00  0.00    +0.000 NA
ATOM      8  H   UNL     1       6.838   3.926  18.106  0.00  0.00    +0.000 HD
ENDROOT
BRANCH   1  12
ATOM      9  C   UNL     1       9.661  12.531  18.811  0.00  0.00    +0.000 A 
ATOM     10  C   UNL     1       8.773  12.267  17.767  0.00  0.00    +0.000 A 
ATOM     11  C   UNL     1       8.297  10.971  17.561  0.00  0.00    +0.000 A 
ATOM     12  C   UNL     1       8.686   9.920  18.416  0.00  0.00    +0.000 A 
ATOM     13  C   UNL     1       9.566  10.204  19.479  0.00  0.00    +0.000 A 
ATOM     14  C   UNL     1      10.060  11.500  19.663  0.00  0.00    +0.000 A 
ENDBRANCH   1  12
BRANCH   5  15
ATOM     15  C   UNL     1       6.553   4.290  16.014  0.00  0.00    +0.000 C 
BRANCH  15  16
ATOM     16  C   UNL     1       5.030   4.178  15.818  0.00  0.00    +0.000 C 
BRANCH  16  17
ATOM     17  C   UNL     1       4.293   3.445  16.945  0.00  0.00    +0.000 C 
BRANCH  17  18
ATOM     18  N   UNL     1       3.908   4.390  18.027  0.00  0.00    +0.000 NA
ATOM     19  C   UNL     1       3.992   3.850  19.406  0.00  0.00    +0.000 C 
ATOM     20  C   UNL     1       2.830   2.891  19.706  0.00  0.00    +0.000 C 
ATOM     21  O   UNL     1       1.590   3.548  19.532  0.00  0.00    +0.000 OA
ATOM     22  C   UNL     1       1.459   3.965  18.186  0.00  0.00    +0.000 C 
ATOM     23  C   UNL     1       2.566   4.970  17.817  0.00  0.00    +0.000 C 
ENDBRANCH  17  18
ENDBRANCH  16  17
ENDBRANCH  15  16
ENDBRANCH   5  15
TORSDOF 5
ENDMDL
MODEL 6
REMARK VINA RESULT:      -7.3      4.436      6.770
REMARK  Name = 
REMARK  5 active torsions:
REMARK  status: ('A' for Active; 'I' for Inactive)
REMARK    1  A    between atoms: C_4  and  C_5
REMARK    2  A    between atoms: N_9  and  C_10
REMARK    3  A    between atoms: C_10  and  C_11
REMARK    4  A    between atoms: C_11  and  C_12
REMARK    5  A    between atoms: C_12  and  N_13
REMARK                            x       y       z     vdW  Elec       q    Type
REMARK                         _______ _______ _______ _____ _____    ______ ____
ROOT
ATOM      1  C   UNL     1       4.313   5.035  18.552  0.00  0.00    +0.000 A 
ATOM      2  C   UNL     1       5.556   4.548  18.992  0.00  0.00    +0.000 A 
ATOM      3  C   UNL     1       6.719   5.233  18.654  0.00  0.00    +0.000 A 
ATOM      4  C   UNL     1       6.628   6.418  17.927  0.00  0.00    +0.000 A 
ATOM      5  N   UNL     1       7.793   7.196  17.676  0.00  0.00    +0.000 N 
ATOM      6  N   UNL     1       5.402   6.852  17.522  0.00  0.00    +0.000 NA
ATOM      7  N   UNL     1       4.291   6.169  17.800  0.00  0.00    +0.000 NA
ATOM      8  H   UNL     1       8.727   6.763  17.771  0.00  0.00    +0.000 HD
ENDROOT
BRANCH   1  12
ATOM      9  C   UNL     1       0.622   3.093  19.601  0.00  0.00    +0.000 A 
ATOM     10  C   UNL     1       1.349   2.653  18.493  0.00  0.00    +0.000 A 
ATOM     11  C   UNL     1       2.539   3.289  18.137  0.00  0.00    +0.000 A 
ATOM     12  C   UNL     1       3.034   4.365  18.902  0.00  0.00    +0.000 A 
ATOM     13  C   UNL     1       2.301   4.786  20.029  0.00  0.00    +0.000 A 
ATOM     14  C   UNL     1       1.095   4.160  20.365  0.00  0.00    +0.000 A 
ENDBRANCH   1  12
BRANCH   5  15
ATOM     15  C   UNL     1       7.714   8.636  17.535  0.00  0.00    +0.000 C 
BRANCH  15  16
ATOM     16  C   UNL     1       8.698   9.265  18.537  0.00  0.00    +0.000 C 
BRANCH  16  17
ATOM     17  C   UNL     1       8.928  10.769  18.350  0.00  0.00    +0.000 C 
BRANCH  17  18
ATOM     18  N   UNL     1      10.245  11.176  18.908  0.00  0.00    +0.000 NA
ATOM     19  C   UNL     1      10.188  12.108  20.062  0.00  0.00    +0.000 C 
ATOM     20  C   UNL     1       9.835  13.535  19.614  0.00  0.00    +0.000 C 
ATOM     21  O   UNL     1      10.781  14.005  18.673  0.00  0.00    +0.000 OA
ATOM     22  C   UNL     1      10.755  13.181  17.523  0.00  0.00    +0.000 C 
ATOM     23  C   UNL     1      11.145  11.734  17.880  0.00  0.00    +0.000 C 
ENDBRANCH  17  18
ENDBRANCH  16  17
ENDBRANCH  15  16
ENDBRANCH   5  15
TORSDOF 5
ENDMDL
MODEL 7
REMARK VINA RESULT:      -7.3      5.141      7.071
REMARK  Name = 
REMARK  5 active torsions:
REMARK  status: ('A' for Active; 'I' for Inactive)
REMARK    1  A    between atoms: C_4  and  C_5
REMARK    2  A    between atoms: N_9  and  C_10
REMARK    3  A    between atoms: C_10  and  C_11
REMARK    4  A    between atoms: C_11  and  C_12
REMARK    5  A    between atoms: C_12  and  N_13
REMARK                            x       y       z     vdW  Elec       q    Type
REMARK                         _______ _______ _______ _____ _____    ______ ____
ROOT
ATOM      1  C   UNL     1       8.123   8.390  18.242  0.00  0.00    +0.000 A 
ATOM      2  C   UNL     1       8.448   7.333  19.110  0.00  0.00    +0.000 A 
ATOM      3  C   UNL     1       7.924   6.066  18.872  0.00  0.00    +0.000 A 
ATOM      4  C   UNL     1       7.125   5.856  17.749  0.00  0.00    +0.000 A 
ATOM      5  N   UNL     1       6.680   4.545  17.423  0.00  0.00    +0.000 N 
ATOM      6  N   UNL     1       6.837   6.911  16.937  0.00  0.00    +0.000 NA
ATOM      7  N   UNL     1       7.296   8.137  17.192  0.00  0.00    +0.000 NA
ATOM      8  H   UNL     1       6.695   3.805  18.144  0.00  0.00    +0.000 HD
ENDROOT
BRANCH   1  12
ATOM      9  C   UNL     1       9.721  12.353  18.735  0.00  0.00    +0.000 A 
ATOM     10  C   UNL     1      10.108  11.334  19.607  0.00  0.00    +0.000 A 
ATOM     11  C   UNL     1       9.581  10.050  19.463  0.00  0.00    +0.000 A 
ATOM     12  C   UNL     1       8.672   9.759  18.425  0.00  0.00    +0.000 A 
ATOM     13  C   UNL     1       8.306  10.792  17.540  0.00  0.00    +0.000 A 
ATOM     14  C   UNL     1       8.818  12.083  17.706  0.00  0.00    +0.000 A 
ENDBRANCH   1  12
BRANCH   5  15
ATOM     15  C   UNL     1       6.441   4.158  16.047  0.00  0.00    +0.000 C 
BRANCH  15  16
ATOM     16  C   UNL     1       4.919   4.138  15.818  0.00  0.00    +0.000 C 
BRANCH  16  17
ATOM     17  C   UNL     1       4.079   4.320  17.088  0.00  0.00    +0.000 C 
BRANCH  17  18
ATOM     18  N   UNL     1       3.969   3.039  17.836  0.00  0.00    +0.000 NA
ATOM     19  C   UNL     1       2.702   2.293  17.639  0.00  0.00    +0.000 C 
ATOM     20  C   UNL     1       1.541   2.945  18.405  0.00  0.00    +0.000 C 
ATOM     21  O   UNL     1       1.838   3.014  19.786  0.00  0.00    +0.000 OA
ATOM     22  C   UNL     1       2.983   3.821  19.985  0.00  0.00    +0.000 C 
ATOM     23  C   UNL     1       4.209   3.209  19.283  0.00  0.00    +0.000 C 
ENDBRANCH  17  18
ENDBRANCH  16  17
ENDBRANCH  15  16
ENDBRANCH   5  15
TORSDOF 5
ENDMDL
MODEL 8
REMARK VINA RESULT:      -7.2      4.880      7.473
REMARK  Name = 
REMARK  5 active torsions:
REMARK  status: ('A' for Active; 'I' for Inactive)
REMARK    1  A    between atoms: C_4  and  C_5
REMARK    2  A    between atoms: N_9  and  C_10
REMARK    3  A    between atoms: C_10  and  C_11
REMARK    4  A    between atoms: C_11  and  C_12
REMARK    5  A    between atoms: C_12  and  N_13
REMARK                            x       y       z     vdW  Elec       q    Type
REMARK                         _______ _______ _______ _____ _____    ______ ____
ROOT
ATOM      1  C   UNL     1       5.105   5.204  18.025  0.00  0.00    +0.000 A 
ATOM      2  C   UNL     1       6.230   4.919  18.819  0.00  0.00    +0.000 A 
ATOM      3  C   UNL     1       7.322   5.781  18.793  0.00  0.00    +0.000 A 
ATOM      4  C   UNL     1       7.261   6.939  18.018  0.00  0.00    +0.000 A 
ATOM      5  N   UNL     1       8.316   7.893  18.073  0.00  0.00    +0.000 N 
ATOM      6  N   UNL     1       6.150   7.173  17.266  0.00  0.00    +0.000 NA
ATOM      7  N   UNL     1       5.124   6.321  17.249  0.00  0.00    +0.000 NA
ATOM      8  H   UNL     1       9.239   7.614  18.445  0.00  0.00    +0.000 HD
ENDROOT
BRANCH   1  12
ATOM      9  C   UNL     1       1.594   2.720  18.064  0.00  0.00    +0.000 A 
ATOM     10  C   UNL     1       2.860   2.136  18.142  0.00  0.00    +0.000 A 
ATOM     11  C   UNL     1       4.003   2.935  18.113  0.00  0.00    +0.000 A 
ATOM     12  C   UNL     1       3.897   4.338  18.029  0.00  0.00    +0.000 A 
ATOM     13  C   UNL     1       2.613   4.915  17.972  0.00  0.00    +0.000 A 
ATOM     14  C   UNL     1       1.471   4.107  17.975  0.00  0.00    +0.000 A 
ENDBRANCH   1  12
BRANCH   5  15
ATOM     15  C   UNL     1       8.061   9.302  17.852  0.00  0.00    +0.000 C 
BRANCH  15  16
ATOM     16  C   UNL     1       8.981  10.102  18.792  0.00  0.00    +0.000 C 
BRANCH  16  17
ATOM     17  C   UNL     1       9.911  11.094  18.084  0.00  0.00    +0.000 C 
BRANCH  17  18
ATOM     18  N   UNL     1      10.256  12.228  18.983  0.00  0.00    +0.000 NA
ATOM     19  C   UNL     1       9.121  13.101  19.373  0.00  0.00    +0.000 C 
ATOM     20  C   UNL     1       8.701  14.025  18.219  0.00  0.00    +0.000 C 
ATOM     21  O   UNL     1       9.791  14.824  17.805  0.00  0.00    +0.000 OA
ATOM     22  C   UNL     1      10.833  13.995  17.326  0.00  0.00    +0.000 C 
ATOM     23  C   UNL     1      11.345  13.065  18.442  0.00  0.00    +0.000 C 
ENDBRANCH  17  18
ENDBRANCH  16  17
ENDBRANCH  15  16
ENDBRANCH   5  15
TORSDOF 5
ENDMDL
MODEL 9
REMARK VINA RESULT:      -7.2      4.781      7.032
REMARK  Name = 
REMARK  5 active torsions:
REMARK  status: ('A' for Active; 'I' for Inactive)
REMARK    1  A    between atoms: C_4  and  C_5
REMARK    2  A    between atoms: N_9  and  C_10
REMARK    3  A    between atoms: C_10  and  C_11
REMARK    4  A    between atoms: C_11  and  C_12
REMARK    5  A    between atoms: C_12  and  N_13
REMARK                            x       y       z     vdW  Elec       q    Type
REMARK                         _______ _______ _______ _____ _____    ______ ____
ROOT
ATOM      1  C   UNL     1       8.190   8.669  18.199  0.00  0.00    +0.000 A 
ATOM      2  C   UNL     1       8.548   7.594  19.030  0.00  0.00    +0.000 A 
ATOM      3  C   UNL     1       8.019   6.331  18.782  0.00  0.00    +0.000 A 
ATOM      4  C   UNL     1       7.182   6.144  17.684  0.00  0.00    +0.000 A 
ATOM      5  N   UNL     1       6.729   4.838  17.343  0.00  0.00    +0.000 N 
ATOM      6  N   UNL     1       6.862   7.216  16.906  0.00  0.00    +0.000 NA
ATOM      7  N   UNL     1       7.326   8.437  17.173  0.00  0.00    +0.000 NA
ATOM      8  H   UNL     1       6.772   4.083  18.046  0.00  0.00    +0.000 HD
ENDROOT
BRANCH   1  12
ATOM      9  C   UNL     1       9.793  12.626  18.727  0.00  0.00    +0.000 A 
ATOM     10  C   UNL     1      10.223  11.585  19.552  0.00  0.00    +0.000 A 
ATOM     11  C   UNL     1       9.695  10.303  19.397  0.00  0.00    +0.000 A 
ATOM     12  C   UNL     1       8.741  10.036  18.394  0.00  0.00    +0.000 A 
ATOM     13  C   UNL     1       8.331  11.090  17.555  0.00  0.00    +0.000 A 
ATOM     14  C   UNL     1       8.845  12.379  17.732  0.00  0.00    +0.000 A 
ENDBRANCH   1  12
BRANCH   5  15
ATOM     15  C   UNL     1       6.443   4.483  15.968  0.00  0.00    +0.000 C 
BRANCH  15  16
ATOM     16  C   UNL     1       4.957   4.087  15.881  0.00  0.00    +0.000 C 
BRANCH  16  17
ATOM     17  C   UNL     1       4.436   3.294  17.085  0.00  0.00    +0.000 C 
BRANCH  17  18
ATOM     18  N   UNL     1       4.025   4.210  18.182  0.00  0.00    +0.000 NA
ATOM     19  C   UNL     1       3.672   3.552  19.464  0.00  0.00    +0.000 C 
ATOM     20  C   UNL     1       2.293   2.877  19.389  0.00  0.00    +0.000 C 
ATOM     21  O   UNL     1       1.298   3.825  19.055  0.00  0.00    +0.000 OA
ATOM     22  C   UNL     1       1.573   4.372  17.780  0.00  0.00    +0.000 C 
ATOM     23  C   UNL     1       2.925   5.110  17.784  0.00  0.00    +0.000 C 
ENDBRANCH  17  18
ENDBRANCH  16  17
ENDBRANCH  15  16
ENDBRANCH   5  15
TORSDOF 5
ENDMDL
