MODEL 1
REMARK VINA RESULT:      -7.5      0.000      0.000
REMARK  Name = 
REMARK  5 active torsions:
REMARK  status: ('A' for Active; 'I' for Inactive)
REMARK    1  A    between atoms: C_1  and  N_2
REMARK    2  A    between atoms: N_6  and  C_7
REMARK    3  A    between atoms: C_7  and  C_8
REMARK    4  A    between atoms: C_11  and  C_12
REMARK    5  A    between atoms: C_14  and  C_15
REMARK                            x       y       z     vdW  Elec       q    Type
REMARK                         _______ _______ _______ _____ _____    ______ ____
ROOT
ATOM      1  C   UNL     1       5.069   6.887  16.583  0.00  0.00    +0.000 C 
ATOM      2  N   UNL     1       4.761   5.474  16.645  0.00  0.00    +0.000 N 
ATOM      3  C   UNL     1       4.111   5.106  17.823  0.00  0.00    +0.000 A 
ATOM      4  N   UNL     1       3.341   6.008  18.431  0.00  0.00    +0.000 NA
ATOM      5  C   UNL     1       2.712   5.717  19.588  0.00  0.00    +0.000 A 
ATOM      6  N   UNL     1       2.005   6.703  20.250  0.00  0.00    +0.000 N 
ATOM      7  C   UNL     1       2.876   4.428  20.094  0.00  0.00    +0.000 A 
ATOM      8  S   UNL     1       2.226   3.702  21.513  0.00  0.00    +0.000 S 
ATOM      9  C   UNL     1       3.062   2.239  21.235  0.00  0.00    +0.000 A 
ATOM     10  C   UNL     1       3.825   2.293  20.090  0.00  0.00    +0.000 A 
ATOM     11  C   UNL     1       3.708   3.548  19.414  0.00  0.00    +0.000 A 
ATOM     12  N   UNL     1       4.345   3.869  18.267  0.00  0.00    +0.000 NA
ATOM     13  H   UNL     1       5.553   4.849  16.552  0.00  0.00    +0.000 HD
ATOM     14  H   UNL     1       1.279   6.412  20.890  0.00  0.00    +0.000 HD
ENDROOT
BRANCH   6  15
ATOM     15  C   UNL     1       1.937   8.021  19.659  0.00  0.00    +0.000 C 
BRANCH  15  16
ATOM     16  C   UNL     1       1.069   8.921  20.513  0.00  0.00    +0.000 A 
ATOM     17  C   UNL     1       1.089   8.748  21.907  0.00  0.00    +0.000 A 
ATOM     18  C   UNL     1       0.301   9.542  22.741  0.00  0.00    +0.000 A 
ATOM     19  C   UNL     1      -0.529  10.524  22.201  0.00  0.00    +0.000 A 
ATOM     20  C   UNL     1      -1.394  11.378  23.080  0.00  0.00    +0.000 C 
ATOM     21  C   UNL     1      -0.547  10.711  20.813  0.00  0.00    +0.000 A 
ATOM     22  C   UNL     1       0.255   9.935  19.959  0.00  0.00    +0.000 A 
ATOM     23  C   UNL     1       0.215  10.214  18.480  0.00  0.00    +0.000 C 
ENDBRANCH  15  16
ENDBRANCH   6  15
TORSDOF 2
ENDMDL
MODEL 2
REMARK VINA RESULT:      -7.3      1.200      1.200
REMARK  Name = 
REMARK  5 active torsions:
REMARK  status: ('A' for Active; 'I' for Inactive)
REMARK    1  A    between atoms: C_1  and  N_2
REMARK    2  A    between atoms: N_6  and  C_7
REMARK    3  A    between atoms: C_7  and  C_8
REMARK    4  A    between atoms: C_11  and  C_12
REMARK    5  A    between atoms: C_14  and  C_15
REMARK                            x       y       z     vdW  Elec       q    Type
REMARK                         _______ _______ _______ _____ _____    ______ ____
ROOT
ATOM      1  C   UNL     1       6.243   7.029  17.145  0.00  0.00    +0.000 C 
ATOM      2  N   UNL     1       5.802   5.758  16.610  0.00  0.00    +0.000 N 
ATOM      3  C   UNL     1       4.706   5.227  17.290  0.00  0.00    +0.000 A 
ATOM      4  N   UNL     1       3.848   6.070  17.866  0.00  0.00    +0.000 NA
ATOM      5  C   UNL     1       2.787   5.613  18.562  0.00  0.00    +0.000 A 
ATOM      6  N   UNL     1       1.974   6.505  19.235  0.00  0.00    +0.000 N 
ATOM      7  C   UNL     1       2.613   4.230  18.619  0.00  0.00    +0.000 A 
ATOM      8  S   UNL     1       1.386   3.299  19.387  0.00  0.00    +0.000 S 
ATOM      9  C   UNL     1       2.120   1.825  18.931  0.00  0.00    +0.000 A 
ATOM     10  C   UNL     1       3.276   2.028  18.211  0.00  0.00    +0.000 A 
ATOM     11  C   UNL     1       3.558   3.415  18.009  0.00  0.00    +0.000 A 
ATOM     12  N   UNL     1       4.624   3.896  17.336  0.00  0.00    +0.000 NA
ATOM     13  H   UNL     1       6.502   5.026  16.587  0.00  0.00    +0.000 HD
ATOM     14  H   UNL     1       1.029   6.213  19.445  0.00  0.00    +0.000 HD
ENDROOT
BRANCH   6  15
ATOM     15  C   UNL     1       2.272   7.917  19.145  0.00  0.00    +0.000 C 
BRANCH  15  16
ATOM     16  C   UNL     1       1.396   8.687  20.109  0.00  0.00    +0.000 A 
ATOM     17  C   UNL     1       1.525   8.433  21.485  0.00  0.00    +0.000 A 
ATOM     18  C   UNL     1       0.735   9.106  22.418  0.00  0.00    +0.000 A 
ATOM     19  C   UNL     1      -0.206  10.046  21.996  0.00  0.00    +0.000 A 
ATOM     20  C   UNL     1      -1.074  10.770  22.982  0.00  0.00    +0.000 C 
ATOM     21  C   UNL     1      -0.333  10.315  20.628  0.00  0.00    +0.000 A 
ATOM     22  C   UNL     1       0.468   9.661  19.676  0.00  0.00    +0.000 A 
ATOM     23  C   UNL     1       0.304  10.025  18.224  0.00  0.00    +0.000 C 
ENDBRANCH  15  16
ENDBRANCH   6  15
TORSDOF 2
ENDMDL
MODEL 3
REMARK VINA RESULT:      -7.3      2.360      3.930
REMARK  Name = 
REMARK  5 active torsions:
REMARK  status: ('A' for Active; 'I' for Inactive)
REMARK    1  A    between atoms: C_1  and  N_2
REMARK    2  A    between atoms: N_6  and  C_7
REMARK    3  A    between atoms: C_7  and  C_8
REMARK    4  A    between atoms: C_11  and  C_12
REMARK    5  A    between atoms: C_14  and  C_15
REMARK                            x       y       z     vdW  Elec       q    Type
REMARK                         _______ _______ _______ _____ _____    ______ ____
ROOT
ATOM      1  C   UNL     1       0.982   2.571  18.762  0.00  0.00    +0.000 C 
ATOM      2  N   UNL     1       2.293   2.090  18.382  0.00  0.00    +0.000 N 
ATOM      3  C   UNL     1       3.148   3.107  17.958  0.00  0.00    +0.000 A 
ATOM      4  N   UNL     1       2.980   4.330  18.464  0.00  0.00    +0.000 NA
ATOM      5  C   UNL     1       3.758   5.358  18.068  0.00  0.00    +0.000 A 
ATOM      6  N   UNL     1       3.495   6.633  18.530  0.00  0.00    +0.000 N 
ATOM      7  C   UNL     1       4.760   5.076  17.140  0.00  0.00    +0.000 A 
ATOM      8  S   UNL     1       5.935   6.113  16.428  0.00  0.00    +0.000 S 
ATOM      9  C   UNL     1       6.559   4.855  15.454  0.00  0.00    +0.000 A 
ATOM     10  C   UNL     1       5.891   3.669  15.657  0.00  0.00    +0.000 A 
ATOM     11  C   UNL     1       4.863   3.782  16.644  0.00  0.00    +0.000 A 
ATOM     12  N   UNL     1       4.058   2.773  17.040  0.00  0.00    +0.000 NA
ATOM     13  H   UNL     1       2.307   1.387  17.652  0.00  0.00    +0.000 HD
ATOM     14  H   UNL     1       4.252   7.303  18.519  0.00  0.00    +0.000 HD
ENDROOT
BRANCH   6  15
ATOM     15  C   UNL     1       2.400   6.821  19.457  0.00  0.00    +0.000 C 
BRANCH  15  16
ATOM     16  C   UNL     1       1.845   8.222  19.316  0.00  0.00    +0.000 A 
ATOM     17  C   UNL     1       2.033   8.901  18.100  0.00  0.00    +0.000 A 
ATOM     18  C   UNL     1       1.553  10.199  17.919  0.00  0.00    +0.000 A 
ATOM     19  C   UNL     1       0.876  10.849  18.951  0.00  0.00    +0.000 A 
ATOM     20  C   UNL     1       0.364  12.248  18.781  0.00  0.00    +0.000 C 
ATOM     21  C   UNL     1       0.673  10.176  20.162  0.00  0.00    +0.000 A 
ATOM     22  C   UNL     1       1.132   8.861  20.355  0.00  0.00    +0.000 A 
ATOM     23  C   UNL     1       0.848   8.184  21.669  0.00  0.00    +0.000 C 
ENDBRANCH  15  16
ENDBRANCH   6  15
TORSDOF 2
ENDMDL
MODEL 4
REMARK VINA RESULT:      -7.2      1.953      3.586
REMARK  Name = 
REMARK  5 active torsions:
REMARK  status: ('A' for Active; 'I' for Inactive)
REMARK    1  A    between atoms: C_1  and  N_2
REMARK    2  A    between atoms: N_6  and  C_7
REMARK    3  A    between atoms: C_7  and  C_8
REMARK    4  A    between atoms: C_11  and  C_12
REMARK    5  A    between atoms: C_14  and  C_15
REMARK                            x       y       z     vdW  Elec       q    Type
REMARK                         _______ _______ _______ _____ _____    ______ ____
ROOT
ATOM      1  C   UNL     1       1.309   3.144  21.115  0.00  0.00    +0.000 C 
ATOM      2  N   UNL     1       2.593   2.782  20.554  0.00  0.00    +0.000 N 
ATOM      3  C   UNL     1       3.098   3.740  19.675  0.00  0.00    +0.000 A 
ATOM      4  N   UNL     1       2.764   5.017  19.869  0.00  0.00    +0.000 NA
ATOM      5  C   UNL     1       3.198   5.982  19.033  0.00  0.00    +0.000 A 
ATOM      6  N   UNL     1       2.752   7.280  19.197  0.00  0.00    +0.000 N 
ATOM      7  C   UNL     1       4.034   5.590  17.989  0.00  0.00    +0.000 A 
ATOM      8  S   UNL     1       4.783   6.529  16.756  0.00  0.00    +0.000 S 
ATOM      9  C   UNL     1       5.469   5.148  16.020  0.00  0.00    +0.000 A 
ATOM     10  C   UNL     1       5.137   3.992  16.690  0.00  0.00    +0.000 A 
ATOM     11  C   UNL     1       4.325   4.240  17.840  0.00  0.00    +0.000 A 
ATOM     12  N   UNL     1       3.861   3.288  18.677  0.00  0.00    +0.000 NA
ATOM     13  H   UNL     1       2.620   1.899  20.055  0.00  0.00    +0.000 HD
ATOM     14  H   UNL     1       3.323   8.024  18.819  0.00  0.00    +0.000 HD
ENDROOT
BRANCH   6  15
ATOM     15  C   UNL     1       1.848   7.569  20.288  0.00  0.00    +0.000 C 
BRANCH  15  16
ATOM     16  C   UNL     1       1.066   8.829  19.985  0.00  0.00    +0.000 A 
ATOM     17  C   UNL     1       1.258   9.457  18.742  0.00  0.00    +0.000 A 
ATOM     18  C   UNL     1       0.571  10.627  18.414  0.00  0.00    +0.000 A 
ATOM     19  C   UNL     1      -0.320  11.198  19.322  0.00  0.00    +0.000 A 
ATOM     20  C   UNL     1      -1.057  12.463  18.994  0.00  0.00    +0.000 C 
ATOM     21  C   UNL     1      -0.526  10.573  20.558  0.00  0.00    +0.000 A 
ATOM     22  C   UNL     1       0.141   9.384  20.898  0.00  0.00    +0.000 A 
ATOM     23  C   UNL     1      -0.156   8.745  22.229  0.00  0.00    +0.000 C 
ENDBRANCH  15  16
ENDBRANCH   6  15
TORSDOF 2
ENDMDL
MODEL 5
REMARK VINA RESULT:      -7.1      4.010      7.982
REMARK  Name = 
REMARK  5 active torsions:
REMARK  status: ('A' for Active; 'I' for Inactive)
REMARK    1  A    between atoms: C_1  and  N_2
REMARK    2  A    between atoms: N_6  and  C_7
REMARK    3  A    between atoms: C_7  and  C_8
REMARK    4  A    between atoms: C_11  and  C_12
REMARK    5  A    between atoms: C_14  and  C_15
REMARK                            x       y       z     vdW  Elec       q    Type
REMARK                         _______ _______ _______ _____ _____    ______ ____
ROOT
ATOM      1  C   UNL     1      -0.276  13.070  21.490  0.00  0.00    +0.000 C 
ATOM      2  N   UNL     1      -1.645  12.679  21.232  0.00  0.00    +0.000 N 
ATOM      3  C   UNL     1      -1.805  12.015  20.016  0.00  0.00    +0.000 A 
ATOM      4  N   UNL     1      -0.782  11.304  19.541  0.00  0.00    +0.000 NA
ATOM      5  C   UNL     1      -0.870  10.667  18.356  0.00  0.00    +0.000 A 
ATOM      6  N   UNL     1       0.240  10.025  17.840  0.00  0.00    +0.000 N 
ATOM      7  C   UNL     1      -2.083  10.756  17.675  0.00  0.00    +0.000 A 
ATOM      8  S   UNL     1      -2.563  10.072  16.170  0.00  0.00    +0.000 S 
ATOM      9  C   UNL     1      -4.099  10.817  16.239  0.00  0.00    +0.000 A 
ATOM     10  C   UNL     1      -4.251  11.575  17.378  0.00  0.00    +0.000 A 
ATOM     11  C   UNL     1      -3.099  11.529  18.223  0.00  0.00    +0.000 A 
ATOM     12  N   UNL     1      -2.980  12.177  19.402  0.00  0.00    +0.000 NA
ATOM     13  H   UNL     1      -2.324  13.431  21.236  0.00  0.00    +0.000 HD
ATOM     14  H   UNL     1       0.085   9.286  17.167  0.00  0.00    +0.000 HD
ENDROOT
BRANCH   6  15
ATOM     15  C   UNL     1       1.464  10.032  18.610  0.00  0.00    +0.000 C 
BRANCH  15  16
ATOM     16  C   UNL     1       1.934   8.611  18.836  0.00  0.00    +0.000 A 
ATOM     17  C   UNL     1       2.649   7.967  17.811  0.00  0.00    +0.000 A 
ATOM     18  C   UNL     1       3.096   6.654  17.962  0.00  0.00    +0.000 A 
ATOM     19  C   UNL     1       2.836   5.952  19.138  0.00  0.00    +0.000 A 
ATOM     20  C   UNL     1       3.296   4.536  19.314  0.00  0.00    +0.000 C 
ATOM     21  C   UNL     1       2.134   6.589  20.170  0.00  0.00    +0.000 A 
ATOM     22  C   UNL     1       1.694   7.918  20.044  0.00  0.00    +0.000 A 
ATOM     23  C   UNL     1       0.978   8.553  21.206  0.00  0.00    +0.000 C 
ENDBRANCH  15  16
ENDBRANCH   6  15
TORSDOF 2
ENDMDL
MODEL 6
REMARK VINA RESULT:      -6.9      3.290      6.820
REMARK  Name = 
REMARK  5 active torsions:
REMARK  status: ('A' for Active; 'I' for Inactive)
REMARK    1  A    between atoms: C_1  and  N_2
REMARK    2  A    between atoms: N_6  and  C_7
REMARK    3  A    between atoms: C_7  and  C_8
REMARK    4  A    between atoms: C_11  and  C_12
REMARK    5  A    between atoms: C_14  and  C_15
REMARK                            x       y       z     vdW  Elec       q    Type
REMARK                         _______ _______ _______ _____ _____    ______ ____
ROOT
ATOM      1  C   UNL     1       3.057   8.177  17.806  0.00  0.00    +0.000 C 
ATOM      2  N   UNL     1       2.215   7.753  18.904  0.00  0.00    +0.000 N 
ATOM      3  C   UNL     1       2.530   6.478  19.376  0.00  0.00    +0.000 A 
ATOM      4  N   UNL     1       3.790   6.056  19.267  0.00  0.00    +0.000 NA
ATOM      5  C   UNL     1       4.146   4.822  19.679  0.00  0.00    +0.000 A 
ATOM      6  N   UNL     1       5.434   4.372  19.459  0.00  0.00    +0.000 N 
ATOM      7  C   UNL     1       3.151   4.031  20.251  0.00  0.00    +0.000 A 
ATOM      8  S   UNL     1       3.234   2.436  20.894  0.00  0.00    +0.000 S 
ATOM      9  C   UNL     1       1.560   2.408  21.232  0.00  0.00    +0.000 A 
ATOM     10  C   UNL     1       0.941   3.581  20.863  0.00  0.00    +0.000 A 
ATOM     11  C   UNL     1       1.857   4.532  20.314  0.00  0.00    +0.000 A 
ATOM     12  N   UNL     1       1.519   5.764  19.875  0.00  0.00    +0.000 NA
ATOM     13  H   UNL     1       1.219   7.746  18.715  0.00  0.00    +0.000 HD
ATOM     14  H   UNL     1       5.782   3.632  20.054  0.00  0.00    +0.000 HD
ENDROOT
BRANCH   6  15
ATOM     15  C   UNL     1       6.377   5.260  18.816  0.00  0.00    +0.000 C 
BRANCH  15  16
ATOM     16  C   UNL     1       6.400   4.991  17.327  0.00  0.00    +0.000 A 
ATOM     17  C   UNL     1       5.817   3.804  16.849  0.00  0.00    +0.000 A 
ATOM     18  C   UNL     1       5.819   3.500  15.487  0.00  0.00    +0.000 A 
ATOM     19  C   UNL     1       6.407   4.373  14.572  0.00  0.00    +0.000 A 
ATOM     20  C   UNL     1       6.431   4.057  13.106  0.00  0.00    +0.000 C 
ATOM     21  C   UNL     1       6.979   5.563  15.037  0.00  0.00    +0.000 A 
ATOM     22  C   UNL     1       6.968   5.896  16.402  0.00  0.00    +0.000 A 
ATOM     23  C   UNL     1       7.569   7.209  16.829  0.00  0.00    +0.000 C 
ENDBRANCH  15  16
ENDBRANCH   6  15
TORSDOF 2
ENDMDL
MODEL 7
REMARK VINA RESULT:      -6.9      2.129      3.335
REMARK  Name = 
REMARK  5 active torsions:
REMARK  status: ('A' for Active; 'I' for Inactive)
REMARK    1  A    between atoms: C_1  and  N_2
REMARK    2  A    between atoms: N_6  and  C_7
REMARK    3  A    between atoms: C_7  and  C_8
REMARK    4  A    between atoms: C_11  and  C_12
REMARK    5  A    between atoms: C_14  and  C_15
REMARK                            x       y       z     vdW  Elec       q    Type
REMARK                         _______ _______ _______ _____ _____    ______ ____
ROOT
ATOM      1  C   UNL     1       0.772   2.418  18.870  0.00  0.00    +0.000 C 
ATOM      2  N   UNL     1       2.112   2.036  18.477  0.00  0.00    +0.000 N 
ATOM      3  C   UNL     1       2.933   3.127  18.195  0.00  0.00    +0.000 A 
ATOM      4  N   UNL     1       2.700   4.277  18.829  0.00  0.00    +0.000 NA
ATOM      5  C   UNL     1       3.443   5.373  18.574  0.00  0.00    +0.000 A 
ATOM      6  N   UNL     1       3.114   6.577  19.168  0.00  0.00    +0.000 N 
ATOM      7  C   UNL     1       4.479   5.238  17.651  0.00  0.00    +0.000 A 
ATOM      8  S   UNL     1       5.627   6.395  17.094  0.00  0.00    +0.000 S 
ATOM      9  C   UNL     1       6.328   5.281  16.005  0.00  0.00    +0.000 A 
ATOM     10  C   UNL     1       5.706   4.054  16.054  0.00  0.00    +0.000 A 
ATOM     11  C   UNL     1       4.650   4.014  17.017  0.00  0.00    +0.000 A 
ATOM     12  N   UNL     1       3.879   2.935  17.273  0.00  0.00    +0.000 NA
ATOM     13  H   UNL     1       2.174   1.420  17.674  0.00  0.00    +0.000 HD
ATOM     14  H   UNL     1       3.842   7.273  19.255  0.00  0.00    +0.000 HD
ENDROOT
BRANCH   6  15
ATOM     15  C   UNL     1       1.990   6.615  20.077  0.00  0.00    +0.000 C 
BRANCH  15  16
ATOM     16  C   UNL     1       1.551   8.049  20.289  0.00  0.00    +0.000 A 
ATOM     17  C   UNL     1       1.277   8.483  21.597  0.00  0.00    +0.000 A 
ATOM     18  C   UNL     1       0.859   9.790  21.848  0.00  0.00    +0.000 A 
ATOM     19  C   UNL     1       0.701  10.693  20.797  0.00  0.00    +0.000 A 
ATOM     20  C   UNL     1       0.240  12.098  21.045  0.00  0.00    +0.000 C 
ATOM     21  C   UNL     1       0.983  10.273  19.491  0.00  0.00    +0.000 A 
ATOM     22  C   UNL     1       1.425   8.966  19.221  0.00  0.00    +0.000 A 
ATOM     23  C   UNL     1       1.745   8.592  17.798  0.00  0.00    +0.000 C 
ENDBRANCH  15  16
ENDBRANCH   6  15
TORSDOF 2
ENDMDL
MODEL 8
REMARK VINA RESULT:      -6.8      1.444      2.307
REMARK  Name = 
REMARK  5 active torsions:
REMARK  status: ('A' for Active; 'I' for Inactive)
REMARK    1  A    between atoms: C_1  and  N_2
REMARK    2  A    between atoms: N_6  and  C_7
REMARK    3  A    between atoms: C_7  and  C_8
REMARK    4  A    between atoms: C_11  and  C_12
REMARK    5  A    between atoms: C_14  and  C_15
REMARK                            x       y       z     vdW  Elec       q    Type
REMARK                         _______ _______ _______ _____ _____    ______ ____
ROOT
ATOM      1  C   UNL     1       5.832   6.878  17.279  0.00  0.00    +0.000 C 
ATOM      2  N   UNL     1       5.119   5.794  16.637  0.00  0.00    +0.000 N 
ATOM      3  C   UNL     1       4.094   5.269  17.425  0.00  0.00    +0.000 A 
ATOM      4  N   UNL     1       3.488   6.076  18.296  0.00  0.00    +0.000 NA
ATOM      5  C   UNL     1       2.512   5.616  19.105  0.00  0.00    +0.000 A 
ATOM      6  N   UNL     1       1.973   6.446  20.069  0.00  0.00    +0.000 N 
ATOM      7  C   UNL     1       2.146   4.278  18.962  0.00  0.00    +0.000 A 
ATOM      8  S   UNL     1       0.951   3.360  19.795  0.00  0.00    +0.000 S 
ATOM      9  C   UNL     1       1.364   1.929  18.957  0.00  0.00    +0.000 A 
ATOM     10  C   UNL     1       2.391   2.135  18.064  0.00  0.00    +0.000 A 
ATOM     11  C   UNL     1       2.836   3.494  18.046  0.00  0.00    +0.000 A 
ATOM     12  N   UNL     1       3.825   3.972  17.261  0.00  0.00    +0.000 NA
ATOM     13  H   UNL     1       5.687   5.005  16.350  0.00  0.00    +0.000 HD
ATOM     14  H   UNL     1       1.047   6.229  20.413  0.00  0.00    +0.000 HD
ENDROOT
BRANCH   6  15
ATOM     15  C   UNL     1       2.457   7.806  20.160  0.00  0.00    +0.000 C 
BRANCH  15  16
ATOM     16  C   UNL     1       1.357   8.769  19.765  0.00  0.00    +0.000 A 
ATOM     17  C   UNL     1       1.177   9.063  18.403  0.00  0.00    +0.000 A 
ATOM     18  C   UNL     1       0.186   9.952  17.984  0.00  0.00    +0.000 A 
ATOM     19  C   UNL     1      -0.646  10.569  18.918  0.00  0.00    +0.000 A 
ATOM     20  C   UNL     1      -1.708  11.537  18.488  0.00  0.00    +0.000 C 
ATOM     21  C   UNL     1      -0.482  10.273  20.276  0.00  0.00    +0.000 A 
ATOM     22  C   UNL     1       0.497   9.365  20.715  0.00  0.00    +0.000 A 
ATOM     23  C   UNL     1       0.594   9.065  22.187  0.00  0.00    +0.000 C 
ENDBRANCH  15  16
ENDBRANCH   6  15
TORSDOF 2
ENDMDL
MODEL 9
REMARK VINA RESULT:      -6.8      1.773      2.403
REMARK  Name = 
REMARK  5 active torsions:
REMARK  status: ('A' for Active; 'I' for Inactive)
REMARK    1  A    between atoms: C_1  and  N_2
REMARK    2  A    between atoms: N_6  and  C_7
REMARK    3  A    between atoms: C_7  and  C_8
REMARK    4  A    between atoms: C_11  and  C_12
REMARK    5  A    between atoms: C_14  and  C_15
REMARK                            x       y       z     vdW  Elec       q    Type
REMARK                         _______ _______ _______ _____ _____    ______ ____
ROOT
ATOM      1  C   UNL     1       6.795   6.673  17.210  0.00  0.00    +0.000 C 
ATOM      2  N   UNL     1       6.353   5.401  16.680  0.00  0.00    +0.000 N 
ATOM      3  C   UNL     1       5.110   5.003  17.173  0.00  0.00    +0.000 A 
ATOM      4  N   UNL     1       4.236   5.947  17.526  0.00  0.00    +0.000 NA
ATOM      5  C   UNL     1       3.032   5.621  18.038  0.00  0.00    +0.000 A 
ATOM      6  N   UNL     1       2.188   6.617  18.491  0.00  0.00    +0.000 N 
ATOM      7  C   UNL     1       2.733   4.263  18.144  0.00  0.00    +0.000 A 
ATOM      8  S   UNL     1       1.312   3.482  18.725  0.00  0.00    +0.000 S 
ATOM      9  C   UNL     1       1.989   1.929  18.503  0.00  0.00    +0.000 A 
ATOM     10  C   UNL     1       3.270   1.994  18.002  0.00  0.00    +0.000 A 
ATOM     11  C   UNL     1       3.700   3.338  17.773  0.00  0.00    +0.000 A 
ATOM     12  N   UNL     1       4.908   3.688  17.283  0.00  0.00    +0.000 NA
ATOM     13  H   UNL     1       6.980   4.620  16.832  0.00  0.00    +0.000 HD
ATOM     14  H   UNL     1       1.199   6.411  18.538  0.00  0.00    +0.000 HD
ENDROOT
BRANCH   6  15
ATOM     15  C   UNL     1       2.617   7.993  18.374  0.00  0.00    +0.000 C 
BRANCH  15  16
ATOM     16  C   UNL     1       1.513   8.915  18.847  0.00  0.00    +0.000 A 
ATOM     17  C   UNL     1       0.882   9.747  17.906  0.00  0.00    +0.000 A 
ATOM     18  C   UNL     1      -0.134  10.624  18.289  0.00  0.00    +0.000 A 
ATOM     19  C   UNL     1      -0.540  10.692  19.621  0.00  0.00    +0.000 A 
ATOM     20  C   UNL     1      -1.620  11.638  20.055  0.00  0.00    +0.000 C 
ATOM     21  C   UNL     1       0.074   9.858  20.564  0.00  0.00    +0.000 A 
ATOM     22  C   UNL     1       1.085   8.955  20.193  0.00  0.00    +0.000 A 
ATOM     23  C   UNL     1       1.677   8.061  21.251  0.00  0.00    +0.000 C 
ENDBRANCH  15  16
ENDBRANCH   6  15
TORSDOF 2
ENDMDL
