MODEL 1
REMARK VINA RESULT:      -8.8      0.000      0.000
REMARK  Name = 
REMARK  6 active torsions:
REMARK  status: ('A' for Active; 'I' for Inactive)
REMARK    1  A    between atoms: C_1  and  C_2
REMARK    2  A    between atoms: C_4  and  C_5
REMARK    3  A    between atoms: C_12  and  C_13
REMARK    4  A    between atoms: C_13  and  O_15
REMARK    5  A    between atoms: C_22  and  C_23
REMARK    6  A    between atoms: C_25  and  C_26
REMARK                            x       y       z     vdW  Elec       q    Type
REMARK                         _______ _______ _______ _____ _____    ______ ____
ROOT
ATOM      1  C   UNL     1       2.077   8.241  19.039  0.00  0.00    +0.000 A 
ATOM      2  C   UNL     1       2.700   8.845  17.931  0.00  0.00    +0.000 A 
ATOM      3  F   UNL     1       2.418  10.107  17.580  0.00  0.00    +0.000 F 
ATOM      4  C   UNL     1       3.641   8.184  17.159  0.00  0.00    +0.000 A 
ATOM      5  C   UNL     1       4.008   6.886  17.500  0.00  0.00    +0.000 A 
ATOM      6  C   UNL     1       5.019   6.200  16.669  0.00  0.00    +0.000 A 
ATOM      7  O   UNL     1       5.513   6.742  15.679  0.00  0.00    +0.000 OA
ATOM      8  C   UNL     1       5.436   4.843  17.047  0.00  0.00    +0.000 A 
ATOM      9  C   UNL     1       4.839   4.311  18.128  0.00  0.00    +0.000 A 
ATOM     10  N   UNL     1       3.847   4.900  18.903  0.00  0.00    +0.000 N 
ATOM     11  C   UNL     1       3.437   6.214  18.601  0.00  0.00    +0.000 A 
ATOM     12  C   UNL     1       2.455   6.894  19.336  0.00  0.00    +0.000 A 
ATOM     13  O   UNL     1       1.750   6.275  20.332  0.00  0.00    +0.000 OA
ATOM     14  C   UNL     1       2.250   5.067  20.875  0.00  0.00    +0.000 C 
ATOM     15  C   UNL     1       3.220   4.218  20.043  0.00  0.00    +0.000 C 
ATOM     16  C   UNL     1       2.508   2.940  19.585  0.00  0.00    +0.000 C 
ENDROOT
BRANCH   1  20
ATOM     17  C   UNL     1      -0.053   9.491  23.437  0.00  0.00    +0.000 C 
ATOM     18  C   UNL     1       0.046   9.619  21.945  0.00  0.00    +0.000 A 
ATOM     19  C   UNL     1       1.021   8.924  21.237  0.00  0.00    +0.000 A 
ATOM     20  C   UNL     1       1.061   8.993  19.837  0.00  0.00    +0.000 A 
ATOM     21  C   UNL     1       0.083   9.800  19.233  0.00  0.00    +0.000 A 
ATOM     22  C   UNL     1      -0.820  10.520  20.005  0.00  0.00    +0.000 A 
ATOM     23  C   UNL     1      -1.793  11.460  19.362  0.00  0.00    +0.000 C 
ATOM     24  N   UNL     1      -0.860  10.424  21.349  0.00  0.00    +0.000 NA
ENDBRANCH   1  20
BRANCH   8  25
ATOM     25  C   UNL     1       6.437   4.058  16.300  0.00  0.00    +0.000 C 
ATOM     26  O   UNL     1       7.624   4.344  16.277  0.00  0.00    +0.000 OA
BRANCH  25  27
ATOM     27  O   UNL     1       5.943   3.006  15.640  0.00  0.00    +0.000 OA
ATOM     28  H   UNL     1       5.917   3.107  14.656  0.00  0.00    +0.000 HD
ENDBRANCH  25  27
ENDBRANCH   8  25
TORSDOF 3
ENDMDL
MODEL 2
REMARK VINA RESULT:      -8.8      0.018      1.599
REMARK  Name = 
REMARK  6 active torsions:
REMARK  status: ('A' for Active; 'I' for Inactive)
REMARK    1  A    between atoms: C_1  and  C_2
REMARK    2  A    between atoms: C_4  and  C_5
REMARK    3  A    between atoms: C_12  and  C_13
REMARK    4  A    between atoms: C_13  and  O_15
REMARK    5  A    between atoms: C_22  and  C_23
REMARK    6  A    between atoms: C_25  and  C_26
REMARK                            x       y       z     vdW  Elec       q    Type
REMARK                         _______ _______ _______ _____ _____    ______ ____
ROOT
ATOM      1  C   UNL     1       2.068   8.248  19.043  0.00  0.00    +0.000 A 
ATOM      2  C   UNL     1       2.694   8.850  17.936  0.00  0.00    +0.000 A 
ATOM      3  F   UNL     1       2.415  10.112  17.583  0.00  0.00    +0.000 F 
ATOM      4  C   UNL     1       3.635   8.186  17.166  0.00  0.00    +0.000 A 
ATOM      5  C   UNL     1       3.999   6.887  17.508  0.00  0.00    +0.000 A 
ATOM      6  C   UNL     1       5.009   6.199  16.679  0.00  0.00    +0.000 A 
ATOM      7  O   UNL     1       5.506   6.738  15.689  0.00  0.00    +0.000 OA
ATOM      8  C   UNL     1       5.423   4.841  17.060  0.00  0.00    +0.000 A 
ATOM      9  C   UNL     1       4.823   4.311  18.141  0.00  0.00    +0.000 A 
ATOM     10  N   UNL     1       3.832   4.904  18.913  0.00  0.00    +0.000 N 
ATOM     11  C   UNL     1       3.424   6.218  18.609  0.00  0.00    +0.000 A 
ATOM     12  C   UNL     1       2.443   6.901  19.343  0.00  0.00    +0.000 A 
ATOM     13  O   UNL     1       1.736   6.285  20.338  0.00  0.00    +0.000 OA
ATOM     14  C   UNL     1       2.232   5.077  20.883  0.00  0.00    +0.000 C 
ATOM     15  C   UNL     1       3.202   4.224  20.054  0.00  0.00    +0.000 C 
ATOM     16  C   UNL     1       2.487   2.947  19.596  0.00  0.00    +0.000 C 
ENDROOT
BRANCH   1  20
ATOM     17  C   UNL     1      -1.811  11.456  19.361  0.00  0.00    +0.000 C 
ATOM     18  C   UNL     1      -0.825  10.524  20.001  0.00  0.00    +0.000 A 
ATOM     19  C   UNL     1       0.089   9.817  19.227  0.00  0.00    +0.000 A 
ATOM     20  C   UNL     1       1.053   9.004  19.840  0.00  0.00    +0.000 A 
ATOM     21  C   UNL     1       1.013   8.953  21.242  0.00  0.00    +0.000 A 
ATOM     22  C   UNL     1       0.031   9.633  21.951  0.00  0.00    +0.000 A 
ATOM     23  C   UNL     1      -0.072   9.493  23.438  0.00  0.00    +0.000 C 
ATOM     24  N   UNL     1      -0.874  10.430  21.348  0.00  0.00    +0.000 NA
ENDBRANCH   1  20
BRANCH   8  25
ATOM     25  C   UNL     1       6.423   4.053  16.315  0.00  0.00    +0.000 C 
ATOM     26  O   UNL     1       7.612   4.331  16.300  0.00  0.00    +0.000 OA
BRANCH  25  27
ATOM     27  O   UNL     1       5.925   3.007  15.647  0.00  0.00    +0.000 OA
ATOM     28  H   UNL     1       6.601   2.451  15.185  0.00  0.00    +0.000 HD
ENDBRANCH  25  27
ENDBRANCH   8  25
TORSDOF 3
ENDMDL
MODEL 3
REMARK VINA RESULT:      -7.9      2.372      3.919
REMARK  Name = 
REMARK  6 active torsions:
REMARK  status: ('A' for Active; 'I' for Inactive)
REMARK    1  A    between atoms: C_1  and  C_2
REMARK    2  A    between atoms: C_4  and  C_5
REMARK    3  A    between atoms: C_12  and  C_13
REMARK    4  A    between atoms: C_13  and  O_15
REMARK    5  A    between atoms: C_22  and  C_23
REMARK    6  A    between atoms: C_25  and  C_26
REMARK                            x       y       z     vdW  Elec       q    Type
REMARK                         _______ _______ _______ _____ _____    ______ ____
ROOT
ATOM      1  C   UNL     1       1.445   8.212  19.762  0.00  0.00    +0.000 A 
ATOM      2  C   UNL     1       0.954   7.425  20.820  0.00  0.00    +0.000 A 
ATOM      3  F   UNL     1       0.009   7.889  21.648  0.00  0.00    +0.000 F 
ATOM      4  C   UNL     1       1.402   6.135  21.054  0.00  0.00    +0.000 A 
ATOM      5  C   UNL     1       2.352   5.581  20.202  0.00  0.00    +0.000 A 
ATOM      6  C   UNL     1       2.811   4.202  20.463  0.00  0.00    +0.000 A 
ATOM      7  O   UNL     1       2.394   3.555  21.425  0.00  0.00    +0.000 OA
ATOM      8  C   UNL     1       3.787   3.600  19.543  0.00  0.00    +0.000 A 
ATOM      9  C   UNL     1       4.211   4.374  18.528  0.00  0.00    +0.000 A 
ATOM     10  N   UNL     1       3.845   5.691  18.279  0.00  0.00    +0.000 N 
ATOM     11  C   UNL     1       2.888   6.302  19.113  0.00  0.00    +0.000 A 
ATOM     12  C   UNL     1       2.446   7.620  18.929  0.00  0.00    +0.000 A 
ATOM     13  O   UNL     1       3.008   8.437  17.987  0.00  0.00    +0.000 OA
ATOM     14  C   UNL     1       3.778   7.858  16.951  0.00  0.00    +0.000 C 
ATOM     15  C   UNL     1       4.400   6.472  17.166  0.00  0.00    +0.000 C 
ATOM     16  C   UNL     1       5.920   6.616  17.309  0.00  0.00    +0.000 C 
ENDROOT
BRANCH   1  20
ATOM     17  C   UNL     1      -1.778  11.476  17.667  0.00  0.00    +0.000 C 
ATOM     18  C   UNL     1      -0.621  11.176  18.573  0.00  0.00    +0.000 A 
ATOM     19  C   UNL     1      -0.190   9.867  18.763  0.00  0.00    +0.000 A 
ATOM     20  C   UNL     1       0.936   9.602  19.555  0.00  0.00    +0.000 A 
ATOM     21  C   UNL     1       1.560  10.721  20.129  0.00  0.00    +0.000 A 
ATOM     22  C   UNL     1       1.037  11.996  19.953  0.00  0.00    +0.000 A 
ATOM     23  C   UNL     1       1.645  13.173  20.651  0.00  0.00    +0.000 C 
ATOM     24  N   UNL     1      -0.032  12.236  19.168  0.00  0.00    +0.000 NA
ENDBRANCH   1  20
BRANCH   8  25
ATOM     25  C   UNL     1       4.319   2.233  19.697  0.00  0.00    +0.000 C 
ATOM     26  O   UNL     1       5.043   1.901  20.623  0.00  0.00    +0.000 OA
BRANCH  25  27
ATOM     27  O   UNL     1       3.949   1.379  18.737  0.00  0.00    +0.000 OA
ATOM     28  H   UNL     1       3.132   0.858  18.938  0.00  0.00    +0.000 HD
ENDBRANCH  25  27
ENDBRANCH   8  25
TORSDOF 3
ENDMDL
MODEL 4
REMARK VINA RESULT:      -7.9      2.369      3.704
REMARK  Name = 
REMARK  6 active torsions:
REMARK  status: ('A' for Active; 'I' for Inactive)
REMARK    1  A    between atoms: C_1  and  C_2
REMARK    2  A    between atoms: C_4  and  C_5
REMARK    3  A    between atoms: C_12  and  C_13
REMARK    4  A    between atoms: C_13  and  O_15
REMARK    5  A    between atoms: C_22  and  C_23
REMARK    6  A    between atoms: C_25  and  C_26
REMARK                            x       y       z     vdW  Elec       q    Type
REMARK                         _______ _______ _______ _____ _____    ______ ____
ROOT
ATOM      1  C   UNL     1       1.446   8.205  19.762  0.00  0.00    +0.000 A 
ATOM      2  C   UNL     1       0.953   7.413  20.815  0.00  0.00    +0.000 A 
ATOM      3  F   UNL     1       0.004   7.871  21.642  0.00  0.00    +0.000 F 
ATOM      4  C   UNL     1       1.404   6.124  21.047  0.00  0.00    +0.000 A 
ATOM      5  C   UNL     1       2.359   5.576  20.195  0.00  0.00    +0.000 A 
ATOM      6  C   UNL     1       2.822   4.197  20.453  0.00  0.00    +0.000 A 
ATOM      7  O   UNL     1       2.403   3.546  21.411  0.00  0.00    +0.000 OA
ATOM      8  C   UNL     1       3.803   3.602  19.534  0.00  0.00    +0.000 A 
ATOM      9  C   UNL     1       4.228   4.381  18.524  0.00  0.00    +0.000 A 
ATOM     10  N   UNL     1       3.859   5.697  18.278  0.00  0.00    +0.000 N 
ATOM     11  C   UNL     1       2.896   6.302  19.111  0.00  0.00    +0.000 A 
ATOM     12  C   UNL     1       2.451   7.619  18.930  0.00  0.00    +0.000 A 
ATOM     13  O   UNL     1       3.014   8.442  17.993  0.00  0.00    +0.000 OA
ATOM     14  C   UNL     1       3.790   7.870  16.957  0.00  0.00    +0.000 C 
ATOM     15  C   UNL     1       4.415   6.484  17.169  0.00  0.00    +0.000 C 
ATOM     16  C   UNL     1       5.934   6.633  17.319  0.00  0.00    +0.000 C 
ENDROOT
BRANCH   1  20
ATOM     17  C   UNL     1       1.652  13.170  20.630  0.00  0.00    +0.000 C 
ATOM     18  C   UNL     1       1.037  11.983  19.949  0.00  0.00    +0.000 A 
ATOM     19  C   UNL     1       1.557  10.707  20.141  0.00  0.00    +0.000 A 
ATOM     20  C   UNL     1       0.933   9.595  19.558  0.00  0.00    +0.000 A 
ATOM     21  C   UNL     1      -0.207   9.866  18.784  0.00  0.00    +0.000 A 
ATOM     22  C   UNL     1      -0.633  11.171  18.579  0.00  0.00    +0.000 A 
ATOM     23  C   UNL     1      -1.786  11.463  17.668  0.00  0.00    +0.000 C 
ATOM     24  N   UNL     1      -0.036  12.228  19.166  0.00  0.00    +0.000 NA
ENDBRANCH   1  20
BRANCH   8  25
ATOM     25  C   UNL     1       4.338   2.236  19.685  0.00  0.00    +0.000 C 
ATOM     26  O   UNL     1       5.059   1.903  20.613  0.00  0.00    +0.000 OA
BRANCH  25  27
ATOM     27  O   UNL     1       3.976   1.384  18.721  0.00  0.00    +0.000 OA
ATOM     28  H   UNL     1       3.045   1.054  18.787  0.00  0.00    +0.000 HD
ENDBRANCH  25  27
ENDBRANCH   8  25
TORSDOF 3
ENDMDL
MODEL 5
REMARK VINA RESULT:      -7.6      3.138      8.138
REMARK  Name = 
REMARK  6 active torsions:
REMARK  status: ('A' for Active; 'I' for Inactive)
REMARK    1  A    between atoms: C_1  and  C_2
REMARK    2  A    between atoms: C_4  and  C_5
REMARK    3  A    between atoms: C_12  and  C_13
REMARK    4  A    between atoms: C_13  and  O_15
REMARK    5  A    between atoms: C_22  and  C_23
REMARK    6  A    between atoms: C_25  and  C_26
REMARK                            x       y       z     vdW  Elec       q    Type
REMARK                         _______ _______ _______ _____ _____    ______ ____
ROOT
ATOM      1  C   UNL     1       1.919   7.647  19.657  0.00  0.00    +0.000 A 
ATOM      2  C   UNL     1       1.427   7.138  20.873  0.00  0.00    +0.000 A 
ATOM      3  F   UNL     1       1.646   5.866  21.232  0.00  0.00    +0.000 F 
ATOM      4  C   UNL     1       0.710   7.917  21.766  0.00  0.00    +0.000 A 
ATOM      5  C   UNL     1       0.486   9.258  21.470  0.00  0.00    +0.000 A 
ATOM      6  C   UNL     1      -0.273  10.075  22.438  0.00  0.00    +0.000 A 
ATOM      7  O   UNL     1      -0.729   9.588  23.474  0.00  0.00    +0.000 OA
ATOM      8  C   UNL     1      -0.479  11.501  22.145  0.00  0.00    +0.000 A 
ATOM      9  C   UNL     1       0.030  11.955  20.987  0.00  0.00    +0.000 A 
ATOM     10  N   UNL     1       0.703  11.210  20.027  0.00  0.00    +0.000 N 
ATOM     11  C   UNL     1       0.954   9.846  20.275  0.00  0.00    +0.000 A 
ATOM     12  C   UNL     1       1.638   9.020  19.372  0.00  0.00    +0.000 A 
ATOM     13  O   UNL     1       2.008   9.467  18.133  0.00  0.00    +0.000 OA
ATOM     14  C   UNL     1       2.032  10.860  17.887  0.00  0.00    +0.000 C 
ATOM     15  C   UNL     1       1.184  11.790  18.766  0.00  0.00    +0.000 C 
ATOM     16  C   UNL     1       0.014  12.338  17.940  0.00  0.00    +0.000 C 
ENDROOT
BRANCH   1  20
ATOM     17  C   UNL     1       5.814   6.786  16.570  0.00  0.00    +0.000 C 
ATOM     18  C   UNL     1       4.560   6.331  17.256  0.00  0.00    +0.000 A 
ATOM     19  C   UNL     1       3.890   7.170  18.140  0.00  0.00    +0.000 A 
ATOM     20  C   UNL     1       2.681   6.763  18.721  0.00  0.00    +0.000 A 
ATOM     21  C   UNL     1       2.226   5.485  18.362  0.00  0.00    +0.000 A 
ATOM     22  C   UNL     1       2.978   4.671  17.525  0.00  0.00    +0.000 A 
ATOM     23  C   UNL     1       2.540   3.270  17.227  0.00  0.00    +0.000 C 
ATOM     24  N   UNL     1       4.127   5.087  16.955  0.00  0.00    +0.000 NA
ENDBRANCH   1  20
BRANCH   8  25
ATOM     25  C   UNL     1      -1.218  12.418  23.034  0.00  0.00    +0.000 C 
ATOM     26  O   UNL     1      -0.741  13.458  23.461  0.00  0.00    +0.000 OA
BRANCH  25  27
ATOM     27  O   UNL     1      -2.456  12.019  23.344  0.00  0.00    +0.000 OA
ATOM     28  H   UNL     1      -3.113  12.100  22.609  0.00  0.00    +0.000 HD
ENDBRANCH  25  27
ENDBRANCH   8  25
TORSDOF 3
ENDMDL
MODEL 6
REMARK VINA RESULT:      -7.6      3.144      8.121
REMARK  Name = 
REMARK  6 active torsions:
REMARK  status: ('A' for Active; 'I' for Inactive)
REMARK    1  A    between atoms: C_1  and  C_2
REMARK    2  A    between atoms: C_4  and  C_5
REMARK    3  A    between atoms: C_12  and  C_13
REMARK    4  A    between atoms: C_13  and  O_15
REMARK    5  A    between atoms: C_22  and  C_23
REMARK    6  A    between atoms: C_25  and  C_26
REMARK                            x       y       z     vdW  Elec       q    Type
REMARK                         _______ _______ _______ _____ _____    ______ ____
ROOT
ATOM      1  C   UNL     1       1.906   7.658  19.669  0.00  0.00    +0.000 A 
ATOM      2  C   UNL     1       1.414   7.152  20.887  0.00  0.00    +0.000 A 
ATOM      3  F   UNL     1       1.632   5.881  21.248  0.00  0.00    +0.000 F 
ATOM      4  C   UNL     1       0.697   7.934  21.778  0.00  0.00    +0.000 A 
ATOM      5  C   UNL     1       0.475   9.275  21.479  0.00  0.00    +0.000 A 
ATOM      6  C   UNL     1      -0.285  10.094  22.445  0.00  0.00    +0.000 A 
ATOM      7  O   UNL     1      -0.741   9.610  23.482  0.00  0.00    +0.000 OA
ATOM      8  C   UNL     1      -0.489  11.519  22.149  0.00  0.00    +0.000 A 
ATOM      9  C   UNL     1       0.021  11.971  20.990  0.00  0.00    +0.000 A 
ATOM     10  N   UNL     1       0.693  11.223  20.032  0.00  0.00    +0.000 N 
ATOM     11  C   UNL     1       0.943   9.859  20.283  0.00  0.00    +0.000 A 
ATOM     12  C   UNL     1       1.627   9.031  19.382  0.00  0.00    +0.000 A 
ATOM     13  O   UNL     1       1.997   9.474  18.142  0.00  0.00    +0.000 OA
ATOM     14  C   UNL     1       2.023  10.868  17.893  0.00  0.00    +0.000 C 
ATOM     15  C   UNL     1       1.176  11.800  18.770  0.00  0.00    +0.000 C 
ATOM     16  C   UNL     1       0.007  12.347  17.942  0.00  0.00    +0.000 C 
ENDROOT
BRANCH   1  20
ATOM     17  C   UNL     1       2.522   3.282  17.237  0.00  0.00    +0.000 C 
ATOM     18  C   UNL     1       2.960   4.684  17.545  0.00  0.00    +0.000 A 
ATOM     19  C   UNL     1       2.213   5.490  18.398  0.00  0.00    +0.000 A 
ATOM     20  C   UNL     1       2.668   6.772  18.736  0.00  0.00    +0.000 A 
ATOM     21  C   UNL     1       3.884   7.166  18.157  0.00  0.00    +0.000 A 
ATOM     22  C   UNL     1       4.546   6.336  17.260  0.00  0.00    +0.000 A 
ATOM     23  C   UNL     1       5.788   6.802  16.565  0.00  0.00    +0.000 C 
ATOM     24  N   UNL     1       4.108   5.096  16.964  0.00  0.00    +0.000 NA
ENDBRANCH   1  20
BRANCH   8  25
ATOM     25  C   UNL     1      -1.227  12.439  23.036  0.00  0.00    +0.000 C 
ATOM     26  O   UNL     1      -0.744  13.471  23.474  0.00  0.00    +0.000 OA
BRANCH  25  27
ATOM     27  O   UNL     1      -2.472  12.052  23.330  0.00  0.00    +0.000 OA
ATOM     28  H   UNL     1      -2.565  11.569  24.189  0.00  0.00    +0.000 HD
ENDBRANCH  25  27
ENDBRANCH   8  25
TORSDOF 3
ENDMDL
MODEL 7
REMARK VINA RESULT:      -7.5      3.632      6.134
REMARK  Name = 
REMARK  6 active torsions:
REMARK  status: ('A' for Active; 'I' for Inactive)
REMARK    1  A    between atoms: C_1  and  C_2
REMARK    2  A    between atoms: C_4  and  C_5
REMARK    3  A    between atoms: C_12  and  C_13
REMARK    4  A    between atoms: C_13  and  O_15
REMARK    5  A    between atoms: C_22  and  C_23
REMARK    6  A    between atoms: C_25  and  C_26
REMARK                            x       y       z     vdW  Elec       q    Type
REMARK                         _______ _______ _______ _____ _____    ______ ____
ROOT
ATOM      1  C   UNL     1      -0.678  11.264  22.052  0.00  0.00    +0.000 A 
ATOM      2  C   UNL     1      -0.540   9.983  22.617  0.00  0.00    +0.000 A 
ATOM      3  F   UNL     1      -1.117   9.675  23.786  0.00  0.00    +0.000 F 
ATOM      4  C   UNL     1       0.177   8.973  21.997  0.00  0.00    +0.000 A 
ATOM      5  C   UNL     1       0.764   9.218  20.759  0.00  0.00    +0.000 A 
ATOM      6  C   UNL     1       1.519   8.127  20.111  0.00  0.00    +0.000 A 
ATOM      7  O   UNL     1       1.658   7.029  20.653  0.00  0.00    +0.000 OA
ATOM      8  C   UNL     1       2.108   8.371  18.786  0.00  0.00    +0.000 A 
ATOM      9  C   UNL     1       1.931   9.598  18.267  0.00  0.00    +0.000 A 
ATOM     10  N   UNL     1       1.275  10.666  18.867  0.00  0.00    +0.000 N 
ATOM     11  C   UNL     1       0.665  10.473  20.122  0.00  0.00    +0.000 A 
ATOM     12  C   UNL     1      -0.032  11.487  20.795  0.00  0.00    +0.000 A 
ATOM     13  O   UNL     1      -0.063  12.770  20.321  0.00  0.00    +0.000 OA
ATOM     14  C   UNL     1       0.290  13.009  18.971  0.00  0.00    +0.000 C 
ATOM     15  C   UNL     1       1.172  11.989  18.237  0.00  0.00    +0.000 C 
ATOM     16  C   UNL     1       2.564  12.593  18.013  0.00  0.00    +0.000 C 
ENDROOT
BRANCH   1  20
ATOM     17  C   UNL     1      -5.004  13.095  23.888  0.00  0.00    +0.000 C 
ATOM     18  C   UNL     1      -3.524  13.201  23.670  0.00  0.00    +0.000 A 
ATOM     19  C   UNL     1      -2.826  12.184  23.026  0.00  0.00    +0.000 A 
ATOM     20  C   UNL     1      -1.457  12.324  22.763  0.00  0.00    +0.000 A 
ATOM     21  C   UNL     1      -0.866  13.521  23.198  0.00  0.00    +0.000 A 
ATOM     22  C   UNL     1      -1.607  14.468  23.894  0.00  0.00    +0.000 A 
ATOM     23  C   UNL     1      -0.951  15.696  24.445  0.00  0.00    +0.000 C 
ATOM     24  N   UNL     1      -2.930  14.329  24.117  0.00  0.00    +0.000 NA
ENDBRANCH   1  20
BRANCH   8  25
ATOM     25  C   UNL     1       2.881   7.361  18.038  0.00  0.00    +0.000 C 
ATOM     26  O   UNL     1       3.921   7.618  17.453  0.00  0.00    +0.000 OA
BRANCH  25  27
ATOM     27  O   UNL     1       2.349   6.134  18.045  0.00  0.00    +0.000 OA
ATOM     28  H   UNL     1       2.844   5.465  17.510  0.00  0.00    +0.000 HD
ENDBRANCH  25  27
ENDBRANCH   8  25
TORSDOF 3
ENDMDL
MODEL 8
REMARK VINA RESULT:      -7.5      3.034      7.373
REMARK  Name = 
REMARK  6 active torsions:
REMARK  status: ('A' for Active; 'I' for Inactive)
REMARK    1  A    between atoms: C_1  and  C_2
REMARK    2  A    between atoms: C_4  and  C_5
REMARK    3  A    between atoms: C_12  and  C_13
REMARK    4  A    between atoms: C_13  and  O_15
REMARK    5  A    between atoms: C_22  and  C_23
REMARK    6  A    between atoms: C_25  and  C_26
REMARK                            x       y       z     vdW  Elec       q    Type
REMARK                         _______ _______ _______ _____ _____    ______ ____
ROOT
ATOM      1  C   UNL     1       2.165   7.730  18.879  0.00  0.00    +0.000 A 
ATOM      2  C   UNL     1       2.541   8.633  17.867  0.00  0.00    +0.000 A 
ATOM      3  F   UNL     1       3.308   8.244  16.840  0.00  0.00    +0.000 F 
ATOM      4  C   UNL     1       2.131   9.957  17.866  0.00  0.00    +0.000 A 
ATOM      5  C   UNL     1       1.296  10.410  18.884  0.00  0.00    +0.000 A 
ATOM      6  C   UNL     1       0.864  11.821  18.861  0.00  0.00    +0.000 A 
ATOM      7  O   UNL     1       1.246  12.599  17.985  0.00  0.00    +0.000 OA
ATOM      8  C   UNL     1      -0.047  12.294  19.914  0.00  0.00    +0.000 A 
ATOM      9  C   UNL     1      -0.406  11.394  20.846  0.00  0.00    +0.000 A 
ATOM     10  N   UNL     1       0.021  10.074  20.932  0.00  0.00    +0.000 N 
ATOM     11  C   UNL     1       0.868   9.564  19.929  0.00  0.00    +0.000 A 
ATOM     12  C   UNL     1       1.336   8.242  19.926  0.00  0.00    +0.000 A 
ATOM     13  O   UNL     1       1.086   7.392  20.967  0.00  0.00    +0.000 OA
ATOM     14  C   UNL     1       0.054   7.714  21.881  0.00  0.00    +0.000 C 
ATOM     15  C   UNL     1      -0.393   9.176  22.019  0.00  0.00    +0.000 C 
ATOM     16  C   UNL     1       0.069   9.720  23.377  0.00  0.00    +0.000 C 
ENDROOT
BRANCH   1  20
ATOM     17  C   UNL     1       1.283   2.776  18.528  0.00  0.00    +0.000 C 
ATOM     18  C   UNL     1       2.230   3.933  18.649  0.00  0.00    +0.000 A 
ATOM     19  C   UNL     1       1.756   5.241  18.655  0.00  0.00    +0.000 A 
ATOM     20  C   UNL     1       2.640   6.312  18.840  0.00  0.00    +0.000 A 
ATOM     21  C   UNL     1       3.993   5.972  18.998  0.00  0.00    +0.000 A 
ATOM     22  C   UNL     1       4.408   4.650  18.914  0.00  0.00    +0.000 A 
ATOM     23  C   UNL     1       5.863   4.301  18.979  0.00  0.00    +0.000 C 
ATOM     24  N   UNL     1       3.541   3.629  18.760  0.00  0.00    +0.000 NA
ENDBRANCH   1  20
BRANCH   8  25
ATOM     25  C   UNL     1      -0.550  13.678  19.997  0.00  0.00    +0.000 C 
ATOM     26  O   UNL     1      -0.593  14.309  21.042  0.00  0.00    +0.000 OA
BRANCH  25  27
ATOM     27  O   UNL     1      -0.964  14.193  18.834  0.00  0.00    +0.000 OA
ATOM     28  H   UNL     1      -0.384  14.905  18.466  0.00  0.00    +0.000 HD
ENDBRANCH  25  27
ENDBRANCH   8  25
TORSDOF 3
ENDMDL
MODEL 9
REMARK VINA RESULT:      -7.4      3.048      7.348
REMARK  Name = 
REMARK  6 active torsions:
REMARK  status: ('A' for Active; 'I' for Inactive)
REMARK    1  A    between atoms: C_1  and  C_2
REMARK    2  A    between atoms: C_4  and  C_5
REMARK    3  A    between atoms: C_12  and  C_13
REMARK    4  A    between atoms: C_13  and  O_15
REMARK    5  A    between atoms: C_22  and  C_23
REMARK    6  A    between atoms: C_25  and  C_26
REMARK                            x       y       z     vdW  Elec       q    Type
REMARK                         _______ _______ _______ _____ _____    ______ ____
ROOT
ATOM      1  C   UNL     1       2.152   7.820  18.881  0.00  0.00    +0.000 A 
ATOM      2  C   UNL     1       2.513   8.734  17.874  0.00  0.00    +0.000 A 
ATOM      3  F   UNL     1       3.286   8.361  16.844  0.00  0.00    +0.000 F 
ATOM      4  C   UNL     1       2.084  10.051  17.879  0.00  0.00    +0.000 A 
ATOM      5  C   UNL     1       1.244  10.487  18.899  0.00  0.00    +0.000 A 
ATOM      6  C   UNL     1       0.790  11.892  18.884  0.00  0.00    +0.000 A 
ATOM      7  O   UNL     1       1.160  12.679  18.011  0.00  0.00    +0.000 OA
ATOM      8  C   UNL     1      -0.127  12.346  19.939  0.00  0.00    +0.000 A 
ATOM      9  C   UNL     1      -0.471  11.436  20.867  0.00  0.00    +0.000 A 
ATOM     10  N   UNL     1      -0.025  10.123  20.947  0.00  0.00    +0.000 N 
ATOM     11  C   UNL     1       0.829   9.630  19.941  0.00  0.00    +0.000 A 
ATOM     12  C   UNL     1       1.316   8.315  19.931  0.00  0.00    +0.000 A 
ATOM     13  O   UNL     1       1.080   7.457  20.969  0.00  0.00    +0.000 OA
ATOM     14  C   UNL     1       0.044   7.760  21.885  0.00  0.00    +0.000 C 
ATOM     15  C   UNL     1      -0.425   9.214  22.030  0.00  0.00    +0.000 C 
ATOM     16  C   UNL     1       0.030   9.758  23.390  0.00  0.00    +0.000 C 
ENDROOT
BRANCH   1  20
ATOM     17  C   UNL     1       5.884   4.434  19.094  0.00  0.00    +0.000 C 
ATOM     18  C   UNL     1       4.430   4.774  18.960  0.00  0.00    +0.000 A 
ATOM     19  C   UNL     1       4.000   6.095  19.033  0.00  0.00    +0.000 A 
ATOM     20  C   UNL     1       2.648   6.410  18.836  0.00  0.00    +0.000 A 
ATOM     21  C   UNL     1       1.795   5.325  18.581  0.00  0.00    +0.000 A 
ATOM     22  C   UNL     1       2.279   4.023  18.587  0.00  0.00    +0.000 A 
ATOM     23  C   UNL     1       1.348   2.863  18.418  0.00  0.00    +0.000 C 
ATOM     24  N   UNL     1       3.586   3.739  18.755  0.00  0.00    +0.000 NA
ENDBRANCH   1  20
BRANCH   8  25
ATOM     25  C   UNL     1      -0.651  13.722  20.028  0.00  0.00    +0.000 C 
ATOM     26  O   UNL     1      -0.818  14.302  21.090  0.00  0.00    +0.000 OA
BRANCH  25  27
ATOM     27  O   UNL     1      -0.934  14.290  18.852  0.00  0.00    +0.000 OA
ATOM     28  H   UNL     1      -1.504  13.743  18.255  0.00  0.00    +0.000 HD
ENDBRANCH  25  27
ENDBRANCH   8  25
TORSDOF 3
ENDMDL
