MODEL 1
REMARK VINA RESULT:      -7.3      0.000      0.000
REMARK  Name = 
REMARK  4 active torsions:
REMARK  status: ('A' for Active; 'I' for Inactive)
REMARK    1  A    between atoms: C_1  and  C_2
REMARK    2  A    between atoms: C_5  and  C_6
REMARK    3  A    between atoms: C_7  and  C_8
REMARK    4  A    between atoms: C_8  and  N_9
REMARK                            x       y       z     vdW  Elec       q    Type
REMARK                         _______ _______ _______ _____ _____    ______ ____
ROOT
ATOM      1  N   UNL     1       4.453   4.322  17.881  0.00  0.00    +0.000 NA
ATOM      2  C   UNL     1       4.701   3.802  19.224  0.00  0.00    +0.000 C 
ATOM      3  C   UNL     1       3.997   2.493  19.613  0.00  0.00    +0.000 C 
ATOM      4  N   UNL     1       2.559   2.552  19.737  0.00  0.00    +0.000 N 
ATOM      5  C   UNL     1       1.638   2.868  18.778  0.00  0.00    +0.000 C 
ATOM      6  O   UNL     1       0.463   2.557  18.971  0.00  0.00    +0.000 OA
ATOM      7  C   UNL     1       2.067   3.520  17.489  0.00  0.00    +0.000 C 
ATOM      8  C   UNL     1       3.053   4.666  17.645  0.00  0.00    +0.000 C 
ATOM      9  H   UNL     1       2.126   2.032  20.492  0.00  0.00    +0.000 HD
ENDROOT
BRANCH   1  10
ATOM     10  C   UNL     1       5.133   3.613  16.791  0.00  0.00    +0.000 C 
BRANCH  10  17
ATOM     11  C   UNL     1       5.915   3.777  13.635  0.00  0.00    +0.000 C 
ATOM     12  C   UNL     1       6.455   4.592  14.748  0.00  0.00    +0.000 A 
ATOM     13  N   UNL     1       7.391   5.513  14.497  0.00  0.00    +0.000 NA
ATOM     14  O   UNL     1       7.721   6.050  15.718  0.00  0.00    +0.000 OA
ATOM     15  C   UNL     1       6.992   5.454  16.699  0.00  0.00    +0.000 A 
ATOM     16  C   UNL     1       7.324   5.922  18.059  0.00  0.00    +0.000 C 
ATOM     17  C   UNL     1       6.125   4.530  16.138  0.00  0.00    +0.000 A 
ENDBRANCH  10  17
ENDBRANCH   1  10
TORSDOF 2
ENDMDL
MODEL 2
REMARK VINA RESULT:      -7.1      1.375      1.532
REMARK  Name = 
REMARK  4 active torsions:
REMARK  status: ('A' for Active; 'I' for Inactive)
REMARK    1  A    between atoms: C_1  and  C_2
REMARK    2  A    between atoms: C_5  and  C_6
REMARK    3  A    between atoms: C_7  and  C_8
REMARK    4  A    between atoms: C_8  and  N_9
REMARK                            x       y       z     vdW  Elec       q    Type
REMARK                         _______ _______ _______ _____ _____    ______ ____
ROOT
ATOM      1  N   UNL     1       4.055   4.338  19.014  0.00  0.00    +0.000 NA
ATOM      2  C   UNL     1       4.467   2.940  18.901  0.00  0.00    +0.000 C 
ATOM      3  C   UNL     1       3.619   2.025  18.006  0.00  0.00    +0.000 C 
ATOM      4  N   UNL     1       2.276   1.750  18.461  0.00  0.00    +0.000 N 
ATOM      5  C   UNL     1       1.257   2.634  18.679  0.00  0.00    +0.000 C 
ATOM      6  O   UNL     1       0.109   2.196  18.752  0.00  0.00    +0.000 OA
ATOM      7  C   UNL     1       1.530   4.114  18.759  0.00  0.00    +0.000 C 
ATOM      8  C   UNL     1       2.730   4.501  19.607  0.00  0.00    +0.000 C 
ATOM      9  H   UNL     1       1.916   0.811  18.334  0.00  0.00    +0.000 HD
ENDROOT
BRANCH   1  10
ATOM     10  C   UNL     1       4.346   5.181  17.848  0.00  0.00    +0.000 C 
BRANCH  10  17
ATOM     11  C   UNL     1       5.467   4.032  15.016  0.00  0.00    +0.000 C 
ATOM     12  C   UNL     1       6.253   4.488  16.187  0.00  0.00    +0.000 A 
ATOM     13  N   UNL     1       7.588   4.432  16.147  0.00  0.00    +0.000 NA
ATOM     14  O   UNL     1       8.016   4.864  17.379  0.00  0.00    +0.000 OA
ATOM     15  C   UNL     1       6.945   5.174  18.159  0.00  0.00    +0.000 A 
ATOM     16  C   UNL     1       7.303   5.588  19.530  0.00  0.00    +0.000 C 
ATOM     17  C   UNL     1       5.776   4.992  17.438  0.00  0.00    +0.000 A 
ENDBRANCH  10  17
ENDBRANCH   1  10
TORSDOF 2
ENDMDL
MODEL 3
REMARK VINA RESULT:      -7.1      1.470      2.527
REMARK  Name = 
REMARK  4 active torsions:
REMARK  status: ('A' for Active; 'I' for Inactive)
REMARK    1  A    between atoms: C_1  and  C_2
REMARK    2  A    between atoms: C_5  and  C_6
REMARK    3  A    between atoms: C_7  and  C_8
REMARK    4  A    between atoms: C_8  and  N_9
REMARK                            x       y       z     vdW  Elec       q    Type
REMARK                         _______ _______ _______ _____ _____    ______ ____
ROOT
ATOM      1  N   UNL     1       4.116   4.238  18.980  0.00  0.00    +0.000 NA
ATOM      2  C   UNL     1       4.460   2.824  18.837  0.00  0.00    +0.000 C 
ATOM      3  C   UNL     1       3.551   1.965  17.945  0.00  0.00    +0.000 C 
ATOM      4  N   UNL     1       2.206   1.747  18.423  0.00  0.00    +0.000 N 
ATOM      5  C   UNL     1       1.235   2.674  18.676  0.00  0.00    +0.000 C 
ATOM      6  O   UNL     1       0.068   2.289  18.765  0.00  0.00    +0.000 OA
ATOM      7  C   UNL     1       1.579   4.138  18.772  0.00  0.00    +0.000 C 
ATOM      8  C   UNL     1       2.813   4.454  19.602  0.00  0.00    +0.000 C 
ATOM      9  H   UNL     1       1.799   0.828  18.289  0.00  0.00    +0.000 HD
ENDROOT
BRANCH   1  10
ATOM     10  C   UNL     1       4.424   5.085  17.821  0.00  0.00    +0.000 C 
BRANCH  10  17
ATOM     11  C   UNL     1       7.218   5.561  19.425  0.00  0.00    +0.000 C 
ATOM     12  C   UNL     1       7.035   5.006  18.063  0.00  0.00    +0.000 A 
ATOM     13  N   UNL     1       8.106   4.654  17.345  0.00  0.00    +0.000 NA
ATOM     14  O   UNL     1       7.619   4.236  16.130  0.00  0.00    +0.000 OA
ATOM     15  C   UNL     1       6.263   4.341  16.113  0.00  0.00    +0.000 A 
ATOM     16  C   UNL     1       5.651   3.975  14.821  0.00  0.00    +0.000 C 
ATOM     17  C   UNL     1       5.817   4.794  17.344  0.00  0.00    +0.000 A 
ENDBRANCH  10  17
ENDBRANCH   1  10
TORSDOF 2
ENDMDL
MODEL 4
REMARK VINA RESULT:      -7.1      1.113      1.308
REMARK  Name = 
REMARK  4 active torsions:
REMARK  status: ('A' for Active; 'I' for Inactive)
REMARK    1  A    between atoms: C_1  and  C_2
REMARK    2  A    between atoms: C_5  and  C_6
REMARK    3  A    between atoms: C_7  and  C_8
REMARK    4  A    between atoms: C_8  and  N_9
REMARK                            x       y       z     vdW  Elec       q    Type
REMARK                         _______ _______ _______ _____ _____    ______ ____
ROOT
ATOM      1  N   UNL     1       3.785   4.660  17.293  0.00  0.00    +0.000 NA
ATOM      2  C   UNL     1       3.608   5.754  18.246  0.00  0.00    +0.000 C 
ATOM      3  C   UNL     1       3.380   5.376  19.718  0.00  0.00    +0.000 C 
ATOM      4  N   UNL     1       2.136   4.708  20.021  0.00  0.00    +0.000 N 
ATOM      5  C   UNL     1       1.679   3.511  19.548  0.00  0.00    +0.000 C 
ATOM      6  O   UNL     1       0.762   2.955  20.154  0.00  0.00    +0.000 OA
ATOM      7  C   UNL     1       2.330   2.859  18.356  0.00  0.00    +0.000 C 
ATOM      8  C   UNL     1       2.615   3.791  17.190  0.00  0.00    +0.000 C 
ATOM      9  H   UNL     1       1.661   4.959  20.881  0.00  0.00    +0.000 HD
ENDROOT
BRANCH   1  10
ATOM     10  C   UNL     1       5.087   3.983  17.338  0.00  0.00    +0.000 C 
BRANCH  10  17
ATOM     11  C   UNL     1       5.784   3.834  14.162  0.00  0.00    +0.000 C 
ATOM     12  C   UNL     1       6.391   4.717  15.184  0.00  0.00    +0.000 A 
ATOM     13  N   UNL     1       7.360   5.568  14.830  0.00  0.00    +0.000 NA
ATOM     14  O   UNL     1       7.748   6.194  15.990  0.00  0.00    +0.000 OA
ATOM     15  C   UNL     1       7.021   5.721  17.038  0.00  0.00    +0.000 A 
ATOM     16  C   UNL     1       7.413   6.290  18.342  0.00  0.00    +0.000 C 
ATOM     17  C   UNL     1       6.099   4.793  16.583  0.00  0.00    +0.000 A 
ENDBRANCH  10  17
ENDBRANCH   1  10
TORSDOF 2
ENDMDL
MODEL 5
REMARK VINA RESULT:      -7.0      1.203      1.476
REMARK  Name = 
REMARK  4 active torsions:
REMARK  status: ('A' for Active; 'I' for Inactive)
REMARK    1  A    between atoms: C_1  and  C_2
REMARK    2  A    between atoms: C_5  and  C_6
REMARK    3  A    between atoms: C_7  and  C_8
REMARK    4  A    between atoms: C_8  and  N_9
REMARK                            x       y       z     vdW  Elec       q    Type
REMARK                         _______ _______ _______ _____ _____    ______ ____
ROOT
ATOM      1  N   UNL     1       4.419   4.296  17.915  0.00  0.00    +0.000 NA
ATOM      2  C   UNL     1       3.952   2.925  17.721  0.00  0.00    +0.000 C 
ATOM      3  C   UNL     1       2.433   2.697  17.687  0.00  0.00    +0.000 C 
ATOM      4  N   UNL     1       1.724   2.924  18.925  0.00  0.00    +0.000 N 
ATOM      5  C   UNL     1       1.626   4.081  19.645  0.00  0.00    +0.000 C 
ATOM      6  O   UNL     1       0.731   4.172  20.486  0.00  0.00    +0.000 OA
ATOM      7  C   UNL     1       2.550   5.238  19.366  0.00  0.00    +0.000 C 
ATOM      8  C   UNL     1       4.013   4.867  19.197  0.00  0.00    +0.000 C 
ATOM      9  H   UNL     1       0.972   2.288  19.164  0.00  0.00    +0.000 HD
ENDROOT
BRANCH   1  10
ATOM     10  C   UNL     1       4.296   5.180  16.750  0.00  0.00    +0.000 C 
BRANCH  10  17
ATOM     11  C   UNL     1       5.486   4.023  13.950  0.00  0.00    +0.000 C 
ATOM     12  C   UNL     1       6.161   4.910  14.925  0.00  0.00    +0.000 A 
ATOM     13  N   UNL     1       7.417   5.308  14.698  0.00  0.00    +0.000 NA
ATOM     14  O   UNL     1       7.773   6.061  15.790  0.00  0.00    +0.000 OA
ATOM     15  C   UNL     1       6.741   6.113  16.674  0.00  0.00    +0.000 A 
ATOM     16  C   UNL     1       7.052   6.849  17.914  0.00  0.00    +0.000 C 
ATOM     17  C   UNL     1       5.654   5.424  16.160  0.00  0.00    +0.000 A 
ENDBRANCH  10  17
ENDBRANCH   1  10
TORSDOF 2
ENDMDL
MODEL 6
REMARK VINA RESULT:      -7.0      1.586      2.960
REMARK  Name = 
REMARK  4 active torsions:
REMARK  status: ('A' for Active; 'I' for Inactive)
REMARK    1  A    between atoms: C_1  and  C_2
REMARK    2  A    between atoms: C_5  and  C_6
REMARK    3  A    between atoms: C_7  and  C_8
REMARK    4  A    between atoms: C_8  and  N_9
REMARK                            x       y       z     vdW  Elec       q    Type
REMARK                         _______ _______ _______ _____ _____    ______ ____
ROOT
ATOM      1  N   UNL     1       3.543   3.432  17.680  0.00  0.00    +0.000 NA
ATOM      2  C   UNL     1       2.089   3.328  17.570  0.00  0.00    +0.000 C 
ATOM      3  C   UNL     1       1.255   3.832  18.758  0.00  0.00    +0.000 C 
ATOM      4  N   UNL     1       1.369   3.080  19.986  0.00  0.00    +0.000 N 
ATOM      5  C   UNL     1       2.484   2.859  20.744  0.00  0.00    +0.000 C 
ATOM      6  O   UNL     1       2.334   2.477  21.905  0.00  0.00    +0.000 OA
ATOM      7  C   UNL     1       3.856   3.145  20.192  0.00  0.00    +0.000 C 
ATOM      8  C   UNL     1       4.097   2.643  18.777  0.00  0.00    +0.000 C 
ATOM      9  H   UNL     1       0.528   2.936  20.532  0.00  0.00    +0.000 HD
ENDROOT
BRANCH   1  10
ATOM     10  C   UNL     1       4.096   4.782  17.516  0.00  0.00    +0.000 C 
BRANCH  10  17
ATOM     11  C   UNL     1       6.708   5.403  19.358  0.00  0.00    +0.000 C 
ATOM     12  C   UNL     1       6.678   4.961  17.944  0.00  0.00    +0.000 A 
ATOM     13  N   UNL     1       7.826   4.794  17.280  0.00  0.00    +0.000 NA
ATOM     14  O   UNL     1       7.469   4.441  16.001  0.00  0.00    +0.000 OA
ATOM     15  C   UNL     1       6.114   4.401  15.892  0.00  0.00    +0.000 A 
ATOM     16  C   UNL     1       5.632   4.093  14.532  0.00  0.00    +0.000 C 
ATOM     17  C   UNL     1       5.540   4.688  17.121  0.00  0.00    +0.000 A 
ENDBRANCH  10  17
ENDBRANCH   1  10
TORSDOF 2
ENDMDL
MODEL 7
REMARK VINA RESULT:      -7.0      0.921      2.172
REMARK  Name = 
REMARK  4 active torsions:
REMARK  status: ('A' for Active; 'I' for Inactive)
REMARK    1  A    between atoms: C_1  and  C_2
REMARK    2  A    between atoms: C_5  and  C_6
REMARK    3  A    between atoms: C_7  and  C_8
REMARK    4  A    between atoms: C_8  and  N_9
REMARK                            x       y       z     vdW  Elec       q    Type
REMARK                         _______ _______ _______ _____ _____    ______ ____
ROOT
ATOM      1  N   UNL     1       4.182   4.554  18.324  0.00  0.00    +0.000 NA
ATOM      2  C   UNL     1       3.936   4.430  19.759  0.00  0.00    +0.000 C 
ATOM      3  C   UNL     1       3.304   3.121  20.255  0.00  0.00    +0.000 C 
ATOM      4  N   UNL     1       1.940   2.873  19.846  0.00  0.00    +0.000 N 
ATOM      5  C   UNL     1       1.447   2.738  18.579  0.00  0.00    +0.000 C 
ATOM      6  O   UNL     1       0.340   2.217  18.435  0.00  0.00    +0.000 OA
ATOM      7  C   UNL     1       2.270   3.155  17.387  0.00  0.00    +0.000 C 
ATOM      8  C   UNL     1       2.961   4.502  17.523  0.00  0.00    +0.000 C 
ATOM      9  H   UNL     1       1.311   2.457  20.523  0.00  0.00    +0.000 HD
ENDROOT
BRANCH   1  10
ATOM     10  C   UNL     1       5.323   3.788  17.807  0.00  0.00    +0.000 C 
BRANCH  10  17
ATOM     11  C   UNL     1       7.459   6.020  18.835  0.00  0.00    +0.000 C 
ATOM     12  C   UNL     1       7.125   5.656  17.438  0.00  0.00    +0.000 A 
ATOM     13  N   UNL     1       7.726   6.295  16.429  0.00  0.00    +0.000 NA
ATOM     14  O   UNL     1       7.175   5.781  15.280  0.00  0.00    +0.000 OA
ATOM     15  C   UNL     1       6.243   4.841  15.594  0.00  0.00    +0.000 A 
ATOM     16  C   UNL     1       5.546   4.275  14.423  0.00  0.00    +0.000 C 
ATOM     17  C   UNL     1       6.189   4.682  16.970  0.00  0.00    +0.000 A 
ENDBRANCH  10  17
ENDBRANCH   1  10
TORSDOF 2
ENDMDL
MODEL 8
REMARK VINA RESULT:      -7.0      1.487      2.126
REMARK  Name = 
REMARK  4 active torsions:
REMARK  status: ('A' for Active; 'I' for Inactive)
REMARK    1  A    between atoms: C_1  and  C_2
REMARK    2  A    between atoms: C_5  and  C_6
REMARK    3  A    between atoms: C_7  and  C_8
REMARK    4  A    between atoms: C_8  and  N_9
REMARK                            x       y       z     vdW  Elec       q    Type
REMARK                         _______ _______ _______ _____ _____    ______ ____
ROOT
ATOM      1  N   UNL     1       3.882   3.115  18.040  0.00  0.00    +0.000 NA
ATOM      2  C   UNL     1       2.615   2.523  17.612  0.00  0.00    +0.000 C 
ATOM      3  C   UNL     1       1.348   2.948  18.368  0.00  0.00    +0.000 C 
ATOM      4  N   UNL     1       1.254   2.527  19.747  0.00  0.00    +0.000 N 
ATOM      5  C   UNL     1       2.087   2.832  20.786  0.00  0.00    +0.000 C 
ATOM      6  O   UNL     1       1.679   2.654  21.934  0.00  0.00    +0.000 OA
ATOM      7  C   UNL     1       3.443   3.436  20.529  0.00  0.00    +0.000 C 
ATOM      8  C   UNL     1       4.240   2.776  19.415  0.00  0.00    +0.000 C 
ATOM      9  H   UNL     1       0.349   2.225  20.089  0.00  0.00    +0.000 HD
ENDROOT
BRANCH   1  10
ATOM     10  C   UNL     1       4.095   4.512  17.645  0.00  0.00    +0.000 C 
BRANCH  10  17
ATOM     11  C   UNL     1       5.463   3.955  14.745  0.00  0.00    +0.000 C 
ATOM     12  C   UNL     1       6.115   4.463  15.974  0.00  0.00    +0.000 A 
ATOM     13  N   UNL     1       7.426   4.729  15.964  0.00  0.00    +0.000 NA
ATOM     14  O   UNL     1       7.735   5.122  17.243  0.00  0.00    +0.000 OA
ATOM     15  C   UNL     1       6.621   5.089  18.022  0.00  0.00    +0.000 A 
ATOM     16  C   UNL     1       6.867   5.434  19.435  0.00  0.00    +0.000 C 
ATOM     17  C   UNL     1       5.530   4.710  17.255  0.00  0.00    +0.000 A 
ENDBRANCH  10  17
ENDBRANCH   1  10
TORSDOF 2
ENDMDL
MODEL 9
REMARK VINA RESULT:      -6.9      1.255      2.518
REMARK  Name = 
REMARK  4 active torsions:
REMARK  status: ('A' for Active; 'I' for Inactive)
REMARK    1  A    between atoms: C_1  and  C_2
REMARK    2  A    between atoms: C_5  and  C_6
REMARK    3  A    between atoms: C_7  and  C_8
REMARK    4  A    between atoms: C_8  and  N_9
REMARK                            x       y       z     vdW  Elec       q    Type
REMARK                         _______ _______ _______ _____ _____    ______ ____
ROOT
ATOM      1  N   UNL     1       3.697   4.299  17.169  0.00  0.00    +0.000 NA
ATOM      2  C   UNL     1       3.435   5.603  17.775  0.00  0.00    +0.000 C 
ATOM      3  C   UNL     1       3.236   5.644  19.298  0.00  0.00    +0.000 C 
ATOM      4  N   UNL     1       2.048   4.999  19.806  0.00  0.00    +0.000 N 
ATOM      5  C   UNL     1       1.687   3.685  19.703  0.00  0.00    +0.000 C 
ATOM      6  O   UNL     1       0.816   3.258  20.462  0.00  0.00    +0.000 OA
ATOM      7  C   UNL     1       2.387   2.772  18.731  0.00  0.00    +0.000 C 
ATOM      8  C   UNL     1       2.599   3.351  17.342  0.00  0.00    +0.000 C 
ATOM      9  H   UNL     1       1.554   5.449  20.569  0.00  0.00    +0.000 HD
ENDROOT
BRANCH   1  10
ATOM     10  C   UNL     1       5.048   3.763  17.376  0.00  0.00    +0.000 C 
BRANCH  10  17
ATOM     11  C   UNL     1       7.118   5.970  18.577  0.00  0.00    +0.000 C 
ATOM     12  C   UNL     1       6.945   5.561  17.163  0.00  0.00    +0.000 A 
ATOM     13  N   UNL     1       7.686   6.141  16.213  0.00  0.00    +0.000 NA
ATOM     14  O   UNL     1       7.261   5.597  15.026  0.00  0.00    +0.000 OA
ATOM     15  C   UNL     1       6.266   4.699  15.257  0.00  0.00    +0.000 A 
ATOM     16  C   UNL     1       5.697   4.107  14.030  0.00  0.00    +0.000 C 
ATOM     17  C   UNL     1       6.039   4.597  16.620  0.00  0.00    +0.000 A 
ENDBRANCH  10  17
ENDBRANCH   1  10
TORSDOF 2
ENDMDL
