MODEL 1
REMARK VINA RESULT:      -6.6      0.000      0.000
REMARK  Name = 
REMARK  7 active torsions:
REMARK  status: ('A' for Active; 'I' for Inactive)
REMARK    1  A    between atoms: C_2  and  C_3
REMARK    2  A    between atoms: C_3  and  C_4
REMARK    3  A    between atoms: C_10  and  O_11
REMARK    4  A    between atoms: C_10  and  C_12
REMARK    5  A    between atoms: C_14  and  O_15
REMARK    6  A    between atoms: C_16  and  O_17
REMARK    7  A    between atoms: C_18  and  N_19
REMARK                            x       y       z     vdW  Elec       q    Type
REMARK                         _______ _______ _______ _____ _____    ______ ____
ROOT
ATOM      1  C   UNL     1       2.862   5.824  19.251  0.00  0.00    +0.000 A 
ATOM      2  C   UNL     1       2.190   4.932  18.394  0.00  0.00    +0.000 A 
ATOM      3  C   UNL     1       2.917   4.015  17.635  0.00  0.00    +0.000 A 
ATOM      4  C   UNL     1       4.306   3.977  17.695  0.00  0.00    +0.000 A 
ATOM      5  C   UNL     1       4.968   4.873  18.525  0.00  0.00    +0.000 A 
ATOM      6  C   UNL     1       4.261   5.796  19.313  0.00  0.00    +0.000 A 
ENDROOT
BRANCH   5   7
ATOM      7  N   UNL     1       6.412   4.858  18.614  0.00  0.00    +0.000 N 
ATOM      8  O   UNL     1       7.054   4.813  17.555  0.00  0.00    +0.000 OA
ATOM      9  O   UNL     1       6.899   4.972  19.747  0.00  0.00    +0.000 OA
ENDBRANCH   5   7
BRANCH   1  11
ATOM     10  C   UNL     1       1.770   8.002  19.711  0.00  0.00    +0.000 C 
ATOM     11  C   UNL     1       2.088   6.748  20.103  0.00  0.00    +0.000 C 
BRANCH  10  12
ATOM     12  C   UNL     1       1.133   8.976  20.653  0.00  0.00    +0.000 C 
ATOM     13  O   UNL     1       1.256   8.810  21.868  0.00  0.00    +0.000 OA
ATOM     14  N   UNL     1       0.529  10.083  20.113  0.00  0.00    +0.000 N 
ATOM     15  C   UNL     1      -0.045  11.217  20.831  0.00  0.00    +0.000 C 
ATOM     16  C   UNL     1      -1.233  11.131  19.873  0.00  0.00    +0.000 C 
ATOM     17  C   UNL     1      -0.394  10.214  18.984  0.00  0.00    +0.000 C 
ENDBRANCH  10  12
BRANCH  10  19
ATOM     18  N   UNL     1       2.583   8.919  17.214  0.00  0.00    +0.000 NA
ATOM     19  C   UNL     1       2.214   8.503  18.346  0.00  0.00    +0.000 C 
ENDBRANCH  10  19
BRANCH  11  20
ATOM     20  O   UNL     1       1.794   6.211  21.340  0.00  0.00    +0.000 OA
ATOM     21  H   UNL     1       2.616   5.834  21.729  0.00  0.00    +0.000 HD
ENDBRANCH  11  20
ENDBRANCH   1  11
BRANCH   3  22
ATOM     22  O   UNL     1       2.300   3.106  16.817  0.00  0.00    +0.000 OA
ATOM     23  H   UNL     1       1.447   3.471  16.523  0.00  0.00    +0.000 HD
ENDBRANCH   3  22
BRANCH   4  24
ATOM     24  O   UNL     1       4.969   3.036  16.955  0.00  0.00    +0.000 OA
ATOM     25  H   UNL     1       4.976   2.224  17.503  0.00  0.00    +0.000 HD
ENDBRANCH   4  24
TORSDOF 7
ENDMDL
MODEL 2
REMARK VINA RESULT:      -6.6      3.791      5.257
REMARK  Name = 
REMARK  7 active torsions:
REMARK  status: ('A' for Active; 'I' for Inactive)
REMARK    1  A    between atoms: C_2  and  C_3
REMARK    2  A    between atoms: C_3  and  C_4
REMARK    3  A    between atoms: C_10  and  O_11
REMARK    4  A    between atoms: C_10  and  C_12
REMARK    5  A    between atoms: C_14  and  O_15
REMARK    6  A    between atoms: C_16  and  O_17
REMARK    7  A    between atoms: C_18  and  N_19
REMARK                            x       y       z     vdW  Elec       q    Type
REMARK                         _______ _______ _______ _____ _____    ______ ____
ROOT
ATOM      1  C   UNL     1       4.846   3.909  16.668  0.00  0.00    +0.000 A 
ATOM      2  C   UNL     1       5.073   3.600  15.314  0.00  0.00    +0.000 A 
ATOM      3  C   UNL     1       6.128   4.205  14.630  0.00  0.00    +0.000 A 
ATOM      4  C   UNL     1       6.954   5.129  15.261  0.00  0.00    +0.000 A 
ATOM      5  C   UNL     1       6.713   5.448  16.592  0.00  0.00    +0.000 A 
ATOM      6  C   UNL     1       5.670   4.842  17.310  0.00  0.00    +0.000 A 
ENDROOT
BRANCH   5   7
ATOM      7  N   UNL     1       7.557   6.403  17.278  0.00  0.00    +0.000 N 
ATOM      8  O   UNL     1       7.842   7.451  16.684  0.00  0.00    +0.000 OA
ATOM      9  O   UNL     1       7.864   6.130  18.447  0.00  0.00    +0.000 OA
ENDBRANCH   5   7
BRANCH   1  11
ATOM     10  C   UNL     1       2.730   3.880  17.963  0.00  0.00    +0.000 C 
ATOM     11  C   UNL     1       3.772   3.218  17.409  0.00  0.00    +0.000 C 
BRANCH  10  12
ATOM     12  C   UNL     1       1.746   3.183  18.849  0.00  0.00    +0.000 C 
ATOM     13  O   UNL     1       0.669   2.810  18.380  0.00  0.00    +0.000 OA
ATOM     14  N   UNL     1       2.139   2.888  20.130  0.00  0.00    +0.000 N 
ATOM     15  C   UNL     1       1.403   2.115  21.126  0.00  0.00    +0.000 C 
ATOM     16  C   UNL     1       1.792   3.187  22.143  0.00  0.00    +0.000 C 
ATOM     17  C   UNL     1       2.816   3.710  21.135  0.00  0.00    +0.000 C 
ENDBRANCH  10  12
BRANCH  10  19
ATOM     18  N   UNL     1       2.565   6.645  17.723  0.00  0.00    +0.000 NA
ATOM     19  C   UNL     1       2.640   5.391  17.832  0.00  0.00    +0.000 C 
ENDBRANCH  10  19
BRANCH  11  20
ATOM     20  O   UNL     1       3.989   1.859  17.519  0.00  0.00    +0.000 OA
ATOM     21  H   UNL     1       4.054   1.621  18.472  0.00  0.00    +0.000 HD
ENDBRANCH  11  20
ENDBRANCH   1  11
BRANCH   3  22
ATOM     22  O   UNL     1       6.406   3.906  13.323  0.00  0.00    +0.000 OA
ATOM     23  H   UNL     1       5.590   3.984  12.799  0.00  0.00    +0.000 HD
ENDBRANCH   3  22
BRANCH   4  24
ATOM     24  O   UNL     1       7.995   5.669  14.554  0.00  0.00    +0.000 OA
ATOM     25  H   UNL     1       7.717   6.580  14.327  0.00  0.00    +0.000 HD
ENDBRANCH   4  24
TORSDOF 7
ENDMDL
MODEL 3
REMARK VINA RESULT:      -6.2      3.882      6.064
REMARK  Name = 
REMARK  7 active torsions:
REMARK  status: ('A' for Active; 'I' for Inactive)
REMARK    1  A    between atoms: C_2  and  C_3
REMARK    2  A    between atoms: C_3  and  C_4
REMARK    3  A    between atoms: C_10  and  O_11
REMARK    4  A    between atoms: C_10  and  C_12
REMARK    5  A    between atoms: C_14  and  O_15
REMARK    6  A    between atoms: C_16  and  O_17
REMARK    7  A    between atoms: C_18  and  N_19
REMARK                            x       y       z     vdW  Elec       q    Type
REMARK                         _______ _______ _______ _____ _____    ______ ____
ROOT
ATOM      1  C   UNL     1       5.709   4.141  15.301  0.00  0.00    +0.000 A 
ATOM      2  C   UNL     1       6.887   4.892  15.134  0.00  0.00    +0.000 A 
ATOM      3  C   UNL     1       7.475   4.994  13.873  0.00  0.00    +0.000 A 
ATOM      4  C   UNL     1       6.923   4.346  12.771  0.00  0.00    +0.000 A 
ATOM      5  C   UNL     1       5.773   3.587  12.945  0.00  0.00    +0.000 A 
ATOM      6  C   UNL     1       5.151   3.481  14.199  0.00  0.00    +0.000 A 
ENDROOT
BRANCH   5   7
ATOM      7  N   UNL     1       5.172   2.904  11.819  0.00  0.00    +0.000 N 
ATOM      8  O   UNL     1       5.716   1.866  11.419  0.00  0.00    +0.000 OA
ATOM      9  O   UNL     1       4.107   3.370  11.392  0.00  0.00    +0.000 OA
ENDBRANCH   5   7
BRANCH   1  11
ATOM     10  C   UNL     1       4.546   5.188  17.225  0.00  0.00    +0.000 C 
ATOM     11  C   UNL     1       5.052   4.089  16.622  0.00  0.00    +0.000 C 
BRANCH  10  12
ATOM     12  C   UNL     1       4.037   5.141  18.631  0.00  0.00    +0.000 C 
ATOM     13  O   UNL     1       4.823   5.312  19.566  0.00  0.00    +0.000 OA
ATOM     14  N   UNL     1       2.682   5.020  18.815  0.00  0.00    +0.000 N 
ATOM     15  C   UNL     1       1.952   5.074  20.078  0.00  0.00    +0.000 C 
ATOM     16  C   UNL     1       1.152   3.869  19.585  0.00  0.00    +0.000 C 
ATOM     17  C   UNL     1       1.709   4.127  18.185  0.00  0.00    +0.000 C 
ENDBRANCH  10  12
BRANCH  10  19
ATOM     18  N   UNL     1       4.730   7.662  15.967  0.00  0.00    +0.000 NA
ATOM     19  C   UNL     1       4.647   6.540  16.538  0.00  0.00    +0.000 C 
ENDBRANCH  10  19
BRANCH  11  20
ATOM     20  O   UNL     1       5.074   2.825  17.179  0.00  0.00    +0.000 OA
ATOM     21  H   UNL     1       5.347   2.177  16.490  0.00  0.00    +0.000 HD
ENDBRANCH  11  20
ENDBRANCH   1  11
BRANCH   3  22
ATOM     22  O   UNL     1       8.600   5.745  13.659  0.00  0.00    +0.000 OA
ATOM     23  H   UNL     1       9.241   5.564  14.369  0.00  0.00    +0.000 HD
ENDBRANCH   3  22
BRANCH   4  24
ATOM     24  O   UNL     1       7.520   4.506  11.550  0.00  0.00    +0.000 OA
ATOM     25  H   UNL     1       8.210   5.189  11.680  0.00  0.00    +0.000 HD
ENDBRANCH   4  24
TORSDOF 7
ENDMDL
MODEL 4
REMARK VINA RESULT:      -6.2      3.899      5.805
REMARK  Name = 
REMARK  7 active torsions:
REMARK  status: ('A' for Active; 'I' for Inactive)
REMARK    1  A    between atoms: C_2  and  C_3
REMARK    2  A    between atoms: C_3  and  C_4
REMARK    3  A    between atoms: C_10  and  O_11
REMARK    4  A    between atoms: C_10  and  C_12
REMARK    5  A    between atoms: C_14  and  O_15
REMARK    6  A    between atoms: C_16  and  O_17
REMARK    7  A    between atoms: C_18  and  N_19
REMARK                            x       y       z     vdW  Elec       q    Type
REMARK                         _______ _______ _______ _____ _____    ______ ____
ROOT
ATOM      1  C   UNL     1       5.033   3.920  16.335  0.00  0.00    +0.000 A 
ATOM      2  C   UNL     1       5.920   4.823  16.951  0.00  0.00    +0.000 A 
ATOM      3  C   UNL     1       6.948   5.405  16.209  0.00  0.00    +0.000 A 
ATOM      4  C   UNL     1       7.126   5.093  14.865  0.00  0.00    +0.000 A 
ATOM      5  C   UNL     1       6.263   4.185  14.265  0.00  0.00    +0.000 A 
ATOM      6  C   UNL     1       5.209   3.597  14.983  0.00  0.00    +0.000 A 
ENDROOT
BRANCH   5   7
ATOM      7  N   UNL     1       6.418   3.842  12.868  0.00  0.00    +0.000 N 
ATOM      8  O   UNL     1       7.402   4.299  12.269  0.00  0.00    +0.000 OA
ATOM      9  O   UNL     1       5.594   3.046  12.397  0.00  0.00    +0.000 OA
ENDBRANCH   5   7
BRANCH   1  11
ATOM     10  C   UNL     1       2.982   4.134  17.711  0.00  0.00    +0.000 C 
ATOM     11  C   UNL     1       3.906   3.356  17.103  0.00  0.00    +0.000 C 
BRANCH  10  12
ATOM     12  C   UNL     1       1.948   3.548  18.621  0.00  0.00    +0.000 C 
ATOM     13  O   UNL     1       0.809   3.351  18.195  0.00  0.00    +0.000 OA
ATOM     14  N   UNL     1       2.351   3.150  19.872  0.00  0.00    +0.000 N 
ATOM     15  C   UNL     1       1.557   2.449  20.876  0.00  0.00    +0.000 C 
ATOM     16  C   UNL     1       2.141   3.414  21.908  0.00  0.00    +0.000 C 
ATOM     17  C   UNL     1       3.183   3.826  20.868  0.00  0.00    +0.000 C 
ENDBRANCH  10  12
BRANCH  10  19
ATOM     18  N   UNL     1       3.172   6.902  17.535  0.00  0.00    +0.000 NA
ATOM     19  C   UNL     1       3.086   5.647  17.615  0.00  0.00    +0.000 C 
ENDBRANCH  10  19
BRANCH  11  20
ATOM     20  O   UNL     1       3.948   1.978  17.176  0.00  0.00    +0.000 OA
ATOM     21  H   UNL     1       4.275   1.623  16.319  0.00  0.00    +0.000 HD
ENDBRANCH  11  20
ENDBRANCH   1  11
BRANCH   3  22
ATOM     22  O   UNL     1       7.809   6.316  16.760  0.00  0.00    +0.000 OA
ATOM     23  H   UNL     1       7.685   6.326  17.726  0.00  0.00    +0.000 HD
ENDBRANCH   3  22
BRANCH   4  24
ATOM     24  O   UNL     1       8.130   5.717  14.174  0.00  0.00    +0.000 OA
ATOM     25  H   UNL     1       7.948   5.544  13.228  0.00  0.00    +0.000 HD
ENDBRANCH   4  24
TORSDOF 7
ENDMDL
MODEL 5
REMARK VINA RESULT:      -6.0      2.339      3.446
REMARK  Name = 
REMARK  7 active torsions:
REMARK  status: ('A' for Active; 'I' for Inactive)
REMARK    1  A    between atoms: C_2  and  C_3
REMARK    2  A    between atoms: C_3  and  C_4
REMARK    3  A    between atoms: C_10  and  O_11
REMARK    4  A    between atoms: C_10  and  C_12
REMARK    5  A    between atoms: C_14  and  O_15
REMARK    6  A    between atoms: C_16  and  O_17
REMARK    7  A    between atoms: C_18  and  N_19
REMARK                            x       y       z     vdW  Elec       q    Type
REMARK                         _______ _______ _______ _____ _____    ______ ____
ROOT
ATOM      1  C   UNL     1       3.231   6.114  18.362  0.00  0.00    +0.000 A 
ATOM      2  C   UNL     1       4.598   5.785  18.424  0.00  0.00    +0.000 A 
ATOM      3  C   UNL     1       4.987   4.474  18.704  0.00  0.00    +0.000 A 
ATOM      4  C   UNL     1       4.040   3.482  18.943  0.00  0.00    +0.000 A 
ATOM      5  C   UNL     1       2.692   3.816  18.902  0.00  0.00    +0.000 A 
ATOM      6  C   UNL     1       2.272   5.122  18.606  0.00  0.00    +0.000 A 
ENDROOT
BRANCH   5   7
ATOM      7  N   UNL     1       1.682   2.807  19.142  0.00  0.00    +0.000 N 
ATOM      8  O   UNL     1       1.681   2.245  20.246  0.00  0.00    +0.000 OA
ATOM      9  O   UNL     1       0.842   2.640  18.248  0.00  0.00    +0.000 OA
ENDBRANCH   5   7
BRANCH   1  11
ATOM     10  C   UNL     1       2.119   8.279  18.839  0.00  0.00    +0.000 C 
ATOM     11  C   UNL     1       2.822   7.485  17.999  0.00  0.00    +0.000 C 
BRANCH  10  12
ATOM     12  C   UNL     1       1.572   9.597  18.391  0.00  0.00    +0.000 C 
ATOM     13  O   UNL     1       2.220  10.283  17.598  0.00  0.00    +0.000 OA
ATOM     14  N   UNL     1       0.306   9.935  18.801  0.00  0.00    +0.000 N 
ATOM     15  C   UNL     1      -0.474  11.100  18.396  0.00  0.00    +0.000 C 
ATOM     16  C   UNL     1      -0.853  11.269  19.867  0.00  0.00    +0.000 C 
ATOM     17  C   UNL     1      -0.323   9.858  20.120  0.00  0.00    +0.000 C 
ENDBRANCH  10  12
BRANCH  10  19
ATOM     18  N   UNL     1       1.396   7.333  21.352  0.00  0.00    +0.000 NA
ATOM     19  C   UNL     1       1.724   7.762  20.213  0.00  0.00    +0.000 C 
ENDBRANCH  10  19
BRANCH  11  20
ATOM     20  O   UNL     1       3.179   7.824  16.709  0.00  0.00    +0.000 OA
ATOM     21  H   UNL     1       2.764   7.187  16.085  0.00  0.00    +0.000 HD
ENDBRANCH  11  20
ENDBRANCH   1  11
BRANCH   3  22
ATOM     22  O   UNL     1       6.304   4.103  18.738  0.00  0.00    +0.000 OA
ATOM     23  H   UNL     1       6.410   3.263  18.257  0.00  0.00    +0.000 HD
ENDBRANCH   3  22
BRANCH   4  24
ATOM     24  O   UNL     1       4.473   2.206  19.181  0.00  0.00    +0.000 OA
ATOM     25  H   UNL     1       5.319   2.119  18.694  0.00  0.00    +0.000 HD
ENDBRANCH   4  24
TORSDOF 7
ENDMDL
MODEL 6
REMARK VINA RESULT:      -5.9      2.234      2.616
REMARK  Name = 
REMARK  7 active torsions:
REMARK  status: ('A' for Active; 'I' for Inactive)
REMARK    1  A    between atoms: C_2  and  C_3
REMARK    2  A    between atoms: C_3  and  C_4
REMARK    3  A    between atoms: C_10  and  O_11
REMARK    4  A    between atoms: C_10  and  C_12
REMARK    5  A    between atoms: C_14  and  O_15
REMARK    6  A    between atoms: C_16  and  O_17
REMARK    7  A    between atoms: C_18  and  N_19
REMARK                            x       y       z     vdW  Elec       q    Type
REMARK                         _______ _______ _______ _____ _____    ______ ____
ROOT
ATOM      1  C   UNL     1       3.548   6.748  17.643  0.00  0.00    +0.000 A 
ATOM      2  C   UNL     1       3.038   5.437  17.665  0.00  0.00    +0.000 A 
ATOM      3  C   UNL     1       3.855   4.365  17.303  0.00  0.00    +0.000 A 
ATOM      4  C   UNL     1       5.171   4.572  16.901  0.00  0.00    +0.000 A 
ATOM      5  C   UNL     1       5.665   5.870  16.860  0.00  0.00    +0.000 A 
ATOM      6  C   UNL     1       4.871   6.965  17.235  0.00  0.00    +0.000 A 
ENDROOT
BRANCH   5   7
ATOM      7  N   UNL     1       7.030   6.119  16.450  0.00  0.00    +0.000 N 
ATOM      8  O   UNL     1       7.486   5.438  15.521  0.00  0.00    +0.000 OA
ATOM      9  O   UNL     1       7.615   7.057  17.010  0.00  0.00    +0.000 OA
ENDBRANCH   5   7
BRANCH   1  11
ATOM     10  C   UNL     1       1.994   7.836  19.240  0.00  0.00    +0.000 C 
ATOM     11  C   UNL     1       2.703   7.873  18.090  0.00  0.00    +0.000 C 
BRANCH  10  12
ATOM     12  C   UNL     1       1.017   8.915  19.589  0.00  0.00    +0.000 C 
ATOM     13  O   UNL     1       0.584   9.649  18.699  0.00  0.00    +0.000 OA
ATOM     14  N   UNL     1       0.558   8.965  20.881  0.00  0.00    +0.000 N 
ATOM     15  C   UNL     1      -0.477   9.843  21.419  0.00  0.00    +0.000 C 
ATOM     16  C   UNL     1       0.441  10.074  22.618  0.00  0.00    +0.000 C 
ATOM     17  C   UNL     1       1.275   8.880  22.155  0.00  0.00    +0.000 C 
ENDBRANCH  10  12
BRANCH  10  19
ATOM     18  N   UNL     1       2.100   5.576  20.857  0.00  0.00    +0.000 NA
ATOM     19  C   UNL     1       2.052   6.601  20.124  0.00  0.00    +0.000 C 
ENDBRANCH  10  19
BRANCH  11  20
ATOM     20  O   UNL     1       2.677   8.912  17.181  0.00  0.00    +0.000 OA
ATOM     21  H   UNL     1       3.602   9.161  16.953  0.00  0.00    +0.000 HD
ENDBRANCH  11  20
ENDBRANCH   1  11
BRANCH   3  22
ATOM     22  O   UNL     1       3.409   3.071  17.345  0.00  0.00    +0.000 OA
ATOM     23  H   UNL     1       2.547   3.018  16.897  0.00  0.00    +0.000 HD
ENDBRANCH   3  22
BRANCH   4  24
ATOM     24  O   UNL     1       5.940   3.484  16.589  0.00  0.00    +0.000 OA
ATOM     25  H   UNL     1       6.452   3.741  15.795  0.00  0.00    +0.000 HD
ENDBRANCH   4  24
TORSDOF 7
ENDMDL
MODEL 7
REMARK VINA RESULT:      -5.9      4.368      5.970
REMARK  Name = 
REMARK  7 active torsions:
REMARK  status: ('A' for Active; 'I' for Inactive)
REMARK    1  A    between atoms: C_2  and  C_3
REMARK    2  A    between atoms: C_3  and  C_4
REMARK    3  A    between atoms: C_10  and  O_11
REMARK    4  A    between atoms: C_10  and  C_12
REMARK    5  A    between atoms: C_14  and  O_15
REMARK    6  A    between atoms: C_16  and  O_17
REMARK    7  A    between atoms: C_18  and  N_19
REMARK                            x       y       z     vdW  Elec       q    Type
REMARK                         _______ _______ _______ _____ _____    ______ ____
ROOT
ATOM      1  C   UNL     1       5.319   4.001  16.501  0.00  0.00    +0.000 A 
ATOM      2  C   UNL     1       6.242   5.023  16.790  0.00  0.00    +0.000 A 
ATOM      3  C   UNL     1       7.027   5.561  15.769  0.00  0.00    +0.000 A 
ATOM      4  C   UNL     1       6.926   5.089  14.464  0.00  0.00    +0.000 A 
ATOM      5  C   UNL     1       6.030   4.065  14.187  0.00  0.00    +0.000 A 
ATOM      6  C   UNL     1       5.215   3.517  15.191  0.00  0.00    +0.000 A 
ENDROOT
BRANCH   5   7
ATOM      7  N   UNL     1       5.898   3.554  12.839  0.00  0.00    +0.000 N 
ATOM      8  O   UNL     1       4.756   3.456  12.370  0.00  0.00    +0.000 OA
ATOM      9  O   UNL     1       6.950   3.330  12.226  0.00  0.00    +0.000 OA
ENDBRANCH   5   7
BRANCH   1  11
ATOM     10  C   UNL     1       4.657   3.743  18.877  0.00  0.00    +0.000 C 
ATOM     11  C   UNL     1       4.443   3.479  17.569  0.00  0.00    +0.000 C 
BRANCH  10  12
ATOM     12  C   UNL     1       3.859   3.070  19.949  0.00  0.00    +0.000 C 
ATOM     13  O   UNL     1       4.318   2.073  20.510  0.00  0.00    +0.000 OA
ATOM     14  N   UNL     1       2.686   3.666  20.340  0.00  0.00    +0.000 N 
ATOM     15  C   UNL     1       1.811   3.264  21.437  0.00  0.00    +0.000 C 
ATOM     16  C   UNL     1       0.635   3.487  20.487  0.00  0.00    +0.000 C 
ATOM     17  C   UNL     1       1.589   4.227  19.550  0.00  0.00    +0.000 C 
ENDBRANCH  10  12
BRANCH  10  19
ATOM     18  N   UNL     1       6.818   5.322  19.633  0.00  0.00    +0.000 NA
ATOM     19  C   UNL     1       5.838   4.606  19.290  0.00  0.00    +0.000 C 
ENDBRANCH  10  19
BRANCH  11  20
ATOM     20  O   UNL     1       3.443   2.659  17.083  0.00  0.00    +0.000 OA
ATOM     21  H   UNL     1       2.977   2.240  17.842  0.00  0.00    +0.000 HD
ENDBRANCH  11  20
ENDBRANCH   1  11
BRANCH   3  22
ATOM     22  O   UNL     1       7.911   6.581  16.000  0.00  0.00    +0.000 OA
ATOM     23  H   UNL     1       7.793   7.264  15.316  0.00  0.00    +0.000 HD
ENDBRANCH   3  22
BRANCH   4  24
ATOM     24  O   UNL     1       7.695   5.674  13.495  0.00  0.00    +0.000 OA
ATOM     25  H   UNL     1       8.538   5.911  13.932  0.00  0.00    +0.000 HD
ENDBRANCH   4  24
TORSDOF 7
ENDMDL
MODEL 8
REMARK VINA RESULT:      -5.9      1.381      1.599
REMARK  Name = 
REMARK  7 active torsions:
REMARK  status: ('A' for Active; 'I' for Inactive)
REMARK    1  A    between atoms: C_2  and  C_3
REMARK    2  A    between atoms: C_3  and  C_4
REMARK    3  A    between atoms: C_10  and  O_11
REMARK    4  A    between atoms: C_10  and  C_12
REMARK    5  A    between atoms: C_14  and  O_15
REMARK    6  A    between atoms: C_16  and  O_17
REMARK    7  A    between atoms: C_18  and  N_19
REMARK                            x       y       z     vdW  Elec       q    Type
REMARK                         _______ _______ _______ _____ _____    ______ ____
ROOT
ATOM      1  C   UNL     1       3.244   5.651  18.857  0.00  0.00    +0.000 A 
ATOM      2  C   UNL     1       3.190   4.245  18.883  0.00  0.00    +0.000 A 
ATOM      3  C   UNL     1       3.990   3.502  18.015  0.00  0.00    +0.000 A 
ATOM      4  C   UNL     1       4.834   4.130  17.104  0.00  0.00    +0.000 A 
ATOM      5  C   UNL     1       4.868   5.518  17.066  0.00  0.00    +0.000 A 
ATOM      6  C   UNL     1       4.087   6.291  17.939  0.00  0.00    +0.000 A 
ENDROOT
BRANCH   5   7
ATOM      7  N   UNL     1       5.737   6.202  16.133  0.00  0.00    +0.000 N 
ATOM      8  O   UNL     1       6.954   5.985  16.214  0.00  0.00    +0.000 OA
ATOM      9  O   UNL     1       5.186   6.895  15.267  0.00  0.00    +0.000 OA
ENDBRANCH   5   7
BRANCH   1  11
ATOM     10  C   UNL     1       2.013   7.688  19.556  0.00  0.00    +0.000 C 
ATOM     11  C   UNL     1       2.447   6.435  19.822  0.00  0.00    +0.000 C 
BRANCH  10  12
ATOM     12  C   UNL     1       1.353   8.524  20.607  0.00  0.00    +0.000 C 
ATOM     13  O   UNL     1       1.398   8.162  21.784  0.00  0.00    +0.000 OA
ATOM     14  N   UNL     1       0.817   9.727  20.221  0.00  0.00    +0.000 N 
ATOM     15  C   UNL     1       0.238  10.755  21.082  0.00  0.00    +0.000 C 
ATOM     16  C   UNL     1      -0.893  10.872  20.061  0.00  0.00    +0.000 C 
ATOM     17  C   UNL     1      -0.033  10.074  19.081  0.00  0.00    +0.000 C 
ENDBRANCH  10  12
BRANCH  10  19
ATOM     18  N   UNL     1       2.621   8.873  17.115  0.00  0.00    +0.000 NA
ATOM     19  C   UNL     1       2.345   8.336  18.221  0.00  0.00    +0.000 C 
ENDBRANCH  10  19
BRANCH  11  20
ATOM     20  O   UNL     1       2.259   5.774  21.019  0.00  0.00    +0.000 OA
ATOM     21  H   UNL     1       3.022   5.964  21.612  0.00  0.00    +0.000 HD
ENDBRANCH  11  20
ENDBRANCH   1  11
BRANCH   3  22
ATOM     22  O   UNL     1       3.995   2.133  18.033  0.00  0.00    +0.000 OA
ATOM     23  H   UNL     1       4.195   1.828  18.935  0.00  0.00    +0.000 HD
ENDBRANCH   3  22
BRANCH   4  24
ATOM     24  O   UNL     1       5.622   3.354  16.298  0.00  0.00    +0.000 OA
ATOM     25  H   UNL     1       5.522   2.439  16.631  0.00  0.00    +0.000 HD
ENDBRANCH   4  24
TORSDOF 7
ENDMDL
MODEL 9
REMARK VINA RESULT:      -5.8      1.530      2.797
REMARK  Name = 
REMARK  7 active torsions:
REMARK  status: ('A' for Active; 'I' for Inactive)
REMARK    1  A    between atoms: C_2  and  C_3
REMARK    2  A    between atoms: C_3  and  C_4
REMARK    3  A    between atoms: C_10  and  O_11
REMARK    4  A    between atoms: C_10  and  C_12
REMARK    5  A    between atoms: C_14  and  O_15
REMARK    6  A    between atoms: C_16  and  O_17
REMARK    7  A    between atoms: C_18  and  N_19
REMARK                            x       y       z     vdW  Elec       q    Type
REMARK                         _______ _______ _______ _____ _____    ______ ____
ROOT
ATOM      1  C   UNL     1       2.545   5.851  19.712  0.00  0.00    +0.000 A 
ATOM      2  C   UNL     1       3.952   5.818  19.737  0.00  0.00    +0.000 A 
ATOM      3  C   UNL     1       4.632   4.711  19.227  0.00  0.00    +0.000 A 
ATOM      4  C   UNL     1       3.939   3.622  18.707  0.00  0.00    +0.000 A 
ATOM      5  C   UNL     1       2.549   3.648  18.705  0.00  0.00    +0.000 A 
ATOM      6  C   UNL     1       1.840   4.756  19.195  0.00  0.00    +0.000 A 
ENDROOT
BRANCH   5   7
ATOM      7  N   UNL     1       1.799   2.534  18.168  0.00  0.00    +0.000 N 
ATOM      8  O   UNL     1       0.744   2.222  18.738  0.00  0.00    +0.000 OA
ATOM      9  O   UNL     1       2.232   2.025  17.124  0.00  0.00    +0.000 OA
ENDBRANCH   5   7
BRANCH   1  11
ATOM     10  C   UNL     1       1.746   8.185  19.460  0.00  0.00    +0.000 C 
ATOM     11  C   UNL     1       1.829   7.050  20.190  0.00  0.00    +0.000 C 
BRANCH  10  12
ATOM     12  C   UNL     1       1.163   9.439  20.031  0.00  0.00    +0.000 C 
ATOM     13  O   UNL     1       1.348   9.705  21.220  0.00  0.00    +0.000 OA
ATOM     14  N   UNL     1       0.534  10.301  19.167  0.00  0.00    +0.000 N 
ATOM     15  C   UNL     1       0.002  11.626  19.471  0.00  0.00    +0.000 C 
ATOM     16  C   UNL     1      -1.234  11.236  18.661  0.00  0.00    +0.000 C 
ATOM     17  C   UNL     1      -0.445  10.049  18.110  0.00  0.00    +0.000 C 
ENDBRANCH  10  12
BRANCH  10  19
ATOM     18  N   UNL     1       2.955   8.311  16.959  0.00  0.00    +0.000 NA
ATOM     19  C   UNL     1       2.407   8.254  18.093  0.00  0.00    +0.000 C 
ENDBRANCH  10  19
BRANCH  11  20
ATOM     20  O   UNL     1       1.324   6.896  21.466  0.00  0.00    +0.000 OA
ATOM     21  H   UNL     1       1.041   5.961  21.586  0.00  0.00    +0.000 HD
ENDBRANCH  11  20
ENDBRANCH   1  11
BRANCH   3  22
ATOM     22  O   UNL     1       5.999   4.655  19.199  0.00  0.00    +0.000 OA
ATOM     23  H   UNL     1       6.275   3.952  18.584  0.00  0.00    +0.000 HD
ENDBRANCH   3  22
BRANCH   4  24
ATOM     24  O   UNL     1       4.654   2.577  18.190  0.00  0.00    +0.000 OA
ATOM     25  H   UNL     1       5.480   2.536  18.714  0.00  0.00    +0.000 HD
ENDBRANCH   4  24
TORSDOF 7
ENDMDL
