MODEL 1
REMARK VINA RESULT:      -8.0      0.000      0.000
REMARK  Name = 
REMARK  6 active torsions:
REMARK  status: ('A' for Active; 'I' for Inactive)
REMARK    1  A    between atoms: C_1  and  C_2
REMARK    2  A    between atoms: C_5  and  N_6
REMARK    3  A    between atoms: N_6  and  C_7
REMARK    4  A    between atoms: C_9  and  C_10
REMARK    5  A    between atoms: C_9  and  N_19
REMARK    6  A    between atoms: C_10  and  C_12
REMARK                            x       y       z     vdW  Elec       q    Type
REMARK                         _______ _______ _______ _____ _____    ______ ____
ROOT
ATOM      1  C   UNL     1       4.152   4.036  17.738  0.00  0.00    +0.000 C 
ATOM      2  S   UNL     1       2.575   3.465  17.194  0.00  0.00    +0.000 SA
ATOM      3  C   UNL     1       4.382   5.082  18.602  0.00  0.00    +0.000 C 
ENDROOT
BRANCH   3   4
ATOM      4  N   UNL     1       5.620   5.801  18.473  0.00  0.00    +0.000 N 
ATOM      5  C   UNL     1       5.712   6.859  17.620  0.00  0.00    +0.000 A 
ATOM      6  C   UNL     1       6.900   7.552  17.429  0.00  0.00    +0.000 A 
ATOM      7  C   UNL     1       8.006   7.215  18.184  0.00  0.00    +0.000 A 
ATOM      8  C   UNL     1       7.891   6.199  19.124  0.00  0.00    +0.000 A 
ATOM      9  C   UNL     1       6.686   5.503  19.255  0.00  0.00    +0.000 A 
ENDBRANCH   3   4
BRANCH   1  10
ATOM     10  N   UNL     1       5.217   3.371  17.087  0.00  0.00    +0.000 N 
ATOM     11  H   UNL     1       5.986   3.411  17.772  0.00  0.00    +0.000 HD
BRANCH  10  16
ATOM     12  C   UNL     1       7.485   4.953  12.048  0.00  0.00    +0.000 C 
ATOM     13  C   UNL     1       6.855   4.574  13.355  0.00  0.00    +0.000 A 
ATOM     14  C   UNL     1       5.570   4.034  13.405  0.00  0.00    +0.000 A 
ATOM     15  C   UNL     1       5.008   3.665  14.629  0.00  0.00    +0.000 A 
ATOM     16  C   UNL     1       5.735   3.768  15.815  0.00  0.00    +0.000 A 
ATOM     17  C   UNL     1       6.983   4.387  15.773  0.00  0.00    +0.000 A 
ATOM     18  C   UNL     1       7.545   4.779  14.556  0.00  0.00    +0.000 A 
ENDBRANCH  10  16
ENDBRANCH   1  10
BRANCH   3  19
ATOM     19  C   UNL     1       3.324   5.615  19.563  0.00  0.00    +0.000 C 
ATOM     20  O   UNL     1       2.960   4.917  20.513  0.00  0.00    +0.000 OA
BRANCH  19  21
ATOM     21  C   UNL     1       2.576   6.885  19.297  0.00  0.00    +0.000 A 
ATOM     22  C   UNL     1       2.461   7.426  18.010  0.00  0.00    +0.000 A 
ATOM     23  C   UNL     1       1.847   8.663  17.799  0.00  0.00    +0.000 A 
ATOM     24  C   UNL     1       1.270   9.326  18.872  0.00  0.00    +0.000 A 
ATOM     25  F   UNL     1       0.684  10.513  18.671  0.00  0.00    +0.000 F 
ATOM     26  C   UNL     1       1.283   8.765  20.143  0.00  0.00    +0.000 A 
ATOM     27  C   UNL     1       1.936   7.542  20.360  0.00  0.00    +0.000 A 
ENDBRANCH  19  21
ENDBRANCH   3  19
TORSDOF 5
ENDMDL
MODEL 2
REMARK VINA RESULT:      -7.8      0.152      1.331
REMARK  Name = 
REMARK  6 active torsions:
REMARK  status: ('A' for Active; 'I' for Inactive)
REMARK    1  A    between atoms: C_1  and  C_2
REMARK    2  A    between atoms: C_5  and  N_6
REMARK    3  A    between atoms: N_6  and  C_7
REMARK    4  A    between atoms: C_9  and  C_10
REMARK    5  A    between atoms: C_9  and  N_19
REMARK    6  A    between atoms: C_10  and  C_12
REMARK                            x       y       z     vdW  Elec       q    Type
REMARK                         _______ _______ _______ _____ _____    ______ ____
ROOT
ATOM      1  C   UNL     1       4.238   4.079  17.699  0.00  0.00    +0.000 C 
ATOM      2  S   UNL     1       2.672   3.497  17.135  0.00  0.00    +0.000 SA
ATOM      3  C   UNL     1       4.451   5.125  18.566  0.00  0.00    +0.000 C 
ENDROOT
BRANCH   3   4
ATOM      4  N   UNL     1       5.685   5.853  18.453  0.00  0.00    +0.000 N 
ATOM      5  C   UNL     1       6.762   5.497  19.207  0.00  0.00    +0.000 A 
ATOM      6  C   UNL     1       7.958   6.200  19.165  0.00  0.00    +0.000 A 
ATOM      7  C   UNL     1       8.094   7.245  18.273  0.00  0.00    +0.000 A 
ATOM      8  C   UNL     1       7.032   7.552  17.433  0.00  0.00    +0.000 A 
ATOM      9  C   UNL     1       5.833   6.842  17.538  0.00  0.00    +0.000 A 
ENDBRANCH   3   4
BRANCH   1  10
ATOM     10  N   UNL     1       5.316   3.423  17.058  0.00  0.00    +0.000 N 
ATOM     11  H   UNL     1       6.099   3.538  17.719  0.00  0.00    +0.000 HD
BRANCH  10  16
ATOM     12  C   UNL     1       7.385   4.802  11.876  0.00  0.00    +0.000 C 
ATOM     13  C   UNL     1       6.804   4.474  13.220  0.00  0.00    +0.000 A 
ATOM     14  C   UNL     1       5.556   3.860  13.334  0.00  0.00    +0.000 A 
ATOM     15  C   UNL     1       5.042   3.540  14.592  0.00  0.00    +0.000 A 
ATOM     16  C   UNL     1       5.784   3.766  15.752  0.00  0.00    +0.000 A 
ATOM     17  C   UNL     1       6.990   4.455  15.641  0.00  0.00    +0.000 A 
ATOM     18  C   UNL     1       7.502   4.800  14.388  0.00  0.00    +0.000 A 
ENDBRANCH  10  16
ENDBRANCH   1  10
BRANCH   3  19
ATOM     19  C   UNL     1       3.378   5.648  19.517  0.00  0.00    +0.000 C 
ATOM     20  O   UNL     1       2.980   4.930  20.438  0.00  0.00    +0.000 OA
BRANCH  19  21
ATOM     21  C   UNL     1       2.656   6.937  19.268  0.00  0.00    +0.000 A 
ATOM     22  C   UNL     1       1.964   7.609  20.283  0.00  0.00    +0.000 A 
ATOM     23  C   UNL     1       1.212   8.755  20.007  0.00  0.00    +0.000 A 
ATOM     24  C   UNL     1       1.219   9.278  18.723  0.00  0.00    +0.000 A 
ATOM     25  F   UNL     1       0.497  10.374  18.457  0.00  0.00    +0.000 F 
ATOM     26  C   UNL     1       1.976   8.686  17.719  0.00  0.00    +0.000 A 
ATOM     27  C   UNL     1       2.698   7.513  17.989  0.00  0.00    +0.000 A 
ENDBRANCH  19  21
ENDBRANCH   3  19
TORSDOF 5
ENDMDL
MODEL 3
REMARK VINA RESULT:      -7.8      0.140      1.341
REMARK  Name = 
REMARK  6 active torsions:
REMARK  status: ('A' for Active; 'I' for Inactive)
REMARK    1  A    between atoms: C_1  and  C_2
REMARK    2  A    between atoms: C_5  and  N_6
REMARK    3  A    between atoms: N_6  and  C_7
REMARK    4  A    between atoms: C_9  and  C_10
REMARK    5  A    between atoms: C_9  and  N_19
REMARK    6  A    between atoms: C_10  and  C_12
REMARK                            x       y       z     vdW  Elec       q    Type
REMARK                         _______ _______ _______ _____ _____    ______ ____
ROOT
ATOM      1  C   UNL     1       4.084   4.065  17.750  0.00  0.00    +0.000 C 
ATOM      2  S   UNL     1       2.500   3.543  17.178  0.00  0.00    +0.000 SA
ATOM      3  C   UNL     1       4.331   5.104  18.618  0.00  0.00    +0.000 C 
ENDROOT
BRANCH   3   4
ATOM      4  N   UNL     1       5.593   5.784  18.511  0.00  0.00    +0.000 N 
ATOM      5  C   UNL     1       5.730   6.842  17.664  0.00  0.00    +0.000 A 
ATOM      6  C   UNL     1       6.942   7.499  17.494  0.00  0.00    +0.000 A 
ATOM      7  C   UNL     1       8.025   7.125  18.264  0.00  0.00    +0.000 A 
ATOM      8  C   UNL     1       7.865   6.110  19.198  0.00  0.00    +0.000 A 
ATOM      9  C   UNL     1       6.637   5.451  19.308  0.00  0.00    +0.000 A 
ENDBRANCH   3   4
BRANCH   1  10
ATOM     10  N   UNL     1       5.140   3.368  17.117  0.00  0.00    +0.000 N 
ATOM     11  H   UNL     1       5.864   3.304  17.848  0.00  0.00    +0.000 HD
BRANCH  10  16
ATOM     12  C   UNL     1       7.476   5.156  12.179  0.00  0.00    +0.000 C 
ATOM     13  C   UNL     1       6.907   4.657  13.474  0.00  0.00    +0.000 A 
ATOM     14  C   UNL     1       7.595   4.828  14.676  0.00  0.00    +0.000 A 
ATOM     15  C   UNL     1       7.039   4.379  15.876  0.00  0.00    +0.000 A 
ATOM     16  C   UNL     1       5.765   3.810  15.910  0.00  0.00    +0.000 A 
ATOM     17  C   UNL     1       5.120   3.563  14.701  0.00  0.00    +0.000 A 
ATOM     18  C   UNL     1       5.678   3.989  13.493  0.00  0.00    +0.000 A 
ENDBRANCH  10  16
ENDBRANCH   1  10
BRANCH   3  19
ATOM     19  C   UNL     1       3.274   5.669  19.561  0.00  0.00    +0.000 C 
ATOM     20  O   UNL     1       2.862   4.976  20.496  0.00  0.00    +0.000 OA
BRANCH  19  21
ATOM     21  C   UNL     1       2.582   6.969  19.292  0.00  0.00    +0.000 A 
ATOM     22  C   UNL     1       1.934   7.691  20.302  0.00  0.00    +0.000 A 
ATOM     23  C   UNL     1       1.207   8.848  20.010  0.00  0.00    +0.000 A 
ATOM     24  C   UNL     1       1.196   9.333  18.711  0.00  0.00    +0.000 A 
ATOM     25  F   UNL     1       0.497  10.440  18.430  0.00  0.00    +0.000 F 
ATOM     26  C   UNL     1       1.911   8.690  17.707  0.00  0.00    +0.000 A 
ATOM     27  C   UNL     1       2.607   7.506  17.995  0.00  0.00    +0.000 A 
ENDBRANCH  19  21
ENDBRANCH   3  19
TORSDOF 5
ENDMDL
MODEL 4
REMARK VINA RESULT:      -7.4      3.089      7.369
REMARK  Name = 
REMARK  6 active torsions:
REMARK  status: ('A' for Active; 'I' for Inactive)
REMARK    1  A    between atoms: C_1  and  C_2
REMARK    2  A    between atoms: C_5  and  N_6
REMARK    3  A    between atoms: N_6  and  C_7
REMARK    4  A    between atoms: C_9  and  C_10
REMARK    5  A    between atoms: C_9  and  N_19
REMARK    6  A    between atoms: C_10  and  C_12
REMARK                            x       y       z     vdW  Elec       q    Type
REMARK                         _______ _______ _______ _____ _____    ______ ____
ROOT
ATOM      1  C   UNL     1       3.018   6.695  18.716  0.00  0.00    +0.000 C 
ATOM      2  S   UNL     1       3.574   7.771  17.434  0.00  0.00    +0.000 SA
ATOM      3  C   UNL     1       3.631   5.531  19.120  0.00  0.00    +0.000 C 
ENDROOT
BRANCH   3   4
ATOM      4  N   UNL     1       2.806   4.497  19.685  0.00  0.00    +0.000 N 
ATOM      5  C   UNL     1       2.723   4.349  21.036  0.00  0.00    +0.000 A 
ATOM      6  C   UNL     1       1.976   3.336  21.623  0.00  0.00    +0.000 A 
ATOM      7  C   UNL     1       1.227   2.500  20.820  0.00  0.00    +0.000 A 
ATOM      8  C   UNL     1       1.232   2.707  19.447  0.00  0.00    +0.000 A 
ATOM      9  C   UNL     1       2.029   3.715  18.897  0.00  0.00    +0.000 A 
ENDBRANCH   3   4
BRANCH   1  10
ATOM     10  N   UNL     1       1.763   7.087  19.239  0.00  0.00    +0.000 N 
ATOM     11  H   UNL     1       1.096   6.816  18.501  0.00  0.00    +0.000 HD
BRANCH  10  16
ATOM     12  C   UNL     1       0.619  12.422  21.043  0.00  0.00    +0.000 C 
ATOM     13  C   UNL     1       0.872  11.030  20.546  0.00  0.00    +0.000 A 
ATOM     14  C   UNL     1       0.989  10.763  19.182  0.00  0.00    +0.000 A 
ATOM     15  C   UNL     1       1.249   9.465  18.738  0.00  0.00    +0.000 A 
ATOM     16  C   UNL     1       1.459   8.423  19.643  0.00  0.00    +0.000 A 
ATOM     17  C   UNL     1       1.257   8.675  20.998  0.00  0.00    +0.000 A 
ATOM     18  C   UNL     1       0.975   9.967  21.450  0.00  0.00    +0.000 A 
ENDBRANCH  10  16
ENDBRANCH   1  10
BRANCH   3  19
ATOM     19  C   UNL     1       5.099   5.225  18.844  0.00  0.00    +0.000 C 
ATOM     20  O   UNL     1       5.933   5.388  19.740  0.00  0.00    +0.000 OA
BRANCH  19  21
ATOM     21  C   UNL     1       5.599   4.903  17.470  0.00  0.00    +0.000 A 
ATOM     22  C   UNL     1       6.896   5.228  17.055  0.00  0.00    +0.000 A 
ATOM     23  C   UNL     1       7.308   5.013  15.737  0.00  0.00    +0.000 A 
ATOM     24  C   UNL     1       6.444   4.392  14.849  0.00  0.00    +0.000 A 
ATOM     25  F   UNL     1       6.837   4.187  13.585  0.00  0.00    +0.000 F 
ATOM     26  C   UNL     1       5.185   3.970  15.260  0.00  0.00    +0.000 A 
ATOM     27  C   UNL     1       4.759   4.224  16.573  0.00  0.00    +0.000 A 
ENDBRANCH  19  21
ENDBRANCH   3  19
TORSDOF 5
ENDMDL
MODEL 5
REMARK VINA RESULT:      -7.3      2.513      6.387
REMARK  Name = 
REMARK  6 active torsions:
REMARK  status: ('A' for Active; 'I' for Inactive)
REMARK    1  A    between atoms: C_1  and  C_2
REMARK    2  A    between atoms: C_5  and  N_6
REMARK    3  A    between atoms: N_6  and  C_7
REMARK    4  A    between atoms: C_9  and  C_10
REMARK    5  A    between atoms: C_9  and  N_19
REMARK    6  A    between atoms: C_10  and  C_12
REMARK                            x       y       z     vdW  Elec       q    Type
REMARK                         _______ _______ _______ _____ _____    ______ ____
ROOT
ATOM      1  C   UNL     1       3.560   5.286  18.731  0.00  0.00    +0.000 C 
ATOM      2  S   UNL     1       2.305   4.116  19.138  0.00  0.00    +0.000 SA
ATOM      3  C   UNL     1       4.597   5.089  17.848  0.00  0.00    +0.000 C 
ENDROOT
BRANCH   3   4
ATOM      4  N   UNL     1       5.816   5.817  18.069  0.00  0.00    +0.000 N 
ATOM      5  C   UNL     1       6.035   6.997  17.424  0.00  0.00    +0.000 A 
ATOM      6  C   UNL     1       7.217   7.710  17.571  0.00  0.00    +0.000 A 
ATOM      7  C   UNL     1       8.171   7.258  18.460  0.00  0.00    +0.000 A 
ATOM      8  C   UNL     1       7.912   6.107  19.193  0.00  0.00    +0.000 A 
ATOM      9  C   UNL     1       6.725   5.400  18.984  0.00  0.00    +0.000 A 
ENDBRANCH   3   4
BRANCH   1  10
ATOM     10  N   UNL     1       3.475   6.459  19.517  0.00  0.00    +0.000 N 
ATOM     11  H   UNL     1       3.284   6.104  20.466  0.00  0.00    +0.000 HD
BRANCH  10  16
ATOM     12  C   UNL     1      -0.199  10.790  18.634  0.00  0.00    +0.000 C 
ATOM     13  C   UNL     1       0.732   9.631  18.831  0.00  0.00    +0.000 A 
ATOM     14  C   UNL     1       1.478   9.118  17.768  0.00  0.00    +0.000 A 
ATOM     15  C   UNL     1       2.358   8.054  17.975  0.00  0.00    +0.000 A 
ATOM     16  C   UNL     1       2.559   7.523  19.250  0.00  0.00    +0.000 A 
ATOM     17  C   UNL     1       1.752   7.979  20.290  0.00  0.00    +0.000 A 
ATOM     18  C   UNL     1       0.853   9.029  20.088  0.00  0.00    +0.000 A 
ENDBRANCH  10  16
ENDBRANCH   1  10
BRANCH   3  19
ATOM     19  C   UNL     1       4.572   4.019  16.761  0.00  0.00    +0.000 C 
ATOM     20  O   UNL     1       3.976   2.958  16.966  0.00  0.00    +0.000 OA
BRANCH  19  21
ATOM     21  C   UNL     1       5.397   4.132  15.516  0.00  0.00    +0.000 A 
ATOM     22  C   UNL     1       6.742   4.517  15.547  0.00  0.00    +0.000 A 
ATOM     23  C   UNL     1       7.464   4.716  14.368  0.00  0.00    +0.000 A 
ATOM     24  C   UNL     1       6.859   4.449  13.149  0.00  0.00    +0.000 A 
ATOM     25  F   UNL     1       7.550   4.641  12.017  0.00  0.00    +0.000 F 
ATOM     26  C   UNL     1       5.555   3.971  13.093  0.00  0.00    +0.000 A 
ATOM     27  C   UNL     1       4.819   3.811  14.277  0.00  0.00    +0.000 A 
ENDBRANCH  19  21
ENDBRANCH   3  19
TORSDOF 5
ENDMDL
MODEL 6
REMARK VINA RESULT:      -7.3      3.122      7.368
REMARK  Name = 
REMARK  6 active torsions:
REMARK  status: ('A' for Active; 'I' for Inactive)
REMARK    1  A    between atoms: C_1  and  C_2
REMARK    2  A    between atoms: C_5  and  N_6
REMARK    3  A    between atoms: N_6  and  C_7
REMARK    4  A    between atoms: C_9  and  C_10
REMARK    5  A    between atoms: C_9  and  N_19
REMARK    6  A    between atoms: C_10  and  C_12
REMARK                            x       y       z     vdW  Elec       q    Type
REMARK                         _______ _______ _______ _____ _____    ______ ____
ROOT
ATOM      1  C   UNL     1       2.966   6.729  18.817  0.00  0.00    +0.000 C 
ATOM      2  S   UNL     1       3.476   7.825  17.534  0.00  0.00    +0.000 SA
ATOM      3  C   UNL     1       3.593   5.560  19.182  0.00  0.00    +0.000 C 
ENDROOT
BRANCH   3   4
ATOM      4  N   UNL     1       2.788   4.517  19.758  0.00  0.00    +0.000 N 
ATOM      5  C   UNL     1       2.112   3.650  18.952  0.00  0.00    +0.000 A 
ATOM      6  C   UNL     1       1.287   2.658  19.464  0.00  0.00    +0.000 A 
ATOM      7  C   UNL     1       1.208   2.486  20.832  0.00  0.00    +0.000 A 
ATOM      8  C   UNL     1       1.970   3.305  21.655  0.00  0.00    +0.000 A 
ATOM      9  C   UNL     1       2.757   4.316  21.097  0.00  0.00    +0.000 A 
ENDBRANCH   3   4
BRANCH   1  10
ATOM     10  N   UNL     1       1.729   7.111  19.388  0.00  0.00    +0.000 N 
ATOM     11  H   UNL     1       1.033   6.806  18.690  0.00  0.00    +0.000 HD
BRANCH  10  16
ATOM     12  C   UNL     1       0.550  12.469  21.099  0.00  0.00    +0.000 C 
ATOM     13  C   UNL     1       0.812  11.070  20.626  0.00  0.00    +0.000 A 
ATOM     14  C   UNL     1       0.923  10.778  19.267  0.00  0.00    +0.000 A 
ATOM     15  C   UNL     1       1.191   9.475  18.846  0.00  0.00    +0.000 A 
ATOM     16  C   UNL     1       1.416   8.452  19.769  0.00  0.00    +0.000 A 
ATOM     17  C   UNL     1       1.220   8.728  21.120  0.00  0.00    +0.000 A 
ATOM     18  C   UNL     1       0.930  10.025  21.550  0.00  0.00    +0.000 A 
ENDBRANCH  10  16
ENDBRANCH   1  10
BRANCH   3  19
ATOM     19  C   UNL     1       5.051   5.260  18.852  0.00  0.00    +0.000 C 
ATOM     20  O   UNL     1       5.911   5.391  19.727  0.00  0.00    +0.000 OA
BRANCH  19  21
ATOM     21  C   UNL     1       5.509   4.984  17.452  0.00  0.00    +0.000 A 
ATOM     22  C   UNL     1       4.706   4.306  16.527  0.00  0.00    +0.000 A 
ATOM     23  C   UNL     1       5.191   3.969  15.261  0.00  0.00    +0.000 A 
ATOM     24  C   UNL     1       6.460   4.385  14.887  0.00  0.00    +0.000 A 
ATOM     25  F   UNL     1       6.927   4.061  13.675  0.00  0.00    +0.000 F 
ATOM     26  C   UNL     1       7.241   5.145  15.750  0.00  0.00    +0.000 A 
ATOM     27  C   UNL     1       6.767   5.447  17.036  0.00  0.00    +0.000 A 
ENDBRANCH  19  21
ENDBRANCH   3  19
TORSDOF 5
ENDMDL
MODEL 7
REMARK VINA RESULT:      -7.3      2.517      6.368
REMARK  Name = 
REMARK  6 active torsions:
REMARK  status: ('A' for Active; 'I' for Inactive)
REMARK    1  A    between atoms: C_1  and  C_2
REMARK    2  A    between atoms: C_5  and  N_6
REMARK    3  A    between atoms: N_6  and  C_7
REMARK    4  A    between atoms: C_9  and  C_10
REMARK    5  A    between atoms: C_9  and  N_19
REMARK    6  A    between atoms: C_10  and  C_12
REMARK                            x       y       z     vdW  Elec       q    Type
REMARK                         _______ _______ _______ _____ _____    ______ ____
ROOT
ATOM      1  C   UNL     1       3.670   5.097  18.839  0.00  0.00    +0.000 C 
ATOM      2  S   UNL     1       2.511   3.847  19.290  0.00  0.00    +0.000 SA
ATOM      3  C   UNL     1       4.683   4.970  17.917  0.00  0.00    +0.000 C 
ENDROOT
BRANCH   3   4
ATOM      4  N   UNL     1       5.859   5.777  18.093  0.00  0.00    +0.000 N 
ATOM      5  C   UNL     1       6.854   5.365  18.928  0.00  0.00    +0.000 A 
ATOM      6  C   UNL     1       7.985   6.134  19.165  0.00  0.00    +0.000 A 
ATOM      7  C   UNL     1       8.152   7.318  18.474  0.00  0.00    +0.000 A 
ATOM      8  C   UNL     1       7.187   7.696  17.550  0.00  0.00    +0.000 A 
ATOM      9  C   UNL     1       6.045   6.909  17.372  0.00  0.00    +0.000 A 
ENDBRANCH   3   4
BRANCH   1  10
ATOM     10  N   UNL     1       3.538   6.262  19.632  0.00  0.00    +0.000 N 
ATOM     11  H   UNL     1       3.276   5.897  20.560  0.00  0.00    +0.000 HD
BRANCH  10  16
ATOM     12  C   UNL     1      -0.012  10.647  18.538  0.00  0.00    +0.000 C 
ATOM     13  C   UNL     1       0.887   9.473  18.790  0.00  0.00    +0.000 A 
ATOM     14  C   UNL     1       1.637   8.906  17.759  0.00  0.00    +0.000 A 
ATOM     15  C   UNL     1       2.487   7.829  18.017  0.00  0.00    +0.000 A 
ATOM     16  C   UNL     1       2.654   7.338  19.313  0.00  0.00    +0.000 A 
ATOM     17  C   UNL     1       1.841   7.849  20.322  0.00  0.00    +0.000 A 
ATOM     18  C   UNL     1       0.971   8.912  20.069  0.00  0.00    +0.000 A 
ENDBRANCH  10  16
ENDBRANCH   1  10
BRANCH   3  19
ATOM     19  C   UNL     1       4.686   3.902  16.828  0.00  0.00    +0.000 C 
ATOM     20  O   UNL     1       4.229   2.782  17.073  0.00  0.00    +0.000 OA
BRANCH  19  21
ATOM     21  C   UNL     1       5.390   4.102  15.521  0.00  0.00    +0.000 A 
ATOM     22  C   UNL     1       4.745   3.916  14.292  0.00  0.00    +0.000 A 
ATOM     23  C   UNL     1       5.446   4.008  13.087  0.00  0.00    +0.000 A 
ATOM     24  C   UNL     1       6.785   4.369  13.107  0.00  0.00    +0.000 A 
ATOM     25  F   UNL     1       7.459   4.454  11.952  0.00  0.00    +0.000 F 
ATOM     26  C   UNL     1       7.426   4.655  14.306  0.00  0.00    +0.000 A 
ATOM     27  C   UNL     1       6.730   4.523  15.518  0.00  0.00    +0.000 A 
ENDBRANCH  19  21
ENDBRANCH   3  19
TORSDOF 5
ENDMDL
MODEL 8
REMARK VINA RESULT:      -7.3      2.494      6.408
REMARK  Name = 
REMARK  6 active torsions:
REMARK  status: ('A' for Active; 'I' for Inactive)
REMARK    1  A    between atoms: C_1  and  C_2
REMARK    2  A    between atoms: C_5  and  N_6
REMARK    3  A    between atoms: N_6  and  C_7
REMARK    4  A    between atoms: C_9  and  C_10
REMARK    5  A    between atoms: C_9  and  N_19
REMARK    6  A    between atoms: C_10  and  C_12
REMARK                            x       y       z     vdW  Elec       q    Type
REMARK                         _______ _______ _______ _____ _____    ______ ____
ROOT
ATOM      1  C   UNL     1       3.652   5.138  18.835  0.00  0.00    +0.000 C 
ATOM      2  S   UNL     1       2.478   3.901  19.283  0.00  0.00    +0.000 SA
ATOM      3  C   UNL     1       4.665   4.999  17.914  0.00  0.00    +0.000 C 
ENDROOT
BRANCH   3   4
ATOM      4  N   UNL     1       5.850   5.793  18.093  0.00  0.00    +0.000 N 
ATOM      5  C   UNL     1       6.840   5.366  18.925  0.00  0.00    +0.000 A 
ATOM      6  C   UNL     1       7.980   6.122  19.164  0.00  0.00    +0.000 A 
ATOM      7  C   UNL     1       8.160   7.306  18.478  0.00  0.00    +0.000 A 
ATOM      8  C   UNL     1       7.198   7.700  17.557  0.00  0.00    +0.000 A 
ATOM      9  C   UNL     1       6.048   6.926  17.377  0.00  0.00    +0.000 A 
ENDBRANCH   3   4
BRANCH   1  10
ATOM     10  N   UNL     1       3.532   6.303  19.629  0.00  0.00    +0.000 N 
ATOM     11  H   UNL     1       3.344   5.936  20.574  0.00  0.00    +0.000 HD
BRANCH  10  16
ATOM     12  C   UNL     1      -0.249  10.443  18.368  0.00  0.00    +0.000 C 
ATOM     13  C   UNL     1       0.761   9.396  18.730  0.00  0.00    +0.000 A 
ATOM     14  C   UNL     1       0.864   8.915  20.036  0.00  0.00    +0.000 A 
ATOM     15  C   UNL     1       1.793   7.923  20.351  0.00  0.00    +0.000 A 
ATOM     16  C   UNL     1       2.592   7.346  19.363  0.00  0.00    +0.000 A 
ATOM     17  C   UNL     1       2.549   7.886  18.079  0.00  0.00    +0.000 A 
ATOM     18  C   UNL     1       1.637   8.895  17.760  0.00  0.00    +0.000 A 
ENDBRANCH  10  16
ENDBRANCH   1  10
BRANCH   3  19
ATOM     19  C   UNL     1       4.657   3.933  16.824  0.00  0.00    +0.000 C 
ATOM     20  O   UNL     1       4.106   2.849  17.038  0.00  0.00    +0.000 OA
BRANCH  19  21
ATOM     21  C   UNL     1       5.452   4.080  15.563  0.00  0.00    +0.000 A 
ATOM     22  C   UNL     1       6.796   4.471  15.572  0.00  0.00    +0.000 A 
ATOM     23  C   UNL     1       7.489   4.702  14.381  0.00  0.00    +0.000 A 
ATOM     24  C   UNL     1       6.857   4.460  13.170  0.00  0.00    +0.000 A 
ATOM     25  F   UNL     1       7.520   4.684  12.028  0.00  0.00    +0.000 F 
ATOM     26  C   UNL     1       5.554   3.977  13.133  0.00  0.00    +0.000 A 
ATOM     27  C   UNL     1       4.847   3.785  14.330  0.00  0.00    +0.000 A 
ENDBRANCH  19  21
ENDBRANCH   3  19
TORSDOF 5
ENDMDL
MODEL 9
REMARK VINA RESULT:      -7.2      2.525      6.332
REMARK  Name = 
REMARK  6 active torsions:
REMARK  status: ('A' for Active; 'I' for Inactive)
REMARK    1  A    between atoms: C_1  and  C_2
REMARK    2  A    between atoms: C_5  and  N_6
REMARK    3  A    between atoms: N_6  and  C_7
REMARK    4  A    between atoms: C_9  and  C_10
REMARK    5  A    between atoms: C_9  and  N_19
REMARK    6  A    between atoms: C_10  and  C_12
REMARK                            x       y       z     vdW  Elec       q    Type
REMARK                         _______ _______ _______ _____ _____    ______ ____
ROOT
ATOM      1  C   UNL     1       3.653   5.184  18.802  0.00  0.00    +0.000 C 
ATOM      2  S   UNL     1       2.441   3.978  19.234  0.00  0.00    +0.000 SA
ATOM      3  C   UNL     1       4.680   5.016  17.901  0.00  0.00    +0.000 C 
ENDROOT
BRANCH   3   4
ATOM      4  N   UNL     1       5.880   5.782  18.099  0.00  0.00    +0.000 N 
ATOM      5  C   UNL     1       6.055   6.962  17.441  0.00  0.00    +0.000 A 
ATOM      6  C   UNL     1       7.218   7.711  17.566  0.00  0.00    +0.000 A 
ATOM      7  C   UNL     1       8.198   7.293  18.444  0.00  0.00    +0.000 A 
ATOM      8  C   UNL     1       7.983   6.141  19.189  0.00  0.00    +0.000 A 
ATOM      9  C   UNL     1       6.814   5.398  19.003  0.00  0.00    +0.000 A 
ENDBRANCH   3   4
BRANCH   1  10
ATOM     10  N   UNL     1       3.547   6.356  19.588  0.00  0.00    +0.000 N 
ATOM     11  H   UNL     1       3.382   5.997  20.541  0.00  0.00    +0.000 HD
BRANCH  10  16
ATOM     12  C   UNL     1      -0.272  10.475  18.375  0.00  0.00    +0.000 C 
ATOM     13  C   UNL     1       0.748   9.433  18.726  0.00  0.00    +0.000 A 
ATOM     14  C   UNL     1       0.856   8.940  20.027  0.00  0.00    +0.000 A 
ATOM     15  C   UNL     1       1.795   7.953  20.330  0.00  0.00    +0.000 A 
ATOM     16  C   UNL     1       2.598   7.393  19.334  0.00  0.00    +0.000 A 
ATOM     17  C   UNL     1       2.547   7.946  18.057  0.00  0.00    +0.000 A 
ATOM     18  C   UNL     1       1.626   8.950  17.749  0.00  0.00    +0.000 A 
ENDBRANCH  10  16
ENDBRANCH   1  10
BRANCH   3  19
ATOM     19  C   UNL     1       4.667   3.945  16.816  0.00  0.00    +0.000 C 
ATOM     20  O   UNL     1       4.186   2.835  17.064  0.00  0.00    +0.000 OA
BRANCH  19  21
ATOM     21  C   UNL     1       5.380   4.126  15.511  0.00  0.00    +0.000 A 
ATOM     22  C   UNL     1       4.748   3.909  14.281  0.00  0.00    +0.000 A 
ATOM     23  C   UNL     1       5.460   3.983  13.081  0.00  0.00    +0.000 A 
ATOM     24  C   UNL     1       6.794   4.358  13.105  0.00  0.00    +0.000 A 
ATOM     25  F   UNL     1       7.478   4.428  11.956  0.00  0.00    +0.000 F 
ATOM     26  C   UNL     1       7.421   4.675  14.305  0.00  0.00    +0.000 A 
ATOM     27  C   UNL     1       6.716   4.560  15.512  0.00  0.00    +0.000 A 
ENDBRANCH  19  21
ENDBRANCH   3  19
TORSDOF 5
ENDMDL
