MODEL 1
REMARK VINA RESULT:      -8.0      0.000      0.000
REMARK  Name = 
REMARK  3 active torsions:
REMARK  status: ('A' for Active; 'I' for Inactive)
REMARK    1  A    between atoms: C_2  and  C_4
REMARK    2  A    between atoms: N_10  and  C_11
REMARK    3  A    between atoms: C_11  and  C_12
REMARK                            x       y       z     vdW  Elec       q    Type
REMARK                         _______ _______ _______ _____ _____    ______ ____
ROOT
ATOM      1  C   UNL     1      -0.548  10.855  20.884  0.00  0.00    +0.000 A 
ATOM      2  C   UNL     1      -0.696  10.556  22.251  0.00  0.00    +0.000 A 
ATOM      3  C   UNL     1       0.043   9.532  22.823  0.00  0.00    +0.000 A 
ATOM      4  C   UNL     1       0.902   8.786  22.023  0.00  0.00    +0.000 A 
ATOM      5  C   UNL     1       1.045   9.059  20.637  0.00  0.00    +0.000 A 
ATOM      6  C   UNL     1       1.839   8.284  19.761  0.00  0.00    +0.000 A 
ATOM      7  N   UNL     1       2.509   7.148  20.241  0.00  0.00    +0.000 N 
ATOM      8  N   UNL     1       1.932   8.567  18.453  0.00  0.00    +0.000 NA
ATOM      9  C   UNL     1       1.243   9.617  18.010  0.00  0.00    +0.000 A 
ATOM     10  N   UNL     1       0.455  10.409  18.743  0.00  0.00    +0.000 NA
ATOM     11  C   UNL     1       0.327  10.124  20.057  0.00  0.00    +0.000 A 
ATOM     12  H   UNL     1       3.198   7.385  20.948  0.00  0.00    +0.000 HD
ENDROOT
BRANCH   1  14
ATOM     13  N   UNL     1      -2.134  11.743  19.244  0.00  0.00    +0.000 N 
ATOM     14  C   UNL     1      -1.399  11.968  20.372  0.00  0.00    +0.000 C 
ATOM     15  O   UNL     1      -1.426  13.061  20.927  0.00  0.00    +0.000 OA
ATOM     16  H   UNL     1      -2.801  12.452  18.971  0.00  0.00    +0.000 HD
ATOM     17  H   UNL     1      -2.275  10.791  18.922  0.00  0.00    +0.000 HD
ENDBRANCH   1  14
BRANCH   7  18
ATOM     18  C   UNL     1       2.963   6.159  19.272  0.00  0.00    +0.000 C 
BRANCH  18  19
ATOM     19  C   UNL     1       2.263   4.826  19.416  0.00  0.00    +0.000 A 
ATOM     20  C   UNL     1       1.813   4.119  18.289  0.00  0.00    +0.000 A 
ATOM     21  C   UNL     1       1.104   2.920  18.433  0.00  0.00    +0.000 A 
ATOM     22  C   UNL     1       0.837   2.415  19.704  0.00  0.00    +0.000 A 
ATOM     23  C   UNL     1       1.279   3.113  20.820  0.00  0.00    +0.000 A 
ATOM     24  F   UNL     1       1.007   2.641  22.044  0.00  0.00    +0.000 F 
ATOM     25  C   UNL     1       1.984   4.306  20.688  0.00  0.00    +0.000 A 
ENDBRANCH  18  19
ENDBRANCH   7  18
TORSDOF 3
ENDMDL
MODEL 2
REMARK VINA RESULT:      -7.8      1.296      1.617
REMARK  Name = 
REMARK  3 active torsions:
REMARK  status: ('A' for Active; 'I' for Inactive)
REMARK    1  A    between atoms: C_2  and  C_4
REMARK    2  A    between atoms: N_10  and  C_11
REMARK    3  A    between atoms: C_11  and  C_12
REMARK                            x       y       z     vdW  Elec       q    Type
REMARK                         _______ _______ _______ _____ _____    ______ ____
ROOT
ATOM      1  C   UNL     1      -0.675  11.106  21.355  0.00  0.00    +0.000 A 
ATOM      2  C   UNL     1      -0.812  10.641  22.675  0.00  0.00    +0.000 A 
ATOM      3  C   UNL     1      -0.106   9.525  23.096  0.00  0.00    +0.000 A 
ATOM      4  C   UNL     1       0.709   8.855  22.191  0.00  0.00    +0.000 A 
ATOM      5  C   UNL     1       0.840   9.296  20.847  0.00  0.00    +0.000 A 
ATOM      6  C   UNL     1       1.588   8.611  19.864  0.00  0.00    +0.000 A 
ATOM      7  N   UNL     1       2.219   7.398  20.181  0.00  0.00    +0.000 N 
ATOM      8  N   UNL     1       1.671   9.054  18.600  0.00  0.00    +0.000 NA
ATOM      9  C   UNL     1       1.018  10.178  18.309  0.00  0.00    +0.000 A 
ATOM     10  N   UNL     1       0.274  10.899  19.153  0.00  0.00    +0.000 NA
ATOM     11  C   UNL     1       0.156  10.454  20.423  0.00  0.00    +0.000 A 
ATOM     12  H   UNL     1       2.928   7.517  20.898  0.00  0.00    +0.000 HD
ENDROOT
BRANCH   1  14
ATOM     13  N   UNL     1      -0.829  13.420  20.569  0.00  0.00    +0.000 N 
ATOM     14  C   UNL     1      -1.488  12.307  21.006  0.00  0.00    +0.000 C 
ATOM     15  O   UNL     1      -2.708  12.311  21.125  0.00  0.00    +0.000 OA
ATOM     16  H   UNL     1      -1.387  14.186  20.216  0.00  0.00    +0.000 HD
ATOM     17  H   UNL     1       0.138  13.341  20.269  0.00  0.00    +0.000 HD
ENDBRANCH   1  14
BRANCH   7  18
ATOM     18  C   UNL     1       2.616   6.524  19.085  0.00  0.00    +0.000 C 
BRANCH  18  19
ATOM     19  C   UNL     1       2.101   5.111  19.239  0.00  0.00    +0.000 A 
ATOM     20  C   UNL     1       1.445   4.703  20.411  0.00  0.00    +0.000 A 
ATOM     21  C   UNL     1       1.031   3.375  20.575  0.00  0.00    +0.000 A 
ATOM     22  C   UNL     1       1.270   2.440  19.569  0.00  0.00    +0.000 A 
ATOM     23  C   UNL     1       1.920   2.840  18.409  0.00  0.00    +0.000 A 
ATOM     24  F   UNL     1       2.168   1.940  17.448  0.00  0.00    +0.000 F 
ATOM     25  C   UNL     1       2.335   4.158  18.236  0.00  0.00    +0.000 A 
ENDBRANCH  18  19
ENDBRANCH   7  18
TORSDOF 3
ENDMDL
MODEL 3
REMARK VINA RESULT:      -7.7      5.770      8.099
REMARK  Name = 
REMARK  3 active torsions:
REMARK  status: ('A' for Active; 'I' for Inactive)
REMARK    1  A    between atoms: C_2  and  C_4
REMARK    2  A    between atoms: N_10  and  C_11
REMARK    3  A    between atoms: C_11  and  C_12
REMARK                            x       y       z     vdW  Elec       q    Type
REMARK                         _______ _______ _______ _____ _____    ______ ____
ROOT
ATOM      1  C   UNL     1       2.543   3.318  19.824  0.00  0.00    +0.000 A 
ATOM      2  C   UNL     1       2.096   2.118  19.243  0.00  0.00    +0.000 A 
ATOM      3  C   UNL     1       2.765   1.581  18.155  0.00  0.00    +0.000 A 
ATOM      4  C   UNL     1       3.859   2.259  17.627  0.00  0.00    +0.000 A 
ATOM      5  C   UNL     1       4.309   3.484  18.187  0.00  0.00    +0.000 A 
ATOM      6  C   UNL     1       5.361   4.256  17.645  0.00  0.00    +0.000 A 
ATOM      7  N   UNL     1       5.997   3.845  16.464  0.00  0.00    +0.000 N 
ATOM      8  N   UNL     1       5.743   5.419  18.196  0.00  0.00    +0.000 NA
ATOM      9  C   UNL     1       5.088   5.816  19.285  0.00  0.00    +0.000 A 
ATOM     10  N   UNL     1       4.074   5.174  19.874  0.00  0.00    +0.000 NA
ATOM     11  C   UNL     1       3.658   4.016  19.318  0.00  0.00    +0.000 A 
ATOM     12  H   UNL     1       6.468   2.953  16.578  0.00  0.00    +0.000 HD
ENDROOT
BRANCH   1  14
ATOM     13  N   UNL     1       1.143   5.032  20.871  0.00  0.00    +0.000 N 
ATOM     14  C   UNL     1       1.743   3.812  20.983  0.00  0.00    +0.000 C 
ATOM     15  O   UNL     1       1.640   3.158  22.015  0.00  0.00    +0.000 OA
ATOM     16  H   UNL     1       0.503   5.308  21.603  0.00  0.00    +0.000 HD
ATOM     17  H   UNL     1       1.051   5.461  19.955  0.00  0.00    +0.000 HD
ENDBRANCH   1  14
BRANCH   7  18
ATOM     18  C   UNL     1       6.763   4.834  15.716  0.00  0.00    +0.000 C 
BRANCH  18  19
ATOM     19  C   UNL     1       6.832   4.534  14.236  0.00  0.00    +0.000 A 
ATOM     20  C   UNL     1       7.708   5.238  13.394  0.00  0.00    +0.000 A 
ATOM     21  C   UNL     1       7.717   5.002  12.013  0.00  0.00    +0.000 A 
ATOM     22  C   UNL     1       6.851   4.062  11.460  0.00  0.00    +0.000 A 
ATOM     23  C   UNL     1       5.983   3.366  12.289  0.00  0.00    +0.000 A 
ATOM     24  F   UNL     1       5.135   2.474  11.758  0.00  0.00    +0.000 F 
ATOM     25  C   UNL     1       5.965   3.591  13.663  0.00  0.00    +0.000 A 
ENDBRANCH  18  19
ENDBRANCH   7  18
TORSDOF 3
ENDMDL
MODEL 4
REMARK VINA RESULT:      -7.7      4.239      7.668
REMARK  Name = 
REMARK  3 active torsions:
REMARK  status: ('A' for Active; 'I' for Inactive)
REMARK    1  A    between atoms: C_2  and  C_4
REMARK    2  A    between atoms: N_10  and  C_11
REMARK    3  A    between atoms: C_11  and  C_12
REMARK                            x       y       z     vdW  Elec       q    Type
REMARK                         _______ _______ _______ _____ _____    ______ ____
ROOT
ATOM      1  C   UNL     1       3.468   3.017  19.966  0.00  0.00    +0.000 A 
ATOM      2  C   UNL     1       2.428   2.987  20.912  0.00  0.00    +0.000 A 
ATOM      3  C   UNL     1       1.499   4.015  20.956  0.00  0.00    +0.000 A 
ATOM      4  C   UNL     1       1.629   5.086  20.079  0.00  0.00    +0.000 A 
ATOM      5  C   UNL     1       2.688   5.144  19.133  0.00  0.00    +0.000 A 
ATOM      6  C   UNL     1       2.916   6.242  18.275  0.00  0.00    +0.000 A 
ATOM      7  N   UNL     1       2.098   7.379  18.357  0.00  0.00    +0.000 N 
ATOM      8  N   UNL     1       3.940   6.262  17.408  0.00  0.00    +0.000 NA
ATOM      9  C   UNL     1       4.736   5.195  17.387  0.00  0.00    +0.000 A 
ATOM     10  N   UNL     1       4.621   4.110  18.159  0.00  0.00    +0.000 NA
ATOM     11  C   UNL     1       3.612   4.083  19.056  0.00  0.00    +0.000 A 
ATOM     12  H   UNL     1       1.132   7.168  18.128  0.00  0.00    +0.000 HD
ENDROOT
BRANCH   1  14
ATOM     13  N   UNL     1       4.404   0.983  18.974  0.00  0.00    +0.000 N 
ATOM     14  C   UNL     1       4.417   1.866  20.014  0.00  0.00    +0.000 C 
ATOM     15  O   UNL     1       5.173   1.699  20.965  0.00  0.00    +0.000 OA
ATOM     16  H   UNL     1       5.128   0.279  18.948  0.00  0.00    +0.000 HD
ATOM     17  H   UNL     1       3.942   1.241  18.106  0.00  0.00    +0.000 HD
ENDBRANCH   1  14
BRANCH   7  18
ATOM     18  C   UNL     1       2.592   8.623  17.781  0.00  0.00    +0.000 C 
BRANCH  18  19
ATOM     19  C   UNL     1       1.705   9.810  18.086  0.00  0.00    +0.000 A 
ATOM     20  C   UNL     1       2.244  11.099  18.229  0.00  0.00    +0.000 A 
ATOM     21  C   UNL     1       1.426  12.180  18.580  0.00  0.00    +0.000 A 
ATOM     22  C   UNL     1       0.063  11.986  18.792  0.00  0.00    +0.000 A 
ATOM     23  C   UNL     1      -0.472  10.712  18.654  0.00  0.00    +0.000 A 
ATOM     24  F   UNL     1      -1.779  10.517  18.877  0.00  0.00    +0.000 F 
ATOM     25  C   UNL     1       0.331   9.630  18.305  0.00  0.00    +0.000 A 
ENDBRANCH  18  19
ENDBRANCH   7  18
TORSDOF 3
ENDMDL
MODEL 5
REMARK VINA RESULT:      -7.7      6.343      8.951
REMARK  Name = 
REMARK  3 active torsions:
REMARK  status: ('A' for Active; 'I' for Inactive)
REMARK    1  A    between atoms: C_2  and  C_4
REMARK    2  A    between atoms: N_10  and  C_11
REMARK    3  A    between atoms: C_11  and  C_12
REMARK                            x       y       z     vdW  Elec       q    Type
REMARK                         _______ _______ _______ _____ _____    ______ ____
ROOT
ATOM      1  C   UNL     1       3.552   4.637  17.565  0.00  0.00    +0.000 A 
ATOM      2  C   UNL     1       2.550   5.542  17.957  0.00  0.00    +0.000 A 
ATOM      3  C   UNL     1       2.837   6.894  18.063  0.00  0.00    +0.000 A 
ATOM      4  C   UNL     1       4.132   7.336  17.810  0.00  0.00    +0.000 A 
ATOM      5  C   UNL     1       5.161   6.431  17.436  0.00  0.00    +0.000 A 
ATOM      6  C   UNL     1       6.509   6.810  17.246  0.00  0.00    +0.000 A 
ATOM      7  N   UNL     1       6.903   8.138  17.468  0.00  0.00    +0.000 N 
ATOM      8  N   UNL     1       7.455   5.918  16.909  0.00  0.00    +0.000 NA
ATOM      9  C   UNL     1       7.067   4.654  16.758  0.00  0.00    +0.000 A 
ATOM     10  N   UNL     1       5.826   4.184  16.923  0.00  0.00    +0.000 NA
ATOM     11  C   UNL     1       4.867   5.061  17.288  0.00  0.00    +0.000 A 
ATOM     12  H   UNL     1       6.443   8.781  16.832  0.00  0.00    +0.000 HD
ENDROOT
BRANCH   1  14
ATOM     13  N   UNL     1       3.960   2.272  18.055  0.00  0.00    +0.000 N 
ATOM     14  C   UNL     1       3.137   3.206  17.494  0.00  0.00    +0.000 C 
ATOM     15  O   UNL     1       2.100   2.866  16.934  0.00  0.00    +0.000 OA
ATOM     16  H   UNL     1       3.619   1.323  18.116  0.00  0.00    +0.000 HD
ATOM     17  H   UNL     1       4.690   2.571  18.695  0.00  0.00    +0.000 HD
ENDBRANCH   1  14
BRANCH   7  18
ATOM     18  C   UNL     1       8.321   8.408  17.672  0.00  0.00    +0.000 C 
BRANCH  18  19
ATOM     19  C   UNL     1       8.588   9.802  18.193  0.00  0.00    +0.000 A 
ATOM     20  C   UNL     1       8.211  10.936  17.456  0.00  0.00    +0.000 A 
ATOM     21  C   UNL     1       8.524  12.223  17.912  0.00  0.00    +0.000 A 
ATOM     22  C   UNL     1       9.217  12.390  19.109  0.00  0.00    +0.000 A 
ATOM     23  C   UNL     1       9.593  11.270  19.840  0.00  0.00    +0.000 A 
ATOM     24  F   UNL     1      10.277  11.426  20.982  0.00  0.00    +0.000 F 
ATOM     25  C   UNL     1       9.287   9.987  19.396  0.00  0.00    +0.000 A 
ENDBRANCH  18  19
ENDBRANCH   7  18
TORSDOF 3
ENDMDL
MODEL 6
REMARK VINA RESULT:      -7.6      4.735      7.800
REMARK  Name = 
REMARK  3 active torsions:
REMARK  status: ('A' for Active; 'I' for Inactive)
REMARK    1  A    between atoms: C_2  and  C_4
REMARK    2  A    between atoms: N_10  and  C_11
REMARK    3  A    between atoms: C_11  and  C_12
REMARK                            x       y       z     vdW  Elec       q    Type
REMARK                         _______ _______ _______ _____ _____    ______ ____
ROOT
ATOM      1  C   UNL     1       6.533   4.823  16.692  0.00  0.00    +0.000 A 
ATOM      2  C   UNL     1       7.595   5.328  17.464  0.00  0.00    +0.000 A 
ATOM      3  C   UNL     1       7.384   5.684  18.786  0.00  0.00    +0.000 A 
ATOM      4  C   UNL     1       6.108   5.569  19.327  0.00  0.00    +0.000 A 
ATOM      5  C   UNL     1       5.019   5.084  18.554  0.00  0.00    +0.000 A 
ATOM      6  C   UNL     1       3.688   5.021  19.024  0.00  0.00    +0.000 A 
ATOM      7  N   UNL     1       3.374   5.493  20.307  0.00  0.00    +0.000 N 
ATOM      8  N   UNL     1       2.686   4.571  18.253  0.00  0.00    +0.000 NA
ATOM      9  C   UNL     1       3.000   4.180  17.019  0.00  0.00    +0.000 A 
ATOM     10  N   UNL     1       4.218   4.207  16.469  0.00  0.00    +0.000 NA
ATOM     11  C   UNL     1       5.235   4.681  17.220  0.00  0.00    +0.000 A 
ATOM     12  H   UNL     1       3.847   4.963  21.032  0.00  0.00    +0.000 HD
ENDROOT
BRANCH   1  14
ATOM     13  N   UNL     1       6.351   3.330  14.760  0.00  0.00    +0.000 N 
ATOM     14  C   UNL     1       6.868   4.481  15.279  0.00  0.00    +0.000 C 
ATOM     15  O   UNL     1       7.603   5.194  14.604  0.00  0.00    +0.000 OA
ATOM     16  H   UNL     1       6.476   3.164  13.771  0.00  0.00    +0.000 HD
ATOM     17  H   UNL     1       5.585   2.867  15.239  0.00  0.00    +0.000 HD
ENDBRANCH   1  14
BRANCH   7  18
ATOM     18  C   UNL     1       1.980   5.801  20.603  0.00  0.00    +0.000 C 
BRANCH  18  19
ATOM     19  C   UNL     1       1.632   7.253  20.365  0.00  0.00    +0.000 A 
ATOM     20  C   UNL     1       0.929   7.996  21.327  0.00  0.00    +0.000 A 
ATOM     21  C   UNL     1       0.549   9.320  21.070  0.00  0.00    +0.000 A 
ATOM     22  C   UNL     1       0.867   9.914  19.851  0.00  0.00    +0.000 A 
ATOM     23  C   UNL     1       1.560   9.181  18.897  0.00  0.00    +0.000 A 
ATOM     24  F   UNL     1       1.850   9.743  17.716  0.00  0.00    +0.000 F 
ATOM     25  C   UNL     1       1.943   7.865  19.141  0.00  0.00    +0.000 A 
ENDBRANCH  18  19
ENDBRANCH   7  18
TORSDOF 3
ENDMDL
MODEL 7
REMARK VINA RESULT:      -7.6      1.397      1.555
REMARK  Name = 
REMARK  3 active torsions:
REMARK  status: ('A' for Active; 'I' for Inactive)
REMARK    1  A    between atoms: C_2  and  C_4
REMARK    2  A    between atoms: N_10  and  C_11
REMARK    3  A    between atoms: C_11  and  C_12
REMARK                            x       y       z     vdW  Elec       q    Type
REMARK                         _______ _______ _______ _____ _____    ______ ____
ROOT
ATOM      1  C   UNL     1      -0.780  11.203  21.309  0.00  0.00    +0.000 A 
ATOM      2  C   UNL     1      -0.936  10.841  22.659  0.00  0.00    +0.000 A 
ATOM      3  C   UNL     1      -0.230   9.766  23.177  0.00  0.00    +0.000 A 
ATOM      4  C   UNL     1       0.603   9.034  22.338  0.00  0.00    +0.000 A 
ATOM      5  C   UNL     1       0.753   9.371  20.966  0.00  0.00    +0.000 A 
ATOM      6  C   UNL     1       1.521   8.616  20.051  0.00  0.00    +0.000 A 
ATOM      7  N   UNL     1       2.153   7.437  20.471  0.00  0.00    +0.000 N 
ATOM      8  N   UNL     1       1.621   8.962  18.758  0.00  0.00    +0.000 NA
ATOM      9  C   UNL     1       0.967  10.055  18.371  0.00  0.00    +0.000 A 
ATOM     10  N   UNL     1       0.205  10.834  19.145  0.00  0.00    +0.000 NA
ATOM     11  C   UNL     1       0.070  10.487  20.444  0.00  0.00    +0.000 A 
ATOM     12  H   UNL     1       2.850   7.615  21.187  0.00  0.00    +0.000 HD
ENDROOT
BRANCH   1  14
ATOM     13  N   UNL     1      -0.942  13.415  20.271  0.00  0.00    +0.000 N 
ATOM     14  C   UNL     1      -1.594  12.369  20.856  0.00  0.00    +0.000 C 
ATOM     15  O   UNL     1      -2.809  12.403  21.019  0.00  0.00    +0.000 OA
ATOM     16  H   UNL     1      -1.505  14.144  19.854  0.00  0.00    +0.000 HD
ATOM     17  H   UNL     1       0.012  13.290  19.947  0.00  0.00    +0.000 HD
ENDBRANCH   1  14
BRANCH   7  18
ATOM     18  C   UNL     1       2.573   6.483  19.451  0.00  0.00    +0.000 C 
BRANCH  18  19
ATOM     19  C   UNL     1       2.446   5.045  19.899  0.00  0.00    +0.000 A 
ATOM     20  C   UNL     1       1.307   4.599  20.591  0.00  0.00    +0.000 A 
ATOM     21  C   UNL     1       1.227   3.283  21.064  0.00  0.00    +0.000 A 
ATOM     22  C   UNL     1       2.282   2.399  20.851  0.00  0.00    +0.000 A 
ATOM     23  C   UNL     1       3.410   2.837  20.170  0.00  0.00    +0.000 A 
ATOM     24  F   UNL     1       4.435   1.995  19.980  0.00  0.00    +0.000 F 
ATOM     25  C   UNL     1       3.501   4.142  19.695  0.00  0.00    +0.000 A 
ENDBRANCH  18  19
ENDBRANCH   7  18
TORSDOF 3
ENDMDL
MODEL 8
REMARK VINA RESULT:      -7.5      4.411      7.834
REMARK  Name = 
REMARK  3 active torsions:
REMARK  status: ('A' for Active; 'I' for Inactive)
REMARK    1  A    between atoms: C_2  and  C_4
REMARK    2  A    between atoms: N_10  and  C_11
REMARK    3  A    between atoms: C_11  and  C_12
REMARK                            x       y       z     vdW  Elec       q    Type
REMARK                         _______ _______ _______ _____ _____    ______ ____
ROOT
ATOM      1  C   UNL     1       3.468   2.975  19.989  0.00  0.00    +0.000 A 
ATOM      2  C   UNL     1       2.431   2.924  20.938  0.00  0.00    +0.000 A 
ATOM      3  C   UNL     1       1.483   3.934  20.986  0.00  0.00    +0.000 A 
ATOM      4  C   UNL     1       1.591   5.009  20.112  0.00  0.00    +0.000 A 
ATOM      5  C   UNL     1       2.645   5.088  19.163  0.00  0.00    +0.000 A 
ATOM      6  C   UNL     1       2.851   6.193  18.306  0.00  0.00    +0.000 A 
ATOM      7  N   UNL     1       2.012   7.314  18.393  0.00  0.00    +0.000 N 
ATOM      8  N   UNL     1       3.872   6.234  17.436  0.00  0.00    +0.000 NA
ATOM      9  C   UNL     1       4.687   5.181  17.411  0.00  0.00    +0.000 A 
ATOM     10  N   UNL     1       4.595   4.093  18.181  0.00  0.00    +0.000 NA
ATOM     11  C   UNL     1       3.590   4.045  19.081  0.00  0.00    +0.000 A 
ATOM     12  H   UNL     1       1.049   7.085  18.166  0.00  0.00    +0.000 HD
ENDROOT
BRANCH   1  14
ATOM     13  N   UNL     1       4.426   0.951  18.999  0.00  0.00    +0.000 N 
ATOM     14  C   UNL     1       4.438   1.842  20.032  0.00  0.00    +0.000 C 
ATOM     15  O   UNL     1       5.210   1.696  20.973  0.00  0.00    +0.000 OA
ATOM     16  H   UNL     1       5.163   0.260  18.968  0.00  0.00    +0.000 HD
ATOM     17  H   UNL     1       3.949   1.193  18.136  0.00  0.00    +0.000 HD
ENDBRANCH   1  14
BRANCH   7  18
ATOM     18  C   UNL     1       2.481   8.568  17.818  0.00  0.00    +0.000 C 
BRANCH  18  19
ATOM     19  C   UNL     1       1.802   9.782  18.412  0.00  0.00    +0.000 A 
ATOM     20  C   UNL     1       0.711   9.646  19.286  0.00  0.00    +0.000 A 
ATOM     21  C   UNL     1       0.043  10.775  19.777  0.00  0.00    +0.000 A 
ATOM     22  C   UNL     1       0.457  12.051  19.399  0.00  0.00    +0.000 A 
ATOM     23  C   UNL     1       1.533  12.188  18.534  0.00  0.00    +0.000 A 
ATOM     24  F   UNL     1       1.922  13.412  18.153  0.00  0.00    +0.000 F 
ATOM     25  C   UNL     1       2.205  11.073  18.040  0.00  0.00    +0.000 A 
ENDBRANCH  18  19
ENDBRANCH   7  18
TORSDOF 3
ENDMDL
MODEL 9
REMARK VINA RESULT:      -7.5      3.587      5.045
REMARK  Name = 
REMARK  3 active torsions:
REMARK  status: ('A' for Active; 'I' for Inactive)
REMARK    1  A    between atoms: C_2  and  C_4
REMARK    2  A    between atoms: N_10  and  C_11
REMARK    3  A    between atoms: C_11  and  C_12
REMARK                            x       y       z     vdW  Elec       q    Type
REMARK                         _______ _______ _______ _____ _____    ______ ____
ROOT
ATOM      1  C   UNL     1       0.914   9.128  20.765  0.00  0.00    +0.000 A 
ATOM      2  C   UNL     1       0.879  10.282  19.963  0.00  0.00    +0.000 A 
ATOM      3  C   UNL     1       1.386  10.248  18.674  0.00  0.00    +0.000 A 
ATOM      4  C   UNL     1       1.959   9.073  18.199  0.00  0.00    +0.000 A 
ATOM      5  C   UNL     1       2.024   7.905  19.005  0.00  0.00    +0.000 A 
ATOM      6  C   UNL     1       2.664   6.710  18.607  0.00  0.00    +0.000 A 
ATOM      7  N   UNL     1       3.320   6.644  17.368  0.00  0.00    +0.000 N 
ATOM      8  N   UNL     1       2.717   5.634  19.407  0.00  0.00    +0.000 NA
ATOM      9  C   UNL     1       2.135   5.739  20.600  0.00  0.00    +0.000 A 
ATOM     10  N   UNL     1       1.514   6.819  21.083  0.00  0.00    +0.000 NA
ATOM     11  C   UNL     1       1.473   7.921  20.303  0.00  0.00    +0.000 A 
ATOM     12  H   UNL     1       2.678   6.773  16.592  0.00  0.00    +0.000 HD
ENDROOT
BRANCH   1  14
ATOM     13  N   UNL     1      -0.791   8.595  22.440  0.00  0.00    +0.000 N 
ATOM     14  C   UNL     1       0.351   9.279  22.138  0.00  0.00    +0.000 C 
ATOM     15  O   UNL     1       0.877  10.011  22.970  0.00  0.00    +0.000 OA
ATOM     16  H   UNL     1      -1.100   8.600  23.403  0.00  0.00    +0.000 HD
ATOM     17  H   UNL     1      -1.093   7.837  21.835  0.00  0.00    +0.000 HD
ENDBRANCH   1  14
BRANCH   7  18
ATOM     18  C   UNL     1       4.299   5.584  17.165  0.00  0.00    +0.000 C 
BRANCH  18  19
ATOM     19  C   UNL     1       5.671   5.936  17.695  0.00  0.00    +0.000 A 
ATOM     20  C   UNL     1       6.261   5.193  18.730  0.00  0.00    +0.000 A 
ATOM     21  C   UNL     1       7.501   5.567  19.263  0.00  0.00    +0.000 A 
ATOM     22  C   UNL     1       8.164   6.688  18.768  0.00  0.00    +0.000 A 
ATOM     23  C   UNL     1       7.582   7.426  17.746  0.00  0.00    +0.000 A 
ATOM     24  F   UNL     1       8.208   8.516  17.280  0.00  0.00    +0.000 F 
ATOM     25  C   UNL     1       6.351   7.063  17.209  0.00  0.00    +0.000 A 
ENDBRANCH  18  19
ENDBRANCH   7  18
TORSDOF 3
ENDMDL
