MODEL 1
REMARK VINA RESULT:      -7.0      0.000      0.000
REMARK  Name = 
REMARK  18 active torsions:
REMARK  status: ('A' for Active; 'I' for Inactive)
REMARK    1  A    between atoms: C_1  and  C_2
REMARK    2  A    between atoms: C_2  and  C_3
REMARK    3  A    between atoms: C_3  and  C_4
REMARK    4  A    between atoms: C_4  and  C_5
REMARK    5  A    between atoms: C_5  and  C_6
REMARK    6  A    between atoms: C_6  and  C_7
REMARK    7  A    between atoms: C_7  and  C_8
REMARK    8  A    between atoms: C_8  and  C_9
REMARK    9  A    between atoms: C_9  and  C_10
REMARK   10  A    between atoms: C_10  and  C_11
REMARK   11  A    between atoms: C_11  and  C_12
REMARK   12  A    between atoms: C_12  and  C_13
REMARK   13  A    between atoms: C_13  and  C_14
REMARK   14  A    between atoms: C_14  and  O_16
REMARK   15  A    between atoms: O_16  and  C_17
REMARK   16  A    between atoms: C_17  and  C_18
REMARK   17  A    between atoms: C_18  and  C_19
REMARK   18  A    between atoms: C_19  and  O_20
REMARK                            x       y       z     vdW  Elec       q    Type
REMARK                         _______ _______ _______ _____ _____    ______ ____
ROOT
ATOM      1  C   UNL     1       6.553   5.020  19.071  0.00  0.00    +0.000 C 
ATOM      2  O   UNL     1       6.990   5.560  20.077  0.00  0.00    +0.000 OA
ENDROOT
BRANCH   1   3
ATOM      3  O   UNL     1       5.269   4.593  18.898  0.00  0.00    +0.000 OA
BRANCH   3   4
ATOM      4  C   UNL     1       4.876   3.424  19.646  0.00  0.00    +0.000 C 
BRANCH   4   5
ATOM      5  C   UNL     1       3.360   3.325  19.890  0.00  0.00    +0.000 C 
ATOM      6  C   UNL     1       2.697   4.665  20.215  0.00  0.00    +0.000 C 
ATOM      7  C   UNL     1       1.227   4.488  19.885  0.00  0.00    +0.000 C 
ATOM      8  S   UNL     1       1.200   3.369  18.491  0.00  0.00    +0.000 S 
ATOM      9  O   UNL     1       1.122   4.124  17.263  0.00  0.00    +0.000 OA
ATOM     10  O   UNL     1       0.322   2.255  18.788  0.00  0.00    +0.000 OA
ATOM     11  O   UNL     1       2.729   2.856  18.692  0.00  0.00    +0.000 OA
BRANCH   5  12
ATOM     12  C   UNL     1       3.106   2.298  21.005  0.00  0.00    +0.000 C 
BRANCH  12  13
ATOM     13  O   UNL     1       2.618   2.971  22.150  0.00  0.00    +0.000 OA
ATOM     14  H   UNL     1       3.241   3.683  22.375  0.00  0.00    +0.000 HD
ENDBRANCH  12  13
ENDBRANCH   5  12
ENDBRANCH   4   5
ENDBRANCH   3   4
ENDBRANCH   1   3
BRANCH   1  15
ATOM     15  C   UNL     1       7.360   4.686  17.843  0.00  0.00    +0.000 C 
BRANCH  15  16
ATOM     16  C   UNL     1       7.319   5.855  16.871  0.00  0.00    +0.000 C 
BRANCH  16  17
ATOM     17  C   UNL     1       5.916   6.412  16.703  0.00  0.00    +0.000 C 
BRANCH  17  18
ATOM     18  C   UNL     1       5.336   5.939  15.376  0.00  0.00    +0.000 C 
BRANCH  18  19
ATOM     19  C   UNL     1       5.337   4.421  15.296  0.00  0.00    +0.000 C 
BRANCH  19  20
ATOM     20  C   UNL     1       6.396   3.944  14.313  0.00  0.00    +0.000 C 
BRANCH  20  21
ATOM     21  C   UNL     1       5.937   4.193  12.885  0.00  0.00    +0.000 C 
BRANCH  21  22
ATOM     22  C   UNL     1       6.392   3.063  11.975  0.00  0.00    +0.000 C 
BRANCH  22  23
ATOM     23  C   UNL     1       5.195   2.422  11.287  0.00  0.00    +0.000 C 
BRANCH  23  24
ATOM     24  C   UNL     1       3.923   3.200  11.593  0.00  0.00    +0.000 C 
BRANCH  24  25
ATOM     25  C   UNL     1       2.988   3.193  10.390  0.00  0.00    +0.000 C 
BRANCH  25  27
ATOM     26  C   UNL     1       2.072   5.037   8.963  0.00  0.00    +0.000 C 
ATOM     27  C   UNL     1       3.329   4.327   9.430  0.00  0.00    +0.000 C 
ENDBRANCH  25  27
ENDBRANCH  24  25
ENDBRANCH  23  24
ENDBRANCH  22  23
ENDBRANCH  21  22
ENDBRANCH  20  21
ENDBRANCH  19  20
ENDBRANCH  18  19
ENDBRANCH  17  18
ENDBRANCH  16  17
ENDBRANCH  15  16
ENDBRANCH   1  15
TORSDOF 17
ENDMDL
MODEL 2
REMARK VINA RESULT:      -6.9      3.781      7.064
REMARK  Name = 
REMARK  18 active torsions:
REMARK  status: ('A' for Active; 'I' for Inactive)
REMARK    1  A    between atoms: C_1  and  C_2
REMARK    2  A    between atoms: C_2  and  C_3
REMARK    3  A    between atoms: C_3  and  C_4
REMARK    4  A    between atoms: C_4  and  C_5
REMARK    5  A    between atoms: C_5  and  C_6
REMARK    6  A    between atoms: C_6  and  C_7
REMARK    7  A    between atoms: C_7  and  C_8
REMARK    8  A    between atoms: C_8  and  C_9
REMARK    9  A    between atoms: C_9  and  C_10
REMARK   10  A    between atoms: C_10  and  C_11
REMARK   11  A    between atoms: C_11  and  C_12
REMARK   12  A    between atoms: C_12  and  C_13
REMARK   13  A    between atoms: C_13  and  C_14
REMARK   14  A    between atoms: C_14  and  O_16
REMARK   15  A    between atoms: O_16  and  C_17
REMARK   16  A    between atoms: C_17  and  C_18
REMARK   17  A    between atoms: C_18  and  C_19
REMARK   18  A    between atoms: C_19  and  O_20
REMARK                            x       y       z     vdW  Elec       q    Type
REMARK                         _______ _______ _______ _____ _____    ______ ____
ROOT
ATOM      1  C   UNL     1       4.788   3.216  19.465  0.00  0.00    +0.000 C 
ATOM      2  O   UNL     1       5.180   2.392  20.280  0.00  0.00    +0.000 OA
ENDROOT
BRANCH   1   3
ATOM      3  O   UNL     1       5.050   4.554  19.507  0.00  0.00    +0.000 OA
BRANCH   3   4
ATOM      4  C   UNL     1       6.419   4.946  19.271  0.00  0.00    +0.000 C 
BRANCH   4   5
ATOM      5  C   UNL     1       6.675   5.480  17.851  0.00  0.00    +0.000 C 
ATOM      6  C   UNL     1       7.469   4.519  16.964  0.00  0.00    +0.000 C 
ATOM      7  C   UNL     1       7.157   4.925  15.535  0.00  0.00    +0.000 C 
ATOM      8  S   UNL     1       5.466   5.501  15.579  0.00  0.00    +0.000 S 
ATOM      9  O   UNL     1       4.578   4.429  15.196  0.00  0.00    +0.000 OA
ATOM     10  O   UNL     1       5.396   6.827  14.998  0.00  0.00    +0.000 OA
ATOM     11  O   UNL     1       5.415   5.669  17.195  0.00  0.00    +0.000 OA
BRANCH   5  12
ATOM     12  C   UNL     1       7.377   6.842  17.956  0.00  0.00    +0.000 C 
BRANCH  12  13
ATOM     13  O   UNL     1       8.292   6.810  19.035  0.00  0.00    +0.000 OA
ATOM     14  H   UNL     1       8.418   5.882  19.300  0.00  0.00    +0.000 HD
ENDBRANCH  12  13
ENDBRANCH   5  12
ENDBRANCH   4   5
ENDBRANCH   3   4
ENDBRANCH   1   3
BRANCH   1  15
ATOM     15  C   UNL     1       3.904   2.916  18.282  0.00  0.00    +0.000 C 
BRANCH  15  16
ATOM     16  C   UNL     1       2.997   1.740  18.608  0.00  0.00    +0.000 C 
BRANCH  16  17
ATOM     17  C   UNL     1       1.577   2.179  18.920  0.00  0.00    +0.000 C 
BRANCH  17  18
ATOM     18  C   UNL     1       1.520   2.750  20.331  0.00  0.00    +0.000 C 
BRANCH  18  19
ATOM     19  C   UNL     1       0.808   4.093  20.341  0.00  0.00    +0.000 C 
BRANCH  19  20
ATOM     20  C   UNL     1       1.820   5.228  20.409  0.00  0.00    +0.000 C 
BRANCH  20  21
ATOM     21  C   UNL     1       2.005   5.850  19.035  0.00  0.00    +0.000 C 
BRANCH  21  22
ATOM     22  C   UNL     1       2.565   7.258  19.158  0.00  0.00    +0.000 C 
BRANCH  22  23
ATOM     23  C   UNL     1       2.500   7.974  17.817  0.00  0.00    +0.000 C 
BRANCH  23  24
ATOM     24  C   UNL     1       1.706   9.267  17.940  0.00  0.00    +0.000 C 
BRANCH  24  25
ATOM     25  C   UNL     1       1.114   9.402  19.338  0.00  0.00    +0.000 C 
BRANCH  25  27
ATOM     26  C   UNL     1      -0.873  10.047  17.955  0.00  0.00    +0.000 C 
ATOM     27  C   UNL     1      -0.188  10.193  19.302  0.00  0.00    +0.000 C 
ENDBRANCH  25  27
ENDBRANCH  24  25
ENDBRANCH  23  24
ENDBRANCH  22  23
ENDBRANCH  21  22
ENDBRANCH  20  21
ENDBRANCH  19  20
ENDBRANCH  18  19
ENDBRANCH  17  18
ENDBRANCH  16  17
ENDBRANCH  15  16
ENDBRANCH   1  15
TORSDOF 17
ENDMDL
MODEL 3
REMARK VINA RESULT:      -6.9      3.481      7.443
REMARK  Name = 
REMARK  18 active torsions:
REMARK  status: ('A' for Active; 'I' for Inactive)
REMARK    1  A    between atoms: C_1  and  C_2
REMARK    2  A    between atoms: C_2  and  C_3
REMARK    3  A    between atoms: C_3  and  C_4
REMARK    4  A    between atoms: C_4  and  C_5
REMARK    5  A    between atoms: C_5  and  C_6
REMARK    6  A    between atoms: C_6  and  C_7
REMARK    7  A    between atoms: C_7  and  C_8
REMARK    8  A    between atoms: C_8  and  C_9
REMARK    9  A    between atoms: C_9  and  C_10
REMARK   10  A    between atoms: C_10  and  C_11
REMARK   11  A    between atoms: C_11  and  C_12
REMARK   12  A    between atoms: C_12  and  C_13
REMARK   13  A    between atoms: C_13  and  C_14
REMARK   14  A    between atoms: C_14  and  O_16
REMARK   15  A    between atoms: O_16  and  C_17
REMARK   16  A    between atoms: C_17  and  C_18
REMARK   17  A    between atoms: C_18  and  C_19
REMARK   18  A    between atoms: C_19  and  O_20
REMARK                            x       y       z     vdW  Elec       q    Type
REMARK                         _______ _______ _______ _____ _____    ______ ____
ROOT
ATOM      1  C   UNL     1       1.980   3.409  17.640  0.00  0.00    +0.000 C 
ATOM      2  O   UNL     1       1.042   4.043  17.175  0.00  0.00    +0.000 OA
ENDROOT
BRANCH   1   3
ATOM      3  O   UNL     1       3.295   3.617  17.348  0.00  0.00    +0.000 OA
BRANCH   3   4
ATOM      4  C   UNL     1       3.748   4.987  17.370  0.00  0.00    +0.000 C 
BRANCH   4   5
ATOM      5  C   UNL     1       5.260   5.144  17.127  0.00  0.00    +0.000 C 
ATOM      6  C   UNL     1       5.750   6.591  17.200  0.00  0.00    +0.000 C 
ATOM      7  C   UNL     1       7.238   6.508  17.485  0.00  0.00    +0.000 C 
ATOM      8  S   UNL     1       7.429   5.055  18.509  0.00  0.00    +0.000 S 
ATOM      9  O   UNL     1       7.443   5.440  19.901  0.00  0.00    +0.000 OA
ATOM     10  O   UNL     1       8.427   4.184  17.922  0.00  0.00    +0.000 OA
ATOM     11  O   UNL     1       5.968   4.438  18.153  0.00  0.00    +0.000 OA
BRANCH   5  12
ATOM     12  C   UNL     1       5.609   4.510  15.772  0.00  0.00    +0.000 C 
BRANCH  12  13
ATOM     13  O   UNL     1       5.999   3.165  15.977  0.00  0.00    +0.000 OA
ATOM     14  H   UNL     1       6.189   2.767  15.111  0.00  0.00    +0.000 HD
ENDBRANCH  12  13
ENDBRANCH   5  12
ENDBRANCH   4   5
ENDBRANCH   3   4
ENDBRANCH   1   3
BRANCH   1  15
ATOM     15  C   UNL     1       1.857   2.249  18.594  0.00  0.00    +0.000 C 
BRANCH  15  16
ATOM     16  C   UNL     1       2.883   2.393  19.707  0.00  0.00    +0.000 C 
BRANCH  16  17
ATOM     17  C   UNL     1       2.239   2.725  21.042  0.00  0.00    +0.000 C 
BRANCH  17  18
ATOM     18  C   UNL     1       1.351   3.953  20.887  0.00  0.00    +0.000 C 
BRANCH  18  19
ATOM     19  C   UNL     1       2.188   5.198  20.645  0.00  0.00    +0.000 C 
BRANCH  19  20
ATOM     20  C   UNL     1       1.372   6.449  20.934  0.00  0.00    +0.000 C 
BRANCH  20  21
ATOM     21  C   UNL     1       1.999   7.654  20.251  0.00  0.00    +0.000 C 
BRANCH  21  22
ATOM     22  C   UNL     1       1.926   7.508  18.739  0.00  0.00    +0.000 C 
BRANCH  22  23
ATOM     23  C   UNL     1       2.675   8.645  18.060  0.00  0.00    +0.000 C 
BRANCH  23  24
ATOM     24  C   UNL     1       1.776   9.865  17.913  0.00  0.00    +0.000 C 
BRANCH  24  25
ATOM     25  C   UNL     1       0.309   9.451  17.900  0.00  0.00    +0.000 C 
BRANCH  25  27
ATOM     26  C   UNL     1      -1.934  10.509  18.249  0.00  0.00    +0.000 C 
ATOM     27  C   UNL     1      -0.522  10.368  18.789  0.00  0.00    +0.000 C 
ENDBRANCH  25  27
ENDBRANCH  24  25
ENDBRANCH  23  24
ENDBRANCH  22  23
ENDBRANCH  21  22
ENDBRANCH  20  21
ENDBRANCH  19  20
ENDBRANCH  18  19
ENDBRANCH  17  18
ENDBRANCH  16  17
ENDBRANCH  15  16
ENDBRANCH   1  15
TORSDOF 17
ENDMDL
MODEL 4
REMARK VINA RESULT:      -6.6      3.391      7.885
REMARK  Name = 
REMARK  18 active torsions:
REMARK  status: ('A' for Active; 'I' for Inactive)
REMARK    1  A    between atoms: C_1  and  C_2
REMARK    2  A    between atoms: C_2  and  C_3
REMARK    3  A    between atoms: C_3  and  C_4
REMARK    4  A    between atoms: C_4  and  C_5
REMARK    5  A    between atoms: C_5  and  C_6
REMARK    6  A    between atoms: C_6  and  C_7
REMARK    7  A    between atoms: C_7  and  C_8
REMARK    8  A    between atoms: C_8  and  C_9
REMARK    9  A    between atoms: C_9  and  C_10
REMARK   10  A    between atoms: C_10  and  C_11
REMARK   11  A    between atoms: C_11  and  C_12
REMARK   12  A    between atoms: C_12  and  C_13
REMARK   13  A    between atoms: C_13  and  C_14
REMARK   14  A    between atoms: C_14  and  O_16
REMARK   15  A    between atoms: O_16  and  C_17
REMARK   16  A    between atoms: C_17  and  C_18
REMARK   17  A    between atoms: C_18  and  C_19
REMARK   18  A    between atoms: C_19  and  O_20
REMARK                            x       y       z     vdW  Elec       q    Type
REMARK                         _______ _______ _______ _____ _____    ______ ____
ROOT
ATOM      1  C   UNL     1       2.326   2.890  17.760  0.00  0.00    +0.000 C 
ATOM      2  O   UNL     1       1.420   3.487  17.194  0.00  0.00    +0.000 OA
ENDROOT
BRANCH   1   3
ATOM      3  O   UNL     1       3.628   2.864  17.354  0.00  0.00    +0.000 OA
BRANCH   3   4
ATOM      4  C   UNL     1       3.992   3.789  16.308  0.00  0.00    +0.000 C 
BRANCH   4   5
ATOM      5  C   UNL     1       5.300   4.552  16.583  0.00  0.00    +0.000 C 
ATOM      6  C   UNL     1       5.105   6.055  16.793  0.00  0.00    +0.000 C 
ATOM      7  C   UNL     1       6.326   6.525  17.562  0.00  0.00    +0.000 C 
ATOM      8  S   UNL     1       6.764   5.148  18.614  0.00  0.00    +0.000 S 
ATOM      9  O   UNL     1       6.185   5.333  19.923  0.00  0.00    +0.000 OA
ATOM     10  O   UNL     1       8.160   4.815  18.410  0.00  0.00    +0.000 OA
ATOM     11  O   UNL     1       5.875   4.059  17.799  0.00  0.00    +0.000 OA
BRANCH   5  12
ATOM     12  C   UNL     1       6.282   4.278  15.434  0.00  0.00    +0.000 C 
BRANCH  12  13
ATOM     13  O   UNL     1       6.315   5.402  14.575  0.00  0.00    +0.000 OA
ATOM     14  H   UNL     1       5.506   5.922  14.721  0.00  0.00    +0.000 HD
ENDBRANCH  12  13
ENDBRANCH   5  12
ENDBRANCH   4   5
ENDBRANCH   3   4
ENDBRANCH   1   3
BRANCH   1  15
ATOM     15  C   UNL     1       2.169   2.035  18.991  0.00  0.00    +0.000 C 
BRANCH  15  16
ATOM     16  C   UNL     1       2.481   2.862  20.229  0.00  0.00    +0.000 C 
BRANCH  16  17
ATOM     17  C   UNL     1       1.398   3.886  20.522  0.00  0.00    +0.000 C 
BRANCH  17  18
ATOM     18  C   UNL     1       2.041   5.233  20.825  0.00  0.00    +0.000 C 
BRANCH  18  19
ATOM     19  C   UNL     1       2.682   5.819  19.577  0.00  0.00    +0.000 C 
BRANCH  19  20
ATOM     20  C   UNL     1       2.439   7.319  19.512  0.00  0.00    +0.000 C 
BRANCH  20  21
ATOM     21  C   UNL     1       2.074   7.731  18.095  0.00  0.00    +0.000 C 
BRANCH  21  22
ATOM     22  C   UNL     1       2.135   9.243  17.947  0.00  0.00    +0.000 C 
BRANCH  22  23
ATOM     23  C   UNL     1       0.750   9.849  18.123  0.00  0.00    +0.000 C 
BRANCH  23  24
ATOM     24  C   UNL     1       0.622  10.500  19.493  0.00  0.00    +0.000 C 
BRANCH  24  25
ATOM     25  C   UNL     1      -0.535   9.886  20.272  0.00  0.00    +0.000 C 
BRANCH  25  27
ATOM     26  C   UNL     1      -0.505   9.567  22.756  0.00  0.00    +0.000 C 
ATOM     27  C   UNL     1      -0.022   9.028  21.422  0.00  0.00    +0.000 C 
ENDBRANCH  25  27
ENDBRANCH  24  25
ENDBRANCH  23  24
ENDBRANCH  22  23
ENDBRANCH  21  22
ENDBRANCH  20  21
ENDBRANCH  19  20
ENDBRANCH  18  19
ENDBRANCH  17  18
ENDBRANCH  16  17
ENDBRANCH  15  16
ENDBRANCH   1  15
TORSDOF 17
ENDMDL
MODEL 5
REMARK VINA RESULT:      -6.5      1.851      2.659
REMARK  Name = 
REMARK  18 active torsions:
REMARK  status: ('A' for Active; 'I' for Inactive)
REMARK    1  A    between atoms: C_1  and  C_2
REMARK    2  A    between atoms: C_2  and  C_3
REMARK    3  A    between atoms: C_3  and  C_4
REMARK    4  A    between atoms: C_4  and  C_5
REMARK    5  A    between atoms: C_5  and  C_6
REMARK    6  A    between atoms: C_6  and  C_7
REMARK    7  A    between atoms: C_7  and  C_8
REMARK    8  A    between atoms: C_8  and  C_9
REMARK    9  A    between atoms: C_9  and  C_10
REMARK   10  A    between atoms: C_10  and  C_11
REMARK   11  A    between atoms: C_11  and  C_12
REMARK   12  A    between atoms: C_12  and  C_13
REMARK   13  A    between atoms: C_13  and  C_14
REMARK   14  A    between atoms: C_14  and  O_16
REMARK   15  A    between atoms: O_16  and  C_17
REMARK   16  A    between atoms: C_17  and  C_18
REMARK   17  A    between atoms: C_18  and  C_19
REMARK   18  A    between atoms: C_19  and  O_20
REMARK                            x       y       z     vdW  Elec       q    Type
REMARK                         _______ _______ _______ _____ _____    ______ ____
ROOT
ATOM      1  C   UNL     1       3.585   7.470  17.693  0.00  0.00    +0.000 C 
ATOM      2  O   UNL     1       2.741   8.351  17.601  0.00  0.00    +0.000 OA
ENDROOT
BRANCH   1   3
ATOM      3  O   UNL     1       3.532   6.414  18.554  0.00  0.00    +0.000 OA
BRANCH   3   4
ATOM      4  C   UNL     1       2.300   5.664  18.575  0.00  0.00    +0.000 C 
BRANCH   4   5
ATOM      5  C   UNL     1       2.336   4.438  19.505  0.00  0.00    +0.000 C 
ATOM      6  C   UNL     1       1.217   3.428  19.239  0.00  0.00    +0.000 C 
ATOM      7  C   UNL     1       1.706   2.112  19.815  0.00  0.00    +0.000 C 
ATOM      8  S   UNL     1       3.476   2.132  19.569  0.00  0.00    +0.000 S 
ATOM      9  O   UNL     1       3.806   1.428  18.353  0.00  0.00    +0.000 OA
ATOM     10  O   UNL     1       4.138   1.873  20.833  0.00  0.00    +0.000 OA
ATOM     11  O   UNL     1       3.562   3.730  19.288  0.00  0.00    +0.000 OA
BRANCH   5  12
ATOM     12  C   UNL     1       2.307   4.923  20.962  0.00  0.00    +0.000 C 
BRANCH  12  13
ATOM     13  O   UNL     1       2.017   6.308  20.983  0.00  0.00    +0.000 OA
ATOM     14  H   UNL     1       1.252   6.451  21.566  0.00  0.00    +0.000 HD
ENDBRANCH  12  13
ENDBRANCH   5  12
ENDBRANCH   4   5
ENDBRANCH   3   4
ENDBRANCH   1   3
BRANCH   1  15
ATOM     15  C   UNL     1       4.864   7.405  16.899  0.00  0.00    +0.000 C 
BRANCH  15  16
ATOM     16  C   UNL     1       6.038   7.183  17.840  0.00  0.00    +0.000 C 
BRANCH  16  17
ATOM     17  C   UNL     1       7.161   6.402  17.181  0.00  0.00    +0.000 C 
BRANCH  17  18
ATOM     18  C   UNL     1       6.888   4.909  17.311  0.00  0.00    +0.000 C 
BRANCH  18  19
ATOM     19  C   UNL     1       7.016   4.217  15.963  0.00  0.00    +0.000 C 
BRANCH  19  20
ATOM     20  C   UNL     1       6.155   4.919  14.924  0.00  0.00    +0.000 C 
BRANCH  20  21
ATOM     21  C   UNL     1       6.420   4.340  13.544  0.00  0.00    +0.000 C 
BRANCH  21  22
ATOM     22  C   UNL     1       5.184   3.627  13.019  0.00  0.00    +0.000 C 
BRANCH  22  23
ATOM     23  C   UNL     1       5.508   2.882  11.732  0.00  0.00    +0.000 C 
BRANCH  23  24
ATOM     24  C   UNL     1       4.230   2.501  10.998  0.00  0.00    +0.000 C 
BRANCH  24  25
ATOM     25  C   UNL     1       3.369   3.733  10.747  0.00  0.00    +0.000 C 
BRANCH  25  27
ATOM     26  C   UNL     1       2.149   5.065   9.012  0.00  0.00    +0.000 C 
ATOM     27  C   UNL     1       3.137   3.939   9.255  0.00  0.00    +0.000 C 
ENDBRANCH  25  27
ENDBRANCH  24  25
ENDBRANCH  23  24
ENDBRANCH  22  23
ENDBRANCH  21  22
ENDBRANCH  20  21
ENDBRANCH  19  20
ENDBRANCH  18  19
ENDBRANCH  17  18
ENDBRANCH  16  17
ENDBRANCH  15  16
ENDBRANCH   1  15
TORSDOF 17
ENDMDL
MODEL 6
REMARK VINA RESULT:      -6.5      4.725      8.019
REMARK  Name = 
REMARK  18 active torsions:
REMARK  status: ('A' for Active; 'I' for Inactive)
REMARK    1  A    between atoms: C_1  and  C_2
REMARK    2  A    between atoms: C_2  and  C_3
REMARK    3  A    between atoms: C_3  and  C_4
REMARK    4  A    between atoms: C_4  and  C_5
REMARK    5  A    between atoms: C_5  and  C_6
REMARK    6  A    between atoms: C_6  and  C_7
REMARK    7  A    between atoms: C_7  and  C_8
REMARK    8  A    between atoms: C_8  and  C_9
REMARK    9  A    between atoms: C_9  and  C_10
REMARK   10  A    between atoms: C_10  and  C_11
REMARK   11  A    between atoms: C_11  and  C_12
REMARK   12  A    between atoms: C_12  and  C_13
REMARK   13  A    between atoms: C_13  and  C_14
REMARK   14  A    between atoms: C_14  and  O_16
REMARK   15  A    between atoms: O_16  and  C_17
REMARK   16  A    between atoms: C_17  and  C_18
REMARK   17  A    between atoms: C_18  and  C_19
REMARK   18  A    between atoms: C_19  and  O_20
REMARK                            x       y       z     vdW  Elec       q    Type
REMARK                         _______ _______ _______ _____ _____    ______ ____
ROOT
ATOM      1  C   UNL     1       1.771   3.964  18.121  0.00  0.00    +0.000 C 
ATOM      2  O   UNL     1       0.924   4.404  17.355  0.00  0.00    +0.000 OA
ENDROOT
BRANCH   1   3
ATOM      3  O   UNL     1       3.049   3.634  17.779  0.00  0.00    +0.000 OA
BRANCH   3   4
ATOM      4  C   UNL     1       3.866   4.698  17.248  0.00  0.00    +0.000 C 
BRANCH   4   5
ATOM      5  C   UNL     1       5.300   4.716  17.805  0.00  0.00    +0.000 C 
ATOM      6  C   UNL     1       6.313   3.977  16.928  0.00  0.00    +0.000 C 
ATOM      7  C   UNL     1       7.671   4.542  17.303  0.00  0.00    +0.000 C 
ATOM      8  S   UNL     1       7.360   6.255  17.708  0.00  0.00    +0.000 S 
ATOM      9  O   UNL     1       7.620   7.082  16.554  0.00  0.00    +0.000 OA
ATOM     10  O   UNL     1       7.903   6.542  19.021  0.00  0.00    +0.000 OA
ATOM     11  O   UNL     1       5.753   6.073  17.870  0.00  0.00    +0.000 OA
BRANCH   5  12
ATOM     12  C   UNL     1       5.282   4.142  19.230  0.00  0.00    +0.000 C 
BRANCH  12  13
ATOM     13  O   UNL     1       5.203   2.731  19.160  0.00  0.00    +0.000 OA
ATOM     14  H   UNL     1       4.322   2.459  19.471  0.00  0.00    +0.000 HD
ENDBRANCH  12  13
ENDBRANCH   5  12
ENDBRANCH   4   5
ENDBRANCH   3   4
ENDBRANCH   1   3
BRANCH   1  15
ATOM     15  C   UNL     1       1.550   3.664  19.580  0.00  0.00    +0.000 C 
BRANCH  15  16
ATOM     16  C   UNL     1       1.259   4.955  20.329  0.00  0.00    +0.000 C 
BRANCH  16  17
ATOM     17  C   UNL     1       2.437   5.914  20.297  0.00  0.00    +0.000 C 
BRANCH  17  18
ATOM     18  C   UNL     1       1.956   7.297  19.875  0.00  0.00    +0.000 C 
BRANCH  18  19
ATOM     19  C   UNL     1       2.615   7.724  18.574  0.00  0.00    +0.000 C 
BRANCH  19  20
ATOM     20  C   UNL     1       1.876   8.909  17.970  0.00  0.00    +0.000 C 
BRANCH  20  21
ATOM     21  C   UNL     1       0.852   9.446  18.956  0.00  0.00    +0.000 C 
BRANCH  21  22
ATOM     22  C   UNL     1       0.028  10.554  18.318  0.00  0.00    +0.000 C 
BRANCH  22  23
ATOM     23  C   UNL     1      -1.355  10.617  18.951  0.00  0.00    +0.000 C 
BRANCH  23  24
ATOM     24  C   UNL     1      -2.283  11.492  18.119  0.00  0.00    +0.000 C 
BRANCH  24  25
ATOM     25  C   UNL     1      -3.582  10.755  17.814  0.00  0.00    +0.000 C 
BRANCH  25  27
ATOM     26  C   UNL     1      -5.766  11.919  17.427  0.00  0.00    +0.000 C 
ATOM     27  C   UNL     1      -4.429  11.538  16.818  0.00  0.00    +0.000 C 
ENDBRANCH  25  27
ENDBRANCH  24  25
ENDBRANCH  23  24
ENDBRANCH  22  23
ENDBRANCH  21  22
ENDBRANCH  20  21
ENDBRANCH  19  20
ENDBRANCH  18  19
ENDBRANCH  17  18
ENDBRANCH  16  17
ENDBRANCH  15  16
ENDBRANCH   1  15
TORSDOF 17
ENDMDL
MODEL 7
REMARK VINA RESULT:      -6.4      3.173      5.601
REMARK  Name = 
REMARK  18 active torsions:
REMARK  status: ('A' for Active; 'I' for Inactive)
REMARK    1  A    between atoms: C_1  and  C_2
REMARK    2  A    between atoms: C_2  and  C_3
REMARK    3  A    between atoms: C_3  and  C_4
REMARK    4  A    between atoms: C_4  and  C_5
REMARK    5  A    between atoms: C_5  and  C_6
REMARK    6  A    between atoms: C_6  and  C_7
REMARK    7  A    between atoms: C_7  and  C_8
REMARK    8  A    between atoms: C_8  and  C_9
REMARK    9  A    between atoms: C_9  and  C_10
REMARK   10  A    between atoms: C_10  and  C_11
REMARK   11  A    between atoms: C_11  and  C_12
REMARK   12  A    between atoms: C_12  and  C_13
REMARK   13  A    between atoms: C_13  and  C_14
REMARK   14  A    between atoms: C_14  and  O_16
REMARK   15  A    between atoms: O_16  and  C_17
REMARK   16  A    between atoms: C_17  and  C_18
REMARK   17  A    between atoms: C_18  and  C_19
REMARK   18  A    between atoms: C_19  and  O_20
REMARK                            x       y       z     vdW  Elec       q    Type
REMARK                         _______ _______ _______ _____ _____    ______ ____
ROOT
ATOM      1  C   UNL     1       7.186   4.861  18.640  0.00  0.00    +0.000 C 
ATOM      2  O   UNL     1       7.847   5.092  19.643  0.00  0.00    +0.000 OA
ENDROOT
BRANCH   1   3
ATOM      3  O   UNL     1       5.954   4.276  18.624  0.00  0.00    +0.000 OA
BRANCH   3   4
ATOM      4  C   UNL     1       5.034   4.689  19.656  0.00  0.00    +0.000 C 
BRANCH   4   5
ATOM      5  C   UNL     1       3.741   3.857  19.703  0.00  0.00    +0.000 C 
ATOM      6  C   UNL     1       2.574   4.567  20.393  0.00  0.00    +0.000 C 
ATOM      7  C   UNL     1       1.318   3.887  19.881  0.00  0.00    +0.000 C 
ATOM      8  S   UNL     1       1.700   3.425  18.197  0.00  0.00    +0.000 S 
ATOM      9  O   UNL     1       1.212   4.438  17.292  0.00  0.00    +0.000 OA
ATOM     10  O   UNL     1       1.431   2.012  18.015  0.00  0.00    +0.000 OA
ATOM     11  O   UNL     1       3.307   3.602  18.362  0.00  0.00    +0.000 OA
BRANCH   5  12
ATOM     12  C   UNL     1       4.046   2.511  20.379  0.00  0.00    +0.000 C 
BRANCH  12  13
ATOM     13  O   UNL     1       5.175   1.926  19.757  0.00  0.00    +0.000 OA
ATOM     14  H   UNL     1       5.547   2.572  19.132  0.00  0.00    +0.000 HD
ENDBRANCH  12  13
ENDBRANCH   5  12
ENDBRANCH   4   5
ENDBRANCH   3   4
ENDBRANCH   1   3
BRANCH   1  15
ATOM     15  C   UNL     1       7.624   5.142  17.226  0.00  0.00    +0.000 C 
BRANCH  15  16
ATOM     16  C   UNL     1       6.905   4.202  16.272  0.00  0.00    +0.000 C 
BRANCH  16  17
ATOM     17  C   UNL     1       6.348   4.929  15.060  0.00  0.00    +0.000 C 
BRANCH  17  18
ATOM     18  C   UNL     1       4.940   5.424  15.366  0.00  0.00    +0.000 C 
BRANCH  18  19
ATOM     19  C   UNL     1       4.981   6.790  16.033  0.00  0.00    +0.000 C 
BRANCH  19  20
ATOM     20  C   UNL     1       4.170   6.774  17.320  0.00  0.00    +0.000 C 
BRANCH  20  21
ATOM     21  C   UNL     1       3.455   8.103  17.507  0.00  0.00    +0.000 C 
BRANCH  21  22
ATOM     22  C   UNL     1       2.080   7.887  18.118  0.00  0.00    +0.000 C 
BRANCH  22  23
ATOM     23  C   UNL     1       1.151   9.035  17.752  0.00  0.00    +0.000 C 
BRANCH  23  24
ATOM     24  C   UNL     1       1.748  10.366  18.188  0.00  0.00    +0.000 C 
BRANCH  24  25
ATOM     25  C   UNL     1       0.798  11.097  19.129  0.00  0.00    +0.000 C 
BRANCH  25  27
ATOM     26  C   UNL     1      -1.438  11.717  18.186  0.00  0.00    +0.000 C 
ATOM     27  C   UNL     1      -0.640  10.646  18.907  0.00  0.00    +0.000 C 
ENDBRANCH  25  27
ENDBRANCH  24  25
ENDBRANCH  23  24
ENDBRANCH  22  23
ENDBRANCH  21  22
ENDBRANCH  20  21
ENDBRANCH  19  20
ENDBRANCH  18  19
ENDBRANCH  17  18
ENDBRANCH  16  17
ENDBRANCH  15  16
ENDBRANCH   1  15
TORSDOF 17
ENDMDL
MODEL 8
REMARK VINA RESULT:      -6.4      5.127      7.614
REMARK  Name = 
REMARK  18 active torsions:
REMARK  status: ('A' for Active; 'I' for Inactive)
REMARK    1  A    between atoms: C_1  and  C_2
REMARK    2  A    between atoms: C_2  and  C_3
REMARK    3  A    between atoms: C_3  and  C_4
REMARK    4  A    between atoms: C_4  and  C_5
REMARK    5  A    between atoms: C_5  and  C_6
REMARK    6  A    between atoms: C_6  and  C_7
REMARK    7  A    between atoms: C_7  and  C_8
REMARK    8  A    between atoms: C_8  and  C_9
REMARK    9  A    between atoms: C_9  and  C_10
REMARK   10  A    between atoms: C_10  and  C_11
REMARK   11  A    between atoms: C_11  and  C_12
REMARK   12  A    between atoms: C_12  and  C_13
REMARK   13  A    between atoms: C_13  and  C_14
REMARK   14  A    between atoms: C_14  and  O_16
REMARK   15  A    between atoms: O_16  and  C_17
REMARK   16  A    between atoms: C_17  and  C_18
REMARK   17  A    between atoms: C_18  and  C_19
REMARK   18  A    between atoms: C_19  and  O_20
REMARK                            x       y       z     vdW  Elec       q    Type
REMARK                         _______ _______ _______ _____ _____    ______ ____
ROOT
ATOM      1  C   UNL     1       2.576   7.808  18.258  0.00  0.00    +0.000 C 
ATOM      2  O   UNL     1       3.524   7.738  17.489  0.00  0.00    +0.000 OA
ENDROOT
BRANCH   1   3
ATOM      3  O   UNL     1       1.416   8.486  18.021  0.00  0.00    +0.000 OA
BRANCH   3   4
ATOM      4  C   UNL     1       1.470   9.920  18.166  0.00  0.00    +0.000 C 
BRANCH   4   5
ATOM      5  C   UNL     1       0.320  10.502  19.007  0.00  0.00    +0.000 C 
ATOM      6  C   UNL     1       0.149   9.830  20.370  0.00  0.00    +0.000 C 
ATOM      7  C   UNL     1      -0.597  10.831  21.232  0.00  0.00    +0.000 C 
ATOM      8  S   UNL     1      -0.031  12.432  20.674  0.00  0.00    +0.000 S 
ATOM      9  O   UNL     1       1.044  12.890  21.522  0.00  0.00    +0.000 OA
ATOM     10  O   UNL     1      -1.176  13.255  20.339  0.00  0.00    +0.000 OA
ATOM     11  O   UNL     1       0.602  11.880  19.282  0.00  0.00    +0.000 OA
BRANCH   5  12
ATOM     12  C   UNL     1      -0.977  10.426  18.187  0.00  0.00    +0.000 C 
BRANCH  12  13
ATOM     13  O   UNL     1      -1.205  11.676  17.565  0.00  0.00    +0.000 OA
ATOM     14  H   UNL     1      -0.396  12.210  17.647  0.00  0.00    +0.000 HD
ENDBRANCH  12  13
ENDBRANCH   5  12
ENDBRANCH   4   5
ENDBRANCH   3   4
ENDBRANCH   1   3
BRANCH   1  15
ATOM     15  C   UNL     1       2.524   7.192  19.632  0.00  0.00    +0.000 C 
BRANCH  15  16
ATOM     16  C   UNL     1       2.547   5.676  19.513  0.00  0.00    +0.000 C 
BRANCH  16  17
ATOM     17  C   UNL     1       2.075   4.994  20.786  0.00  0.00    +0.000 C 
BRANCH  17  18
ATOM     18  C   UNL     1       0.880   4.103  20.473  0.00  0.00    +0.000 C 
BRANCH  18  19
ATOM     19  C   UNL     1       1.325   2.672  20.217  0.00  0.00    +0.000 C 
BRANCH  19  20
ATOM     20  C   UNL     1       0.918   2.234  18.818  0.00  0.00    +0.000 C 
BRANCH  20  21
ATOM     21  C   UNL     1       2.055   2.479  17.840  0.00  0.00    +0.000 C 
BRANCH  21  22
ATOM     22  C   UNL     1       3.355   1.901  18.379  0.00  0.00    +0.000 C 
BRANCH  22  23
ATOM     23  C   UNL     1       4.478   2.921  18.258  0.00  0.00    +0.000 C 
BRANCH  23  24
ATOM     24  C   UNL     1       4.442   3.596  16.894  0.00  0.00    +0.000 C 
BRANCH  24  25
ATOM     25  C   UNL     1       5.276   4.872  16.905  0.00  0.00    +0.000 C 
BRANCH  25  27
ATOM     26  C   UNL     1       7.614   4.662  17.779  0.00  0.00    +0.000 C 
ATOM     27  C   UNL     1       6.728   4.575  16.549  0.00  0.00    +0.000 C 
ENDBRANCH  25  27
ENDBRANCH  24  25
ENDBRANCH  23  24
ENDBRANCH  22  23
ENDBRANCH  21  22
ENDBRANCH  20  21
ENDBRANCH  19  20
ENDBRANCH  18  19
ENDBRANCH  17  18
ENDBRANCH  16  17
ENDBRANCH  15  16
ENDBRANCH   1  15
TORSDOF 17
ENDMDL
MODEL 9
REMARK VINA RESULT:      -6.4      3.604      8.369
REMARK  Name = 
REMARK  18 active torsions:
REMARK  status: ('A' for Active; 'I' for Inactive)
REMARK    1  A    between atoms: C_1  and  C_2
REMARK    2  A    between atoms: C_2  and  C_3
REMARK    3  A    between atoms: C_3  and  C_4
REMARK    4  A    between atoms: C_4  and  C_5
REMARK    5  A    between atoms: C_5  and  C_6
REMARK    6  A    between atoms: C_6  and  C_7
REMARK    7  A    between atoms: C_7  and  C_8
REMARK    8  A    between atoms: C_8  and  C_9
REMARK    9  A    between atoms: C_9  and  C_10
REMARK   10  A    between atoms: C_10  and  C_11
REMARK   11  A    between atoms: C_11  and  C_12
REMARK   12  A    between atoms: C_12  and  C_13
REMARK   13  A    between atoms: C_13  and  C_14
REMARK   14  A    between atoms: C_14  and  O_16
REMARK   15  A    between atoms: O_16  and  C_17
REMARK   16  A    between atoms: C_17  and  C_18
REMARK   17  A    between atoms: C_18  and  C_19
REMARK   18  A    between atoms: C_19  and  O_20
REMARK                            x       y       z     vdW  Elec       q    Type
REMARK                         _______ _______ _______ _____ _____    ______ ____
ROOT
ATOM      1  C   UNL     1       4.223   2.340  19.565  0.00  0.00    +0.000 C 
ATOM      2  O   UNL     1       4.614   2.006  20.675  0.00  0.00    +0.000 OA
ENDROOT
BRANCH   1   3
ATOM      3  O   UNL     1       4.691   3.402  18.850  0.00  0.00    +0.000 OA
BRANCH   3   4
ATOM      4  C   UNL     1       4.605   3.297  17.414  0.00  0.00    +0.000 C 
BRANCH   4   5
ATOM      5  C   UNL     1       5.163   4.521  16.667  0.00  0.00    +0.000 C 
ATOM      6  C   UNL     1       4.416   5.822  16.968  0.00  0.00    +0.000 C 
ATOM      7  C   UNL     1       5.382   6.941  16.624  0.00  0.00    +0.000 C 
ATOM      8  S   UNL     1       6.999   6.291  17.020  0.00  0.00    +0.000 S 
ATOM      9  O   UNL     1       7.381   6.715  18.346  0.00  0.00    +0.000 OA
ATOM     10  O   UNL     1       7.866   6.430  15.867  0.00  0.00    +0.000 OA
ATOM     11  O   UNL     1       6.516   4.740  17.087  0.00  0.00    +0.000 OA
BRANCH   5  12
ATOM     12  C   UNL     1       5.165   4.222  15.161  0.00  0.00    +0.000 C 
BRANCH  12  13
ATOM     13  O   UNL     1       6.310   3.451  14.844  0.00  0.00    +0.000 OA
ATOM     14  H   UNL     1       6.359   3.362  13.876  0.00  0.00    +0.000 HD
ENDBRANCH  12  13
ENDBRANCH   5  12
ENDBRANCH   4   5
ENDBRANCH   3   4
ENDBRANCH   1   3
BRANCH   1  15
ATOM     15  C   UNL     1       3.121   1.663  18.792  0.00  0.00    +0.000 C 
BRANCH  15  16
ATOM     16  C   UNL     1       1.781   1.964  19.446  0.00  0.00    +0.000 C 
BRANCH  16  17
ATOM     17  C   UNL     1       1.355   3.408  19.244  0.00  0.00    +0.000 C 
BRANCH  17  18
ATOM     18  C   UNL     1       1.005   4.029  20.590  0.00  0.00    +0.000 C 
BRANCH  18  19
ATOM     19  C   UNL     1       2.023   5.089  20.978  0.00  0.00    +0.000 C 
BRANCH  19  20
ATOM     20  C   UNL     1       2.555   5.790  19.737  0.00  0.00    +0.000 C 
BRANCH  20  21
ATOM     21  C   UNL     1       1.695   7.000  19.408  0.00  0.00    +0.000 C 
BRANCH  21  22
ATOM     22  C   UNL     1       1.640   7.952  20.593  0.00  0.00    +0.000 C 
BRANCH  22  23
ATOM     23  C   UNL     1       1.142   9.320  20.150  0.00  0.00    +0.000 C 
BRANCH  23  24
ATOM     24  C   UNL     1       0.866  10.205  21.358  0.00  0.00    +0.000 C 
BRANCH  24  25
ATOM     25  C   UNL     1       0.557   9.355  22.585  0.00  0.00    +0.000 C 
BRANCH  25  27
ATOM     26  C   UNL     1      -1.073  11.235  22.871  0.00  0.00    +0.000 C 
ATOM     27  C   UNL     1      -0.746   9.799  23.239  0.00  0.00    +0.000 C 
ENDBRANCH  25  27
ENDBRANCH  24  25
ENDBRANCH  23  24
ENDBRANCH  22  23
ENDBRANCH  21  22
ENDBRANCH  20  21
ENDBRANCH  19  20
ENDBRANCH  18  19
ENDBRANCH  17  18
ENDBRANCH  16  17
ENDBRANCH  15  16
ENDBRANCH   1  15
TORSDOF 17
ENDMDL
