MODEL 1
REMARK VINA RESULT:      -8.3      0.000      0.000
REMARK  Name = 
REMARK  8 active torsions:
REMARK  status: ('A' for Active; 'I' for Inactive)
REMARK    1  A    between atoms: C_1  and  C_2
REMARK    2  A    between atoms: C_2  and  N_3
REMARK    3  A    between atoms: C_4  and  C_5
REMARK    4  A    between atoms: C_13  and  S_14
REMARK    5  A    between atoms: S_14  and  C_15
REMARK    6  A    between atoms: C_15  and  C_16
REMARK    7  A    between atoms: N_18  and  C_19
REMARK    8  A    between atoms: C_22  and  C_23
REMARK                            x       y       z     vdW  Elec       q    Type
REMARK                         _______ _______ _______ _____ _____    ______ ____
ROOT
ATOM      1  C   UNL     1       7.267   7.216  17.664  0.00  0.00    +0.000 C 
ATOM      2  O   UNL     1       7.548   6.520  18.636  0.00  0.00    +0.000 OA
ATOM      3  N   UNL     1       6.223   7.007  16.783  0.00  0.00    +0.000 N 
ATOM      4  H   UNL     1       6.271   7.535  15.909  0.00  0.00    +0.000 HD
ENDROOT
BRANCH   3   5
ATOM      5  C   UNL     1       5.139   6.127  16.924  0.00  0.00    +0.000 A 
ATOM      6  C   UNL     1       5.144   4.819  16.454  0.00  0.00    +0.000 A 
ATOM      7  C   UNL     1       4.119   3.945  16.816  0.00  0.00    +0.000 A 
ATOM      8  C   UNL     1       3.076   4.354  17.667  0.00  0.00    +0.000 A 
ATOM      9  C   UNL     1       3.005   5.706  18.008  0.00  0.00    +0.000 A 
ATOM     10  C   UNL     1       4.038   6.579  17.656  0.00  0.00    +0.000 A 
BRANCH   8  11
ATOM     11  C   UNL     1       2.196   3.270  18.283  0.00  0.00    +0.000 C 
ATOM     12  C   UNL     1       3.109   2.182  18.899  0.00  0.00    +0.000 C 
ATOM     13  C   UNL     1       3.703   2.619  20.236  0.00  0.00    +0.000 C 
ATOM     14  C   UNL     1       2.595   2.903  21.240  0.00  0.00    +0.000 C 
ATOM     15  C   UNL     1       1.619   3.956  20.729  0.00  0.00    +0.000 C 
ATOM     16  C   UNL     1       1.121   3.692  19.304  0.00  0.00    +0.000 C 
ENDBRANCH   8  11
ENDBRANCH   3   5
BRANCH   1  17
ATOM     17  C   UNL     1       8.073   8.457  17.332  0.00  0.00    +0.000 C 
BRANCH  17  18
ATOM     18  S   UNL     1       8.724   9.247  18.815  0.00  0.00    +0.000 S 
BRANCH  18  23
ATOM     19  N   UNL     1       9.790  11.798  18.812  0.00  0.00    +0.000 N 
ATOM     20  C   UNL     1       9.519  13.031  18.196  0.00  0.00    +0.000 A 
ATOM     21  C   UNL     1       8.375  12.786  17.449  0.00  0.00    +0.000 A 
ATOM     22  N   UNL     1       7.991  11.476  17.521  0.00  0.00    +0.000 NA
ATOM     23  C   UNL     1       8.838  10.917  18.354  0.00  0.00    +0.000 A 
BRANCH  20  24
ATOM     24  C   UNL     1      10.233  14.313  18.393  0.00  0.00    +0.000 A 
ATOM     25  C   UNL     1      11.273  14.731  17.550  0.00  0.00    +0.000 A 
ATOM     26  C   UNL     1      12.018  15.882  17.826  0.00  0.00    +0.000 A 
ATOM     27  C   UNL     1      11.681  16.686  18.906  0.00  0.00    +0.000 A 
ATOM     28  C   UNL     1      10.589  16.347  19.698  0.00  0.00    +0.000 A 
ATOM     29  C   UNL     1       9.875  15.168  19.447  0.00  0.00    +0.000 A 
ENDBRANCH  20  24
BRANCH  19  31
ATOM     30  C   UNL     1      12.332  11.650  19.394  0.00  0.00    +0.000 C 
ATOM     31  C   UNL     1      10.861  11.613  19.778  0.00  0.00    +0.000 C 
ENDBRANCH  19  31
ENDBRANCH  18  23
ENDBRANCH  17  18
ENDBRANCH   1  17
TORSDOF 7
ENDMDL
MODEL 2
REMARK VINA RESULT:      -8.1      1.192      1.427
REMARK  Name = 
REMARK  8 active torsions:
REMARK  status: ('A' for Active; 'I' for Inactive)
REMARK    1  A    between atoms: C_1  and  C_2
REMARK    2  A    between atoms: C_2  and  N_3
REMARK    3  A    between atoms: C_4  and  C_5
REMARK    4  A    between atoms: C_13  and  S_14
REMARK    5  A    between atoms: S_14  and  C_15
REMARK    6  A    between atoms: C_15  and  C_16
REMARK    7  A    between atoms: N_18  and  C_19
REMARK    8  A    between atoms: C_22  and  C_23
REMARK                            x       y       z     vdW  Elec       q    Type
REMARK                         _______ _______ _______ _____ _____    ______ ____
ROOT
ATOM      1  C   UNL     1       7.526   7.639  17.702  0.00  0.00    +0.000 C 
ATOM      2  O   UNL     1       7.882   6.837  18.562  0.00  0.00    +0.000 OA
ATOM      3  N   UNL     1       6.508   7.456  16.786  0.00  0.00    +0.000 N 
ATOM      4  H   UNL     1       6.497   8.112  16.002  0.00  0.00    +0.000 HD
ENDROOT
BRANCH   3   5
ATOM      5  C   UNL     1       5.523   6.457  16.779  0.00  0.00    +0.000 A 
ATOM      6  C   UNL     1       5.701   5.207  16.195  0.00  0.00    +0.000 A 
ATOM      7  C   UNL     1       4.763   4.198  16.411  0.00  0.00    +0.000 A 
ATOM      8  C   UNL     1       3.636   4.410  17.226  0.00  0.00    +0.000 A 
ATOM      9  C   UNL     1       3.395   5.707  17.681  0.00  0.00    +0.000 A 
ATOM     10  C   UNL     1       4.341   6.716  17.476  0.00  0.00    +0.000 A 
BRANCH   8  11
ATOM     11  C   UNL     1       2.852   3.184  17.686  0.00  0.00    +0.000 C 
ATOM     12  C   UNL     1       3.753   2.342  18.620  0.00  0.00    +0.000 C 
ATOM     13  C   UNL     1       3.851   2.944  20.020  0.00  0.00    +0.000 C 
ATOM     14  C   UNL     1       2.474   3.018  20.664  0.00  0.00    +0.000 C 
ATOM     15  C   UNL     1       1.491   3.816  19.816  0.00  0.00    +0.000 C 
ATOM     16  C   UNL     1       1.473   3.400  18.340  0.00  0.00    +0.000 C 
ENDBRANCH   8  11
ENDBRANCH   3   5
BRANCH   1  17
ATOM     17  C   UNL     1       8.195   8.993  17.572  0.00  0.00    +0.000 C 
BRANCH  17  18
ATOM     18  S   UNL     1       8.939   9.522  19.126  0.00  0.00    +0.000 S 
BRANCH  18  23
ATOM     19  N   UNL     1       9.612  12.187  19.426  0.00  0.00    +0.000 N 
ATOM     20  C   UNL     1      10.377  13.145  18.739  0.00  0.00    +0.000 A 
ATOM     21  C   UNL     1      10.830  12.465  17.616  0.00  0.00    +0.000 A 
ATOM     22  N   UNL     1      10.448  11.153  17.627  0.00  0.00    +0.000 NA
ATOM     23  C   UNL     1       9.708  11.021  18.704  0.00  0.00    +0.000 A 
BRANCH  20  24
ATOM     24  C   UNL     1      10.558  14.572  19.087  0.00  0.00    +0.000 A 
ATOM     25  C   UNL     1      11.608  15.020  19.902  0.00  0.00    +0.000 A 
ATOM     26  C   UNL     1      11.690  16.351  20.322  0.00  0.00    +0.000 A 
ATOM     27  C   UNL     1      10.768  17.282  19.865  0.00  0.00    +0.000 A 
ATOM     28  C   UNL     1       9.777  16.884  18.973  0.00  0.00    +0.000 A 
ATOM     29  C   UNL     1       9.669  15.539  18.593  0.00  0.00    +0.000 A 
ENDBRANCH  20  24
BRANCH  19  31
ATOM     30  C   UNL     1       9.510  12.666  21.992  0.00  0.00    +0.000 C 
ATOM     31  C   UNL     1       8.855  12.493  20.630  0.00  0.00    +0.000 C 
ENDBRANCH  19  31
ENDBRANCH  18  23
ENDBRANCH  17  18
ENDBRANCH   1  17
TORSDOF 7
ENDMDL
MODEL 3
REMARK VINA RESULT:      -8.1      1.343      1.811
REMARK  Name = 
REMARK  8 active torsions:
REMARK  status: ('A' for Active; 'I' for Inactive)
REMARK    1  A    between atoms: C_1  and  C_2
REMARK    2  A    between atoms: C_2  and  N_3
REMARK    3  A    between atoms: C_4  and  C_5
REMARK    4  A    between atoms: C_13  and  S_14
REMARK    5  A    between atoms: S_14  and  C_15
REMARK    6  A    between atoms: C_15  and  C_16
REMARK    7  A    between atoms: N_18  and  C_19
REMARK    8  A    between atoms: C_22  and  C_23
REMARK                            x       y       z     vdW  Elec       q    Type
REMARK                         _______ _______ _______ _____ _____    ______ ____
ROOT
ATOM      1  C   UNL     1       7.833   8.123  17.905  0.00  0.00    +0.000 C 
ATOM      2  O   UNL     1       8.362   7.386  18.734  0.00  0.00    +0.000 OA
ATOM      3  N   UNL     1       6.855   7.764  16.998  0.00  0.00    +0.000 N 
ATOM      4  H   UNL     1       6.696   8.426  16.235  0.00  0.00    +0.000 HD
ENDROOT
BRANCH   3   5
ATOM      5  C   UNL     1       6.092   6.586  16.973  0.00  0.00    +0.000 A 
ATOM      6  C   UNL     1       6.633   5.326  16.741  0.00  0.00    +0.000 A 
ATOM      7  C   UNL     1       5.853   4.187  16.941  0.00  0.00    +0.000 A 
ATOM      8  C   UNL     1       4.524   4.280  17.391  0.00  0.00    +0.000 A 
ATOM      9  C   UNL     1       3.952   5.551  17.475  0.00  0.00    +0.000 A 
ATOM     10  C   UNL     1       4.736   6.694  17.288  0.00  0.00    +0.000 A 
BRANCH   8  11
ATOM     11  C   UNL     1       3.857   3.008  17.906  0.00  0.00    +0.000 C 
ATOM     12  C   UNL     1       3.999   2.964  19.446  0.00  0.00    +0.000 C 
ATOM     13  C   UNL     1       3.011   3.898  20.142  0.00  0.00    +0.000 C 
ATOM     14  C   UNL     1       1.580   3.501  19.807  0.00  0.00    +0.000 C 
ATOM     15  C   UNL     1       1.328   3.495  18.304  0.00  0.00    +0.000 C 
ATOM     16  C   UNL     1       2.394   2.734  17.506  0.00  0.00    +0.000 C 
ENDBRANCH   8  11
ENDBRANCH   3   5
BRANCH   1  17
ATOM     17  C   UNL     1       8.212   9.588  17.808  0.00  0.00    +0.000 C 
BRANCH  17  18
ATOM     18  S   UNL     1       9.308  10.085  19.150  0.00  0.00    +0.000 S 
BRANCH  18  23
ATOM     19  N   UNL     1       9.959  12.769  19.034  0.00  0.00    +0.000 N 
ATOM     20  C   UNL     1      10.747  13.609  18.229  0.00  0.00    +0.000 A 
ATOM     21  C   UNL     1      11.247  12.759  17.251  0.00  0.00    +0.000 A 
ATOM     22  N   UNL     1      10.870  11.463  17.462  0.00  0.00    +0.000 NA
ATOM     23  C   UNL     1      10.088  11.502  18.517  0.00  0.00    +0.000 A 
BRANCH  20  24
ATOM     24  C   UNL     1      10.909  15.076  18.345  0.00  0.00    +0.000 A 
ATOM     25  C   UNL     1      10.136  15.978  17.598  0.00  0.00    +0.000 A 
ATOM     26  C   UNL     1      10.389  17.353  17.627  0.00  0.00    +0.000 A 
ATOM     27  C   UNL     1      11.366  17.863  18.471  0.00  0.00    +0.000 A 
ATOM     28  C   UNL     1      12.076  16.998  19.297  0.00  0.00    +0.000 A 
ATOM     29  C   UNL     1      11.854  15.616  19.230  0.00  0.00    +0.000 A 
ENDBRANCH  20  24
BRANCH  19  31
ATOM     30  C   UNL     1       9.661  13.294  21.576  0.00  0.00    +0.000 C 
ATOM     31  C   UNL     1       9.154  13.261  20.141  0.00  0.00    +0.000 C 
ENDBRANCH  19  31
ENDBRANCH  18  23
ENDBRANCH  17  18
ENDBRANCH   1  17
TORSDOF 7
ENDMDL
MODEL 4
REMARK VINA RESULT:      -7.8      1.422      2.015
REMARK  Name = 
REMARK  8 active torsions:
REMARK  status: ('A' for Active; 'I' for Inactive)
REMARK    1  A    between atoms: C_1  and  C_2
REMARK    2  A    between atoms: C_2  and  N_3
REMARK    3  A    between atoms: C_4  and  C_5
REMARK    4  A    between atoms: C_13  and  S_14
REMARK    5  A    between atoms: S_14  and  C_15
REMARK    6  A    between atoms: C_15  and  C_16
REMARK    7  A    between atoms: N_18  and  C_19
REMARK    8  A    between atoms: C_22  and  C_23
REMARK                            x       y       z     vdW  Elec       q    Type
REMARK                         _______ _______ _______ _____ _____    ______ ____
ROOT
ATOM      1  C   UNL     1       7.930   8.093  17.968  0.00  0.00    +0.000 C 
ATOM      2  O   UNL     1       8.524   7.398  18.789  0.00  0.00    +0.000 OA
ATOM      3  N   UNL     1       6.900   7.683  17.143  0.00  0.00    +0.000 N 
ATOM      4  H   UNL     1       6.680   8.310  16.366  0.00  0.00    +0.000 HD
ENDROOT
BRANCH   3   5
ATOM      5  C   UNL     1       6.156   6.495  17.218  0.00  0.00    +0.000 A 
ATOM      6  C   UNL     1       5.628   5.992  18.402  0.00  0.00    +0.000 A 
ATOM      7  C   UNL     1       4.729   4.927  18.366  0.00  0.00    +0.000 A 
ATOM      8  C   UNL     1       4.325   4.351  17.148  0.00  0.00    +0.000 A 
ATOM      9  C   UNL     1       4.975   4.766  15.984  0.00  0.00    +0.000 A 
ATOM     10  C   UNL     1       5.867   5.843  16.017  0.00  0.00    +0.000 A 
BRANCH   8  11
ATOM     11  C   UNL     1       3.103   3.438  17.164  0.00  0.00    +0.000 C 
ATOM     12  C   UNL     1       3.448   2.162  17.969  0.00  0.00    +0.000 C 
ATOM     13  C   UNL     1       3.425   2.409  19.476  0.00  0.00    +0.000 C 
ATOM     14  C   UNL     1       2.040   2.862  19.917  0.00  0.00    +0.000 C 
ATOM     15  C   UNL     1       1.586   4.112  19.173  0.00  0.00    +0.000 C 
ATOM     16  C   UNL     1       1.761   4.020  17.652  0.00  0.00    +0.000 C 
ENDBRANCH   8  11
ENDBRANCH   3   5
BRANCH   1  17
ATOM     17  C   UNL     1       8.278   9.557  17.786  0.00  0.00    +0.000 C 
BRANCH  17  18
ATOM     18  S   UNL     1       9.183  10.209  19.201  0.00  0.00    +0.000 S 
BRANCH  18  23
ATOM     19  N   UNL     1      10.055  12.822  18.957  0.00  0.00    +0.000 N 
ATOM     20  C   UNL     1      10.931  13.547  18.132  0.00  0.00    +0.000 A 
ATOM     21  C   UNL     1      11.386  12.604  17.220  0.00  0.00    +0.000 A 
ATOM     22  N   UNL     1      10.898  11.357  17.491  0.00  0.00    +0.000 NA
ATOM     23  C   UNL     1      10.094  11.520  18.516  0.00  0.00    +0.000 A 
BRANCH  20  24
ATOM     24  C   UNL     1      11.210  15.001  18.171  0.00  0.00    +0.000 A 
ATOM     25  C   UNL     1      12.162  15.560  19.036  0.00  0.00    +0.000 A 
ATOM     26  C   UNL     1      12.322  16.944  19.149  0.00  0.00    +0.000 A 
ATOM     27  C   UNL     1      11.589  17.797  18.333  0.00  0.00    +0.000 A 
ATOM     28  C   UNL     1      10.713  17.262  17.395  0.00  0.00    +0.000 A 
ATOM     29  C   UNL     1      10.520  15.877  17.319  0.00  0.00    +0.000 A 
ENDBRANCH  20  24
BRANCH  19  31
ATOM     30  C   UNL     1       8.058  14.322  19.721  0.00  0.00    +0.000 C 
ATOM     31  C   UNL     1       9.263  13.440  20.009  0.00  0.00    +0.000 C 
ENDBRANCH  19  31
ENDBRANCH  18  23
ENDBRANCH  17  18
ENDBRANCH   1  17
TORSDOF 7
ENDMDL
MODEL 5
REMARK VINA RESULT:      -7.8      7.503     10.579
REMARK  Name = 
REMARK  8 active torsions:
REMARK  status: ('A' for Active; 'I' for Inactive)
REMARK    1  A    between atoms: C_1  and  C_2
REMARK    2  A    between atoms: C_2  and  N_3
REMARK    3  A    between atoms: C_4  and  C_5
REMARK    4  A    between atoms: C_13  and  S_14
REMARK    5  A    between atoms: S_14  and  C_15
REMARK    6  A    between atoms: C_15  and  C_16
REMARK    7  A    between atoms: N_18  and  C_19
REMARK    8  A    between atoms: C_22  and  C_23
REMARK                            x       y       z     vdW  Elec       q    Type
REMARK                         _______ _______ _______ _____ _____    ______ ____
ROOT
ATOM      1  C   UNL     1       0.175   9.009  21.527  0.00  0.00    +0.000 C 
ATOM      2  O   UNL     1      -0.790   8.257  21.640  0.00  0.00    +0.000 OA
ATOM      3  N   UNL     1       1.417   8.675  21.023  0.00  0.00    +0.000 N 
ATOM      4  H   UNL     1       2.165   9.345  21.214  0.00  0.00    +0.000 HD
ENDROOT
BRANCH   3   5
ATOM      5  C   UNL     1       1.781   7.513  20.326  0.00  0.00    +0.000 A 
ATOM      6  C   UNL     1       1.599   6.228  20.827  0.00  0.00    +0.000 A 
ATOM      7  C   UNL     1       1.788   5.124  19.996  0.00  0.00    +0.000 A 
ATOM      8  C   UNL     1       2.147   5.279  18.645  0.00  0.00    +0.000 A 
ATOM      9  C   UNL     1       2.469   6.562  18.198  0.00  0.00    +0.000 A 
ATOM     10  C   UNL     1       2.268   7.670  19.027  0.00  0.00    +0.000 A 
BRANCH   8  11
ATOM     11  C   UNL     1       2.002   4.067  17.728  0.00  0.00    +0.000 C 
ATOM     12  C   UNL     1       3.399   3.688  17.183  0.00  0.00    +0.000 C 
ATOM     13  C   UNL     1       4.240   2.946  18.220  0.00  0.00    +0.000 C 
ATOM     14  C   UNL     1       3.549   1.654  18.634  0.00  0.00    +0.000 C 
ATOM     15  C   UNL     1       2.147   1.905  19.176  0.00  0.00    +0.000 C 
ATOM     16  C   UNL     1       1.296   2.812  18.280  0.00  0.00    +0.000 C 
ENDBRANCH   8  11
ENDBRANCH   3   5
BRANCH   1  17
ATOM     17  C   UNL     1       0.080  10.467  21.933  0.00  0.00    +0.000 C 
BRANCH  17  18
ATOM     18  S   UNL     1       0.310  11.569  20.525  0.00  0.00    +0.000 S 
BRANCH  18  23
ATOM     19  N   UNL     1      -2.313  12.005  19.767  0.00  0.00    +0.000 N 
ATOM     20  C   UNL     1      -3.212  11.497  18.814  0.00  0.00    +0.000 A 
ATOM     21  C   UNL     1      -2.491  10.498  18.175  0.00  0.00    +0.000 A 
ATOM     22  N   UNL     1      -1.205  10.427  18.631  0.00  0.00    +0.000 NA
ATOM     23  C   UNL     1      -1.133  11.321  19.591  0.00  0.00    +0.000 A 
BRANCH  20  24
ATOM     24  C   UNL     1      -4.631  11.875  18.624  0.00  0.00    +0.000 A 
ATOM     25  C   UNL     1      -5.548  11.912  19.685  0.00  0.00    +0.000 A 
ATOM     26  C   UNL     1      -6.908  12.148  19.466  0.00  0.00    +0.000 A 
ATOM     27  C   UNL     1      -7.367  12.437  18.188  0.00  0.00    +0.000 A 
ATOM     28  C   UNL     1      -6.461  12.507  17.135  0.00  0.00    +0.000 A 
ATOM     29  C   UNL     1      -5.106  12.222  17.350  0.00  0.00    +0.000 A 
ENDBRANCH  20  24
BRANCH  19  31
ATOM     30  C   UNL     1      -2.959  12.692  22.203  0.00  0.00    +0.000 C 
ATOM     31  C   UNL     1      -2.681  13.018  20.743  0.00  0.00    +0.000 C 
ENDBRANCH  19  31
ENDBRANCH  18  23
ENDBRANCH  17  18
ENDBRANCH   1  17
TORSDOF 7
ENDMDL
MODEL 6
REMARK VINA RESULT:      -7.8      1.295      1.933
REMARK  Name = 
REMARK  8 active torsions:
REMARK  status: ('A' for Active; 'I' for Inactive)
REMARK    1  A    between atoms: C_1  and  C_2
REMARK    2  A    between atoms: C_2  and  N_3
REMARK    3  A    between atoms: C_4  and  C_5
REMARK    4  A    between atoms: C_13  and  S_14
REMARK    5  A    between atoms: S_14  and  C_15
REMARK    6  A    between atoms: C_15  and  C_16
REMARK    7  A    between atoms: N_18  and  C_19
REMARK    8  A    between atoms: C_22  and  C_23
REMARK                            x       y       z     vdW  Elec       q    Type
REMARK                         _______ _______ _______ _____ _____    ______ ____
ROOT
ATOM      1  C   UNL     1       7.383   7.247  17.445  0.00  0.00    +0.000 C 
ATOM      2  O   UNL     1       7.713   6.755  16.369  0.00  0.00    +0.000 OA
ATOM      3  N   UNL     1       6.204   7.009  18.126  0.00  0.00    +0.000 N 
ATOM      4  H   UNL     1       5.987   7.667  18.876  0.00  0.00    +0.000 HD
ENDROOT
BRANCH   3   5
ATOM      5  C   UNL     1       5.255   6.005  17.880  0.00  0.00    +0.000 A 
ATOM      6  C   UNL     1       5.582   4.665  17.701  0.00  0.00    +0.000 A 
ATOM      7  C   UNL     1       4.575   3.701  17.672  0.00  0.00    +0.000 A 
ATOM      8  C   UNL     1       3.223   4.050  17.837  0.00  0.00    +0.000 A 
ATOM      9  C   UNL     1       2.899   5.408  17.866  0.00  0.00    +0.000 A 
ATOM     10  C   UNL     1       3.909   6.375  17.908  0.00  0.00    +0.000 A 
BRANCH   8  11
ATOM     11  C   UNL     1       2.231   2.929  18.133  0.00  0.00    +0.000 C 
ATOM     12  C   UNL     1       2.894   1.924  19.105  0.00  0.00    +0.000 C 
ATOM     13  C   UNL     1       2.913   2.441  20.542  0.00  0.00    +0.000 C 
ATOM     14  C   UNL     1       1.493   2.681  21.037  0.00  0.00    +0.000 C 
ATOM     15  C   UNL     1       0.733   3.650  20.139  0.00  0.00    +0.000 C 
ATOM     16  C   UNL     1       0.828   3.309  18.647  0.00  0.00    +0.000 C 
ENDBRANCH   8  11
ENDBRANCH   3   5
BRANCH   1  17
ATOM     17  C   UNL     1       8.301   8.203  18.181  0.00  0.00    +0.000 C 
BRANCH  17  18
ATOM     18  S   UNL     1       8.150   9.888  17.559  0.00  0.00    +0.000 S 
BRANCH  18  23
ATOM     19  N   UNL     1       9.211  12.183  18.677  0.00  0.00    +0.000 N 
ATOM     20  C   UNL     1       9.975  12.526  19.805  0.00  0.00    +0.000 A 
ATOM     21  C   UNL     1      10.231  11.307  20.417  0.00  0.00    +0.000 A 
ATOM     22  N   UNL     1       9.612  10.273  19.771  0.00  0.00    +0.000 NA
ATOM     23  C   UNL     1       9.030  10.821  18.729  0.00  0.00    +0.000 A 
BRANCH  20  24
ATOM     24  C   UNL     1      10.474  13.868  20.180  0.00  0.00    +0.000 A 
ATOM     25  C   UNL     1      11.614  14.438  19.592  0.00  0.00    +0.000 A 
ATOM     26  C   UNL     1      12.143  15.649  20.048  0.00  0.00    +0.000 A 
ATOM     27  C   UNL     1      11.491  16.360  21.046  0.00  0.00    +0.000 A 
ATOM     28  C   UNL     1      10.302  15.866  21.574  0.00  0.00    +0.000 A 
ATOM     29  C   UNL     1       9.802  14.628  21.150  0.00  0.00    +0.000 A 
ENDBRANCH  20  24
BRANCH  19  31
ATOM     30  C   UNL     1       7.603  14.079  17.874  0.00  0.00    +0.000 C 
ATOM     31  C   UNL     1       8.794  13.153  17.677  0.00  0.00    +0.000 C 
ENDBRANCH  19  31
ENDBRANCH  18  23
ENDBRANCH  17  18
ENDBRANCH   1  17
TORSDOF 7
ENDMDL
MODEL 7
REMARK VINA RESULT:      -7.6      0.757      1.839
REMARK  Name = 
REMARK  8 active torsions:
REMARK  status: ('A' for Active; 'I' for Inactive)
REMARK    1  A    between atoms: C_1  and  C_2
REMARK    2  A    between atoms: C_2  and  N_3
REMARK    3  A    between atoms: C_4  and  C_5
REMARK    4  A    between atoms: C_13  and  S_14
REMARK    5  A    between atoms: S_14  and  C_15
REMARK    6  A    between atoms: C_15  and  C_16
REMARK    7  A    between atoms: N_18  and  C_19
REMARK    8  A    between atoms: C_22  and  C_23
REMARK                            x       y       z     vdW  Elec       q    Type
REMARK                         _______ _______ _______ _____ _____    ______ ____
ROOT
ATOM      1  C   UNL     1       7.274   6.862  17.835  0.00  0.00    +0.000 C 
ATOM      2  O   UNL     1       7.501   6.132  18.796  0.00  0.00    +0.000 OA
ATOM      3  N   UNL     1       6.199   6.767  16.972  0.00  0.00    +0.000 N 
ATOM      4  H   UNL     1       6.284   7.295  16.101  0.00  0.00    +0.000 HD
ENDROOT
BRANCH   3   5
ATOM      5  C   UNL     1       5.034   6.001  17.129  0.00  0.00    +0.000 A 
ATOM      6  C   UNL     1       4.934   4.667  16.747  0.00  0.00    +0.000 A 
ATOM      7  C   UNL     1       3.821   3.917  17.125  0.00  0.00    +0.000 A 
ATOM      8  C   UNL     1       2.792   4.476  17.903  0.00  0.00    +0.000 A 
ATOM      9  C   UNL     1       2.834   5.850  18.151  0.00  0.00    +0.000 A 
ATOM     10  C   UNL     1       3.955   6.600  17.784  0.00  0.00    +0.000 A 
BRANCH   8  11
ATOM     11  C   UNL     1       1.795   3.521  18.555  0.00  0.00    +0.000 C 
ATOM     12  C   UNL     1       2.534   2.214  18.929  0.00  0.00    +0.000 C 
ATOM     13  C   UNL     1       3.379   2.373  20.191  0.00  0.00    +0.000 C 
ATOM     14  C   UNL     1       2.500   2.751  21.374  0.00  0.00    +0.000 C 
ATOM     15  C   UNL     1       1.707   4.025  21.110  0.00  0.00    +0.000 C 
ATOM     16  C   UNL     1       0.978   4.026  19.760  0.00  0.00    +0.000 C 
ENDBRANCH   8  11
ENDBRANCH   3   5
BRANCH   1  17
ATOM     17  C   UNL     1       8.196   8.018  17.497  0.00  0.00    +0.000 C 
BRANCH  17  18
ATOM     18  S   UNL     1       7.392   9.610  17.754  0.00  0.00    +0.000 S 
BRANCH  18  23
ATOM     19  N   UNL     1       8.835  11.958  17.981  0.00  0.00    +0.000 N 
ATOM     20  C   UNL     1      10.013  12.390  18.614  0.00  0.00    +0.000 A 
ATOM     21  C   UNL     1      10.508  11.242  19.217  0.00  0.00    +0.000 A 
ATOM     22  N   UNL     1       9.670  10.177  19.049  0.00  0.00    +0.000 NA
ATOM     23  C   UNL     1       8.694  10.626  18.293  0.00  0.00    +0.000 A 
BRANCH  20  24
ATOM     24  C   UNL     1      10.627  13.736  18.550  0.00  0.00    +0.000 A 
ATOM     25  C   UNL     1      10.574  14.637  19.624  0.00  0.00    +0.000 A 
ATOM     26  C   UNL     1      11.048  15.947  19.502  0.00  0.00    +0.000 A 
ATOM     27  C   UNL     1      11.664  16.356  18.327  0.00  0.00    +0.000 A 
ATOM     28  C   UNL     1      11.821  15.449  17.283  0.00  0.00    +0.000 A 
ATOM     29  C   UNL     1      11.301  14.153  17.392  0.00  0.00    +0.000 A 
ENDBRANCH  20  24
BRANCH  19  31
ATOM     30  C   UNL     1       7.173  13.951  17.688  0.00  0.00    +0.000 C 
ATOM     31  C   UNL     1       8.027  12.821  17.134  0.00  0.00    +0.000 C 
ENDBRANCH  19  31
ENDBRANCH  18  23
ENDBRANCH  17  18
ENDBRANCH   1  17
TORSDOF 7
ENDMDL
MODEL 8
REMARK VINA RESULT:      -7.6      6.891      9.312
REMARK  Name = 
REMARK  8 active torsions:
REMARK  status: ('A' for Active; 'I' for Inactive)
REMARK    1  A    between atoms: C_1  and  C_2
REMARK    2  A    between atoms: C_2  and  N_3
REMARK    3  A    between atoms: C_4  and  C_5
REMARK    4  A    between atoms: C_13  and  S_14
REMARK    5  A    between atoms: S_14  and  C_15
REMARK    6  A    between atoms: C_15  and  C_16
REMARK    7  A    between atoms: N_18  and  C_19
REMARK    8  A    between atoms: C_22  and  C_23
REMARK                            x       y       z     vdW  Elec       q    Type
REMARK                         _______ _______ _______ _____ _____    ______ ____
ROOT
ATOM      1  C   UNL     1       1.476   4.616  20.363  0.00  0.00    +0.000 C 
ATOM      2  O   UNL     1       0.944   4.434  19.271  0.00  0.00    +0.000 OA
ATOM      3  N   UNL     1       2.032   5.798  20.815  0.00  0.00    +0.000 N 
ATOM      4  H   UNL     1       2.633   5.716  21.638  0.00  0.00    +0.000 HD
ENDROOT
BRANCH   3   5
ATOM      5  C   UNL     1       1.909   7.078  20.254  0.00  0.00    +0.000 A 
ATOM      6  C   UNL     1       2.331   7.398  18.969  0.00  0.00    +0.000 A 
ATOM      7  C   UNL     1       1.986   8.628  18.408  0.00  0.00    +0.000 A 
ATOM      8  C   UNL     1       1.200   9.557  19.112  0.00  0.00    +0.000 A 
ATOM      9  C   UNL     1       0.911   9.285  20.451  0.00  0.00    +0.000 A 
ATOM     10  C   UNL     1       1.245   8.048  21.009  0.00  0.00    +0.000 A 
BRANCH   8  11
ATOM     11  C   UNL     1       0.586  10.710  18.323  0.00  0.00    +0.000 C 
ATOM     12  C   UNL     1      -0.721  10.215  17.658  0.00  0.00    +0.000 C 
ATOM     13  C   UNL     1      -1.877  10.131  18.653  0.00  0.00    +0.000 C 
ATOM     14  C   UNL     1      -2.163  11.502  19.249  0.00  0.00    +0.000 C 
ATOM     15  C   UNL     1      -0.933  12.098  19.922  0.00  0.00    +0.000 C 
ATOM     16  C   UNL     1       0.330  12.043  19.054  0.00  0.00    +0.000 C 
ENDBRANCH   8  11
ENDBRANCH   3   5
BRANCH   1  17
ATOM     17  C   UNL     1       1.558   3.501  21.387  0.00  0.00    +0.000 C 
BRANCH  17  18
ATOM     18  S   UNL     1       3.120   2.609  21.280  0.00  0.00    +0.000 S 
BRANCH  18  23
ATOM     19  N   UNL     1       4.286   3.629  18.989  0.00  0.00    +0.000 N 
ATOM     20  C   UNL     1       4.325   3.314  17.620  0.00  0.00    +0.000 A 
ATOM     21  C   UNL     1       3.495   2.207  17.509  0.00  0.00    +0.000 A 
ATOM     22  N   UNL     1       3.025   1.799  18.726  0.00  0.00    +0.000 NA
ATOM     23  C   UNL     1       3.495   2.675  19.585  0.00  0.00    +0.000 A 
BRANCH  20  24
ATOM     24  C   UNL     1       5.009   4.065  16.543  0.00  0.00    +0.000 A 
ATOM     25  C   UNL     1       4.779   5.430  16.315  0.00  0.00    +0.000 A 
ATOM     26  C   UNL     1       5.337   6.090  15.216  0.00  0.00    +0.000 A 
ATOM     27  C   UNL     1       6.208   5.418  14.370  0.00  0.00    +0.000 A 
ATOM     28  C   UNL     1       6.533   4.091  14.634  0.00  0.00    +0.000 A 
ATOM     29  C   UNL     1       5.933   3.419  15.708  0.00  0.00    +0.000 A 
ENDBRANCH  20  24
BRANCH  19  31
ATOM     30  C   UNL     1       6.422   5.091  19.343  0.00  0.00    +0.000 C 
ATOM     31  C   UNL     1       4.944   4.797  19.553  0.00  0.00    +0.000 C 
ENDBRANCH  19  31
ENDBRANCH  18  23
ENDBRANCH  17  18
ENDBRANCH   1  17
TORSDOF 7
ENDMDL
MODEL 9
REMARK VINA RESULT:      -7.5      6.668      9.303
REMARK  Name = 
REMARK  8 active torsions:
REMARK  status: ('A' for Active; 'I' for Inactive)
REMARK    1  A    between atoms: C_1  and  C_2
REMARK    2  A    between atoms: C_2  and  N_3
REMARK    3  A    between atoms: C_4  and  C_5
REMARK    4  A    between atoms: C_13  and  S_14
REMARK    5  A    between atoms: S_14  and  C_15
REMARK    6  A    between atoms: C_15  and  C_16
REMARK    7  A    between atoms: N_18  and  C_19
REMARK    8  A    between atoms: C_22  and  C_23
REMARK                            x       y       z     vdW  Elec       q    Type
REMARK                         _______ _______ _______ _____ _____    ______ ____
ROOT
ATOM      1  C   UNL     1       1.437   4.363  20.552  0.00  0.00    +0.000 C 
ATOM      2  O   UNL     1       0.665   4.233  19.605  0.00  0.00    +0.000 OA
ATOM      3  N   UNL     1       2.170   5.492  20.861  0.00  0.00    +0.000 N 
ATOM      4  H   UNL     1       2.928   5.357  21.532  0.00  0.00    +0.000 HD
ENDROOT
BRANCH   3   5
ATOM      5  C   UNL     1       2.028   6.784  20.329  0.00  0.00    +0.000 A 
ATOM      6  C   UNL     1       2.451   7.140  19.054  0.00  0.00    +0.000 A 
ATOM      7  C   UNL     1       2.088   8.377  18.521  0.00  0.00    +0.000 A 
ATOM      8  C   UNL     1       1.283   9.276  19.242  0.00  0.00    +0.000 A 
ATOM      9  C   UNL     1       0.993   8.969  20.573  0.00  0.00    +0.000 A 
ATOM     10  C   UNL     1       1.345   7.724  21.104  0.00  0.00    +0.000 A 
BRANCH   8  11
ATOM     11  C   UNL     1       0.654  10.438  18.477  0.00  0.00    +0.000 C 
ATOM     12  C   UNL     1      -0.841  10.532  18.863  0.00  0.00    +0.000 C 
ATOM     13  C   UNL     1      -1.042  11.177  20.233  0.00  0.00    +0.000 C 
ATOM     14  C   UNL     1      -0.482  12.593  20.239  0.00  0.00    +0.000 C 
ATOM     15  C   UNL     1       0.992  12.623  19.855  0.00  0.00    +0.000 C 
ATOM     16  C   UNL     1       1.313  11.827  18.584  0.00  0.00    +0.000 C 
ENDBRANCH   8  11
ENDBRANCH   3   5
BRANCH   1  17
ATOM     17  C   UNL     1       1.653   3.236  21.543  0.00  0.00    +0.000 C 
BRANCH  17  18
ATOM     18  S   UNL     1       3.260   2.451  21.322  0.00  0.00    +0.000 S 
BRANCH  18  23
ATOM     19  N   UNL     1       4.330   3.524  19.009  0.00  0.00    +0.000 N 
ATOM     20  C   UNL     1       4.266   3.276  17.627  0.00  0.00    +0.000 A 
ATOM     21  C   UNL     1       3.374   2.217  17.521  0.00  0.00    +0.000 A 
ATOM     22  N   UNL     1       2.962   1.773  18.746  0.00  0.00    +0.000 NA
ATOM     23  C   UNL     1       3.530   2.582  19.611  0.00  0.00    +0.000 A 
BRANCH  20  24
ATOM     24  C   UNL     1       4.918   4.043  16.543  0.00  0.00    +0.000 A 
ATOM     25  C   UNL     1       5.817   3.454  15.641  0.00  0.00    +0.000 A 
ATOM     26  C   UNL     1       6.518   4.220  14.704  0.00  0.00    +0.000 A 
ATOM     27  C   UNL     1       6.269   5.581  14.593  0.00  0.00    +0.000 A 
ATOM     28  C   UNL     1       5.307   6.171  15.408  0.00  0.00    +0.000 A 
ATOM     29  C   UNL     1       4.643   5.410  16.378  0.00  0.00    +0.000 A 
ENDBRANCH  20  24
BRANCH  19  31
ATOM     30  C   UNL     1       6.546   4.884  19.257  0.00  0.00    +0.000 C 
ATOM     31  C   UNL     1       5.082   4.630  19.581  0.00  0.00    +0.000 C 
ENDBRANCH  19  31
ENDBRANCH  18  23
ENDBRANCH  17  18
ENDBRANCH   1  17
TORSDOF 7
ENDMDL
