MODEL 1
REMARK VINA RESULT:      -7.4      0.000      0.000
REMARK  Name = 
REMARK  4 active torsions:
REMARK  status: ('A' for Active; 'I' for Inactive)
REMARK    1  A    between atoms: C_1  and  C_2
REMARK    2  A    between atoms: C_4  and  C_5
REMARK    3  A    between atoms: C_7  and  C_9
REMARK    4  A    between atoms: C_14  and  C_15
REMARK                            x       y       z     vdW  Elec       q    Type
REMARK                         _______ _______ _______ _____ _____    ______ ____
ROOT
ATOM      1  C   UNL     1       8.081   5.990  19.392  0.00  0.00    +0.000 C 
ATOM      2  C   UNL     1       7.174   5.222  18.508  0.00  0.00    +0.000 A 
ATOM      3  C   UNL     1       7.227   5.110  17.103  0.00  0.00    +0.000 A 
ATOM      4  C   UNL     1       6.144   4.333  16.757  0.00  0.00    +0.000 A 
ATOM      5  C   UNL     1       5.642   3.930  15.420  0.00  0.00    +0.000 C 
ATOM      6  N   UNL     1       5.476   4.043  17.939  0.00  0.00    +0.000 N 
ATOM      7  C   UNL     1       4.251   3.361  18.107  0.00  0.00    +0.000 C 
ATOM      8  O   UNL     1       3.912   2.588  17.209  0.00  0.00    +0.000 OA
ATOM      9  N   UNL     1       6.140   4.547  19.018  0.00  0.00    +0.000 NA
ENDROOT
BRANCH   7  10
ATOM     10  C   UNL     1       3.305   3.536  19.250  0.00  0.00    +0.000 A 
ATOM     11  C   UNL     1       3.439   2.615  20.308  0.00  0.00    +0.000 A 
ATOM     12  C   UNL     1       2.510   2.578  21.347  0.00  0.00    +0.000 A 
ATOM     13  C   UNL     1       1.435   3.458  21.343  0.00  0.00    +0.000 A 
ATOM     14  C   UNL     1       1.292   4.376  20.306  0.00  0.00    +0.000 A 
ATOM     15  C   UNL     1       2.203   4.418  19.232  0.00  0.00    +0.000 A 
ATOM     16  C   UNL     1       1.925   5.402  18.130  0.00  0.00    +0.000 C 
ENDBRANCH   7  10
TORSDOF 1
ENDMDL
MODEL 2
REMARK VINA RESULT:      -7.2      1.683      2.686
REMARK  Name = 
REMARK  4 active torsions:
REMARK  status: ('A' for Active; 'I' for Inactive)
REMARK    1  A    between atoms: C_1  and  C_2
REMARK    2  A    between atoms: C_4  and  C_5
REMARK    3  A    between atoms: C_7  and  C_9
REMARK    4  A    between atoms: C_14  and  C_15
REMARK                            x       y       z     vdW  Elec       q    Type
REMARK                         _______ _______ _______ _____ _____    ______ ____
ROOT
ATOM      1  C   UNL     1       6.151   4.000  14.059  0.00  0.00    +0.000 C 
ATOM      2  C   UNL     1       6.289   4.384  15.483  0.00  0.00    +0.000 A 
ATOM      3  C   UNL     1       7.472   4.703  16.182  0.00  0.00    +0.000 A 
ATOM      4  C   UNL     1       7.078   4.940  17.480  0.00  0.00    +0.000 A 
ATOM      5  C   UNL     1       7.887   5.250  18.685  0.00  0.00    +0.000 C 
ATOM      6  N   UNL     1       5.707   4.725  17.519  0.00  0.00    +0.000 N 
ATOM      7  C   UNL     1       4.850   4.742  18.640  0.00  0.00    +0.000 C 
ATOM      8  O   UNL     1       5.222   5.392  19.620  0.00  0.00    +0.000 OA
ATOM      9  N   UNL     1       5.218   4.434  16.279  0.00  0.00    +0.000 NA
ENDROOT
BRANCH   7  10
ATOM     10  C   UNL     1       3.561   3.996  18.765  0.00  0.00    +0.000 A 
ATOM     11  C   UNL     1       3.671   2.618  19.039  0.00  0.00    +0.000 A 
ATOM     12  C   UNL     1       2.547   1.792  19.015  0.00  0.00    +0.000 A 
ATOM     13  C   UNL     1       1.302   2.330  18.716  0.00  0.00    +0.000 A 
ATOM     14  C   UNL     1       1.179   3.690  18.447  0.00  0.00    +0.000 A 
ATOM     15  C   UNL     1       2.300   4.543  18.441  0.00  0.00    +0.000 A 
ATOM     16  C   UNL     1       2.071   5.982  18.075  0.00  0.00    +0.000 C 
ENDBRANCH   7  10
TORSDOF 1
ENDMDL
MODEL 3
REMARK VINA RESULT:      -7.2      1.626      3.185
REMARK  Name = 
REMARK  4 active torsions:
REMARK  status: ('A' for Active; 'I' for Inactive)
REMARK    1  A    between atoms: C_1  and  C_2
REMARK    2  A    between atoms: C_4  and  C_5
REMARK    3  A    between atoms: C_7  and  C_9
REMARK    4  A    between atoms: C_14  and  C_15
REMARK                            x       y       z     vdW  Elec       q    Type
REMARK                         _______ _______ _______ _____ _____    ______ ____
ROOT
ATOM      1  C   UNL     1       5.944   3.871  13.737  0.00  0.00    +0.000 C 
ATOM      2  C   UNL     1       6.055   4.329  15.142  0.00  0.00    +0.000 A 
ATOM      3  C   UNL     1       7.208   4.784  15.814  0.00  0.00    +0.000 A 
ATOM      4  C   UNL     1       6.802   5.041  17.104  0.00  0.00    +0.000 A 
ATOM      5  C   UNL     1       7.586   5.477  18.287  0.00  0.00    +0.000 C 
ATOM      6  N   UNL     1       5.457   4.704  17.166  0.00  0.00    +0.000 N 
ATOM      7  C   UNL     1       4.608   4.693  18.295  0.00  0.00    +0.000 C 
ATOM      8  O   UNL     1       4.925   5.416  19.242  0.00  0.00    +0.000 OA
ATOM      9  N   UNL     1       4.988   4.317  15.946  0.00  0.00    +0.000 NA
ENDROOT
BRANCH   7  10
ATOM     10  C   UNL     1       3.393   3.840  18.464  0.00  0.00    +0.000 A 
ATOM     11  C   UNL     1       2.212   4.324  17.867  0.00  0.00    +0.000 A 
ATOM     12  C   UNL     1       0.987   3.701  18.097  0.00  0.00    +0.000 A 
ATOM     13  C   UNL     1       0.924   2.587  18.925  0.00  0.00    +0.000 A 
ATOM     14  C   UNL     1       2.083   2.095  19.518  0.00  0.00    +0.000 A 
ATOM     15  C   UNL     1       3.330   2.721  19.323  0.00  0.00    +0.000 A 
ATOM     16  C   UNL     1       4.511   2.151  20.058  0.00  0.00    +0.000 C 
ENDBRANCH   7  10
TORSDOF 1
ENDMDL
MODEL 4
REMARK VINA RESULT:      -7.0      1.872      5.087
REMARK  Name = 
REMARK  4 active torsions:
REMARK  status: ('A' for Active; 'I' for Inactive)
REMARK    1  A    between atoms: C_1  and  C_2
REMARK    2  A    between atoms: C_4  and  C_5
REMARK    3  A    between atoms: C_7  and  C_9
REMARK    4  A    between atoms: C_14  and  C_15
REMARK                            x       y       z     vdW  Elec       q    Type
REMARK                         _______ _______ _______ _____ _____    ______ ____
ROOT
ATOM      1  C   UNL     1       1.513   7.393  20.844  0.00  0.00    +0.000 C 
ATOM      2  C   UNL     1       2.006   6.140  20.229  0.00  0.00    +0.000 A 
ATOM      3  C   UNL     1       1.514   4.832  20.418  0.00  0.00    +0.000 A 
ATOM      4  C   UNL     1       2.336   4.019  19.670  0.00  0.00    +0.000 A 
ATOM      5  C   UNL     1       2.354   2.541  19.530  0.00  0.00    +0.000 C 
ATOM      6  N   UNL     1       3.293   4.848  19.100  0.00  0.00    +0.000 N 
ATOM      7  C   UNL     1       4.418   4.485  18.329  0.00  0.00    +0.000 C 
ATOM      8  O   UNL     1       4.371   3.400  17.744  0.00  0.00    +0.000 OA
ATOM      9  N   UNL     1       3.056   6.156  19.403  0.00  0.00    +0.000 NA
ENDROOT
BRANCH   7  10
ATOM     10  C   UNL     1       5.682   5.272  18.205  0.00  0.00    +0.000 A 
ATOM     11  C   UNL     1       6.611   5.115  19.254  0.00  0.00    +0.000 A 
ATOM     12  C   UNL     1       7.747   5.919  19.329  0.00  0.00    +0.000 A 
ATOM     13  C   UNL     1       7.971   6.889  18.361  0.00  0.00    +0.000 A 
ATOM     14  C   UNL     1       7.065   7.053  17.317  0.00  0.00    +0.000 A 
ATOM     15  C   UNL     1       5.896   6.271  17.231  0.00  0.00    +0.000 A 
ATOM     16  C   UNL     1       4.949   6.568  16.102  0.00  0.00    +0.000 C 
ENDBRANCH   7  10
TORSDOF 1
ENDMDL
MODEL 5
REMARK VINA RESULT:      -6.9      1.059      1.810
REMARK  Name = 
REMARK  4 active torsions:
REMARK  status: ('A' for Active; 'I' for Inactive)
REMARK    1  A    between atoms: C_1  and  C_2
REMARK    2  A    between atoms: C_4  and  C_5
REMARK    3  A    between atoms: C_7  and  C_9
REMARK    4  A    between atoms: C_14  and  C_15
REMARK                            x       y       z     vdW  Elec       q    Type
REMARK                         _______ _______ _______ _____ _____    ______ ____
ROOT
ATOM      1  C   UNL     1       8.089   5.685  19.714  0.00  0.00    +0.000 C 
ATOM      2  C   UNL     1       7.115   5.464  18.620  0.00  0.00    +0.000 A 
ATOM      3  C   UNL     1       7.159   5.977  17.307  0.00  0.00    +0.000 A 
ATOM      4  C   UNL     1       6.009   5.526  16.699  0.00  0.00    +0.000 A 
ATOM      5  C   UNL     1       5.472   5.797  15.342  0.00  0.00    +0.000 C 
ATOM      6  N   UNL     1       5.315   4.803  17.660  0.00  0.00    +0.000 N 
ATOM      7  C   UNL     1       4.032   4.222  17.562  0.00  0.00    +0.000 C 
ATOM      8  O   UNL     1       3.624   3.955  16.430  0.00  0.00    +0.000 OA
ATOM      9  N   UNL     1       6.023   4.723  18.823  0.00  0.00    +0.000 NA
ENDROOT
BRANCH   7  10
ATOM     10  C   UNL     1       3.105   3.955  18.703  0.00  0.00    +0.000 A 
ATOM     11  C   UNL     1       2.541   5.092  19.316  0.00  0.00    +0.000 A 
ATOM     12  C   UNL     1       1.794   4.976  20.488  0.00  0.00    +0.000 A 
ATOM     13  C   UNL     1       1.602   3.726  21.062  0.00  0.00    +0.000 A 
ATOM     14  C   UNL     1       2.150   2.594  20.465  0.00  0.00    +0.000 A 
ATOM     15  C   UNL     1       2.930   2.686  19.295  0.00  0.00    +0.000 A 
ATOM     16  C   UNL     1       3.531   1.415  18.765  0.00  0.00    +0.000 C 
ENDBRANCH   7  10
TORSDOF 1
ENDMDL
MODEL 6
REMARK VINA RESULT:      -6.8      1.037      1.967
REMARK  Name = 
REMARK  4 active torsions:
REMARK  status: ('A' for Active; 'I' for Inactive)
REMARK    1  A    between atoms: C_1  and  C_2
REMARK    2  A    between atoms: C_4  and  C_5
REMARK    3  A    between atoms: C_7  and  C_9
REMARK    4  A    between atoms: C_14  and  C_15
REMARK                            x       y       z     vdW  Elec       q    Type
REMARK                         _______ _______ _______ _____ _____    ______ ____
ROOT
ATOM      1  C   UNL     1       8.228   5.520  19.377  0.00  0.00    +0.000 C 
ATOM      2  C   UNL     1       7.219   5.025  18.413  0.00  0.00    +0.000 A 
ATOM      3  C   UNL     1       7.392   4.764  17.038  0.00  0.00    +0.000 A 
ATOM      4  C   UNL     1       6.153   4.373  16.580  0.00  0.00    +0.000 A 
ATOM      5  C   UNL     1       5.700   4.037  15.207  0.00  0.00    +0.000 C 
ATOM      6  N   UNL     1       5.293   4.445  17.668  0.00  0.00    +0.000 N 
ATOM      7  C   UNL     1       3.897   4.241  17.695  0.00  0.00    +0.000 C 
ATOM      8  O   UNL     1       3.415   3.546  16.797  0.00  0.00    +0.000 OA
ATOM      9  N   UNL     1       5.962   4.796  18.803  0.00  0.00    +0.000 NA
ENDROOT
BRANCH   7  10
ATOM     10  C   UNL     1       2.946   4.839  18.680  0.00  0.00    +0.000 A 
ATOM     11  C   UNL     1       2.926   6.247  18.740  0.00  0.00    +0.000 A 
ATOM     12  C   UNL     1       2.203   6.911  19.730  0.00  0.00    +0.000 A 
ATOM     13  C   UNL     1       1.492   6.179  20.672  0.00  0.00    +0.000 A 
ATOM     14  C   UNL     1       1.499   4.788  20.623  0.00  0.00    +0.000 A 
ATOM     15  C   UNL     1       2.241   4.092  19.648  0.00  0.00    +0.000 A 
ATOM     16  C   UNL     1       2.236   2.591  19.719  0.00  0.00    +0.000 C 
ENDBRANCH   7  10
TORSDOF 1
ENDMDL
MODEL 7
REMARK VINA RESULT:      -6.7      1.707      5.231
REMARK  Name = 
REMARK  4 active torsions:
REMARK  status: ('A' for Active; 'I' for Inactive)
REMARK    1  A    between atoms: C_1  and  C_2
REMARK    2  A    between atoms: C_4  and  C_5
REMARK    3  A    between atoms: C_7  and  C_9
REMARK    4  A    between atoms: C_14  and  C_15
REMARK                            x       y       z     vdW  Elec       q    Type
REMARK                         _______ _______ _______ _____ _____    ______ ____
ROOT
ATOM      1  C   UNL     1       1.873   8.064  19.678  0.00  0.00    +0.000 C 
ATOM      2  C   UNL     1       2.193   6.618  19.719  0.00  0.00    +0.000 A 
ATOM      3  C   UNL     1       1.865   5.689  20.728  0.00  0.00    +0.000 A 
ATOM      4  C   UNL     1       2.425   4.497  20.325  0.00  0.00    +0.000 A 
ATOM      5  C   UNL     1       2.473   3.181  21.009  0.00  0.00    +0.000 C 
ATOM      6  N   UNL     1       3.084   4.759  19.131  0.00  0.00    +0.000 N 
ATOM      7  C   UNL     1       3.896   3.889  18.372  0.00  0.00    +0.000 C 
ATOM      8  O   UNL     1       3.709   2.678  18.516  0.00  0.00    +0.000 OA
ATOM      9  N   UNL     1       2.895   6.050  18.736  0.00  0.00    +0.000 NA
ENDROOT
BRANCH   7  10
ATOM     10  C   UNL     1       4.998   4.304  17.452  0.00  0.00    +0.000 A 
ATOM     11  C   UNL     1       4.864   3.900  16.108  0.00  0.00    +0.000 A 
ATOM     12  C   UNL     1       5.904   4.087  15.198  0.00  0.00    +0.000 A 
ATOM     13  C   UNL     1       7.089   4.678  15.617  0.00  0.00    +0.000 A 
ATOM     14  C   UNL     1       7.233   5.086  16.939  0.00  0.00    +0.000 A 
ATOM     15  C   UNL     1       6.209   4.886  17.886  0.00  0.00    +0.000 A 
ATOM     16  C   UNL     1       6.487   5.303  19.302  0.00  0.00    +0.000 C 
ENDBRANCH   7  10
TORSDOF 1
ENDMDL
MODEL 8
REMARK VINA RESULT:      -6.7      1.654      2.741
REMARK  Name = 
REMARK  4 active torsions:
REMARK  status: ('A' for Active; 'I' for Inactive)
REMARK    1  A    between atoms: C_1  and  C_2
REMARK    2  A    between atoms: C_4  and  C_5
REMARK    3  A    between atoms: C_7  and  C_9
REMARK    4  A    between atoms: C_14  and  C_15
REMARK                            x       y       z     vdW  Elec       q    Type
REMARK                         _______ _______ _______ _____ _____    ______ ____
ROOT
ATOM      1  C   UNL     1       8.146   5.842  19.515  0.00  0.00    +0.000 C 
ATOM      2  C   UNL     1       7.079   5.319  18.631  0.00  0.00    +0.000 A 
ATOM      3  C   UNL     1       7.225   4.710  17.367  0.00  0.00    +0.000 A 
ATOM      4  C   UNL     1       5.943   4.449  16.936  0.00  0.00    +0.000 A 
ATOM      5  C   UNL     1       5.460   3.882  15.652  0.00  0.00    +0.000 C 
ATOM      6  N   UNL     1       5.093   4.932  17.921  0.00  0.00    +0.000 N 
ATOM      7  C   UNL     1       3.682   4.994  17.907  0.00  0.00    +0.000 C 
ATOM      8  O   UNL     1       3.094   4.202  17.167  0.00  0.00    +0.000 OA
ATOM      9  N   UNL     1       5.795   5.419  18.984  0.00  0.00    +0.000 NA
ENDROOT
BRANCH   7  10
ATOM     10  C   UNL     1       2.844   5.971  18.665  0.00  0.00    +0.000 A 
ATOM     11  C   UNL     1       2.747   7.262  18.108  0.00  0.00    +0.000 A 
ATOM     12  C   UNL     1       2.130   8.298  18.808  0.00  0.00    +0.000 A 
ATOM     13  C   UNL     1       1.604   8.060  20.071  0.00  0.00    +0.000 A 
ATOM     14  C   UNL     1       1.688   6.789  20.632  0.00  0.00    +0.000 A 
ATOM     15  C   UNL     1       2.328   5.730  19.957  0.00  0.00    +0.000 A 
ATOM     16  C   UNL     1       2.424   4.413  20.674  0.00  0.00    +0.000 C 
ENDBRANCH   7  10
TORSDOF 1
ENDMDL
MODEL 9
REMARK VINA RESULT:      -6.5      3.819      5.184
REMARK  Name = 
REMARK  4 active torsions:
REMARK  status: ('A' for Active; 'I' for Inactive)
REMARK    1  A    between atoms: C_1  and  C_2
REMARK    2  A    between atoms: C_4  and  C_5
REMARK    3  A    between atoms: C_7  and  C_9
REMARK    4  A    between atoms: C_14  and  C_15
REMARK                            x       y       z     vdW  Elec       q    Type
REMARK                         _______ _______ _______ _____ _____    ______ ____
ROOT
ATOM      1  C   UNL     1      -0.164   9.271  22.368  0.00  0.00    +0.000 C 
ATOM      2  C   UNL     1       0.656   8.883  21.197  0.00  0.00    +0.000 A 
ATOM      3  C   UNL     1       0.948   9.653  20.052  0.00  0.00    +0.000 A 
ATOM      4  C   UNL     1       1.699   8.833  19.241  0.00  0.00    +0.000 A 
ATOM      5  C   UNL     1       2.238   9.066  17.877  0.00  0.00    +0.000 C 
ATOM      6  N   UNL     1       1.798   7.614  19.899  0.00  0.00    +0.000 N 
ATOM      7  C   UNL     1       2.382   6.415  19.437  0.00  0.00    +0.000 C 
ATOM      8  O   UNL     1       3.242   6.512  18.558  0.00  0.00    +0.000 OA
ATOM      9  N   UNL     1       1.201   7.665  21.124  0.00  0.00    +0.000 NA
ENDROOT
BRANCH   7  10
ATOM     10  C   UNL     1       2.010   5.036  19.878  0.00  0.00    +0.000 A 
ATOM     11  C   UNL     1       2.301   4.720  21.221  0.00  0.00    +0.000 A 
ATOM     12  C   UNL     1       2.150   3.418  21.697  0.00  0.00    +0.000 A 
ATOM     13  C   UNL     1       1.708   2.417  20.841  0.00  0.00    +0.000 A 
ATOM     14  C   UNL     1       1.413   2.717  19.515  0.00  0.00    +0.000 A 
ATOM     15  C   UNL     1       1.580   4.017  19.000  0.00  0.00    +0.000 A 
ATOM     16  C   UNL     1       1.296   4.224  17.539  0.00  0.00    +0.000 C 
ENDBRANCH   7  10
TORSDOF 1
ENDMDL
