MODEL 1
REMARK VINA RESULT:      -7.0      0.000      0.000
REMARK  Name = 
REMARK  9 active torsions:
REMARK  status: ('A' for Active; 'I' for Inactive)
REMARK    1  A    between atoms: C_1  and  C_2
REMARK    2  A    between atoms: C_2  and  O_3
REMARK    3  A    between atoms: O_3  and  C_4
REMARK    4  A    between atoms: C_9  and  N_10
REMARK    5  A    between atoms: C_11  and  C_13
REMARK    6  A    between atoms: C_15  and  S_16
REMARK    7  A    between atoms: S_16  and  C_17
REMARK    8  A    between atoms: C_17  and  C_18
REMARK    9  A    between atoms: C_17  and  C_19
REMARK                            x       y       z     vdW  Elec       q    Type
REMARK                         _______ _______ _______ _____ _____    ______ ____
ROOT
ATOM      1  N   UNL     1       3.768   4.502  17.472  0.00  0.00    +0.000 N 
ATOM      2  C   UNL     1       4.630   3.642  16.806  0.00  0.00    +0.000 C 
ATOM      3  O   UNL     1       4.532   2.421  16.788  0.00  0.00    +0.000 OA
ATOM      4  H   UNL     1       3.919   5.492  17.309  0.00  0.00    +0.000 HD
ENDROOT
BRANCH   2   5
ATOM      5  C   UNL     1       5.715   4.320  16.021  0.00  0.00    +0.000 A 
ATOM      6  N   UNL     1       5.732   3.979  14.701  0.00  0.00    +0.000 NA
ATOM      7  C   UNL     1       6.688   4.547  13.951  0.00  0.00    +0.000 A 
ATOM      8  N   UNL     1       7.584   5.435  14.403  0.00  0.00    +0.000 NA
ATOM      9  C   UNL     1       7.535   5.729  15.719  0.00  0.00    +0.000 A 
ATOM     10  C   UNL     1       6.623   5.194  16.598  0.00  0.00    +0.000 A 
ATOM     11 CL   UNL     1       6.731   5.648  18.250  0.00  0.00    +0.000 Cl
BRANCH   7  12
ATOM     12  S   UNL     1       6.784   4.000  12.272  0.00  0.00    +0.000 S 
BRANCH  12  13
ATOM     13  C   UNL     1       5.388   2.808  12.192  0.00  0.00    +0.000 C 
ATOM     14  C   UNL     1       4.177   3.369  11.445  0.00  0.00    +0.000 C 
ATOM     15  C   UNL     1       5.901   1.563  11.467  0.00  0.00    +0.000 C 
ENDBRANCH  12  13
ENDBRANCH   7  12
ENDBRANCH   2   5
BRANCH   1  21
ATOM     16  C   UNL     1       2.296   4.854  19.432  0.00  0.00    +0.000 A 
ATOM     17  C   UNL     1       1.241   4.384  20.237  0.00  0.00    +0.000 A 
ATOM     18  C   UNL     1       0.548   3.217  19.920  0.00  0.00    +0.000 A 
ATOM     19  C   UNL     1       0.915   2.491  18.800  0.00  0.00    +0.000 A 
ATOM     20  C   UNL     1       1.966   2.940  17.999  0.00  0.00    +0.000 A 
ATOM     21  C   UNL     1       2.672   4.123  18.288  0.00  0.00    +0.000 A 
BRANCH  16  22
ATOM     22  O   UNL     1       2.861   5.998  19.931  0.00  0.00    +0.000 OA
BRANCH  22  24
ATOM     23  C   UNL     1       2.419   7.743  18.351  0.00  0.00    +0.000 C 
ATOM     24  C   UNL     1       2.170   7.232  19.762  0.00  0.00    +0.000 C 
ENDBRANCH  22  24
ENDBRANCH  16  22
ENDBRANCH   1  21
TORSDOF 6
ENDMDL
MODEL 2
REMARK VINA RESULT:      -7.0      3.027      6.536
REMARK  Name = 
REMARK  9 active torsions:
REMARK  status: ('A' for Active; 'I' for Inactive)
REMARK    1  A    between atoms: C_1  and  C_2
REMARK    2  A    between atoms: C_2  and  O_3
REMARK    3  A    between atoms: O_3  and  C_4
REMARK    4  A    between atoms: C_9  and  N_10
REMARK    5  A    between atoms: C_11  and  C_13
REMARK    6  A    between atoms: C_15  and  S_16
REMARK    7  A    between atoms: S_16  and  C_17
REMARK    8  A    between atoms: C_17  and  C_18
REMARK    9  A    between atoms: C_17  and  C_19
REMARK                            x       y       z     vdW  Elec       q    Type
REMARK                         _______ _______ _______ _____ _____    ______ ____
ROOT
ATOM      1  N   UNL     1       4.617   4.805  16.753  0.00  0.00    +0.000 N 
ATOM      2  C   UNL     1       4.251   6.024  17.308  0.00  0.00    +0.000 C 
ATOM      3  O   UNL     1       4.554   7.122  16.858  0.00  0.00    +0.000 OA
ATOM      4  H   UNL     1       4.205   3.983  17.181  0.00  0.00    +0.000 HD
ENDROOT
BRANCH   2   5
ATOM      5  C   UNL     1       3.371   5.925  18.520  0.00  0.00    +0.000 A 
ATOM      6  N   UNL     1       3.427   4.711  19.141  0.00  0.00    +0.000 NA
ATOM      7  C   UNL     1       2.654   4.561  20.225  0.00  0.00    +0.000 A 
ATOM      8  N   UNL     1       1.874   5.519  20.745  0.00  0.00    +0.000 NA
ATOM      9  C   UNL     1       1.843   6.696  20.087  0.00  0.00    +0.000 A 
ATOM     10  C   UNL     1       2.566   6.967  18.949  0.00  0.00    +0.000 A 
ATOM     11 CL   UNL     1       2.374   8.508  18.218  0.00  0.00    +0.000 Cl
BRANCH   7  12
ATOM     12  S   UNL     1       2.633   2.946  20.945  0.00  0.00    +0.000 S 
BRANCH  12  13
ATOM     13  C   UNL     1       1.946   1.937  19.570  0.00  0.00    +0.000 C 
ATOM     14  C   UNL     1       0.790   2.633  18.850  0.00  0.00    +0.000 C 
ATOM     15  C   UNL     1       3.086   1.689  18.582  0.00  0.00    +0.000 C 
ENDBRANCH  12  13
ENDBRANCH   7  12
ENDBRANCH   2   5
BRANCH   1  21
ATOM     16  C   UNL     1       6.809   4.979  15.613  0.00  0.00    +0.000 A 
ATOM     17  C   UNL     1       7.560   4.830  14.431  0.00  0.00    +0.000 A 
ATOM     18  C   UNL     1       6.990   4.318  13.267  0.00  0.00    +0.000 A 
ATOM     19  C   UNL     1       5.651   3.965  13.263  0.00  0.00    +0.000 A 
ATOM     20  C   UNL     1       4.892   4.118  14.425  0.00  0.00    +0.000 A 
ATOM     21  C   UNL     1       5.447   4.618  15.618  0.00  0.00    +0.000 A 
BRANCH  16  22
ATOM     22  O   UNL     1       7.547   5.524  16.632  0.00  0.00    +0.000 OA
BRANCH  22  24
ATOM     23  C   UNL     1       7.621   5.719  19.018  0.00  0.00    +0.000 C 
ATOM     24  C   UNL     1       7.716   4.773  17.830  0.00  0.00    +0.000 C 
ENDBRANCH  22  24
ENDBRANCH  16  22
ENDBRANCH   1  21
TORSDOF 6
ENDMDL
MODEL 3
REMARK VINA RESULT:      -7.0      4.317      5.974
REMARK  Name = 
REMARK  9 active torsions:
REMARK  status: ('A' for Active; 'I' for Inactive)
REMARK    1  A    between atoms: C_1  and  C_2
REMARK    2  A    between atoms: C_2  and  O_3
REMARK    3  A    between atoms: O_3  and  C_4
REMARK    4  A    between atoms: C_9  and  N_10
REMARK    5  A    between atoms: C_11  and  C_13
REMARK    6  A    between atoms: C_15  and  S_16
REMARK    7  A    between atoms: S_16  and  C_17
REMARK    8  A    between atoms: C_17  and  C_18
REMARK    9  A    between atoms: C_17  and  C_19
REMARK                            x       y       z     vdW  Elec       q    Type
REMARK                         _______ _______ _______ _____ _____    ______ ____
ROOT
ATOM      1  N   UNL     1       2.262   6.948  20.523  0.00  0.00    +0.000 N 
ATOM      2  C   UNL     1       1.796   5.645  20.410  0.00  0.00    +0.000 C 
ATOM      3  O   UNL     1       0.620   5.310  20.473  0.00  0.00    +0.000 OA
ATOM      4  H   UNL     1       3.252   7.080  20.347  0.00  0.00    +0.000 HD
ENDROOT
BRANCH   2   5
ATOM      5  C   UNL     1       2.857   4.618  20.139  0.00  0.00    +0.000 A 
ATOM      6  N   UNL     1       3.801   5.028  19.244  0.00  0.00    +0.000 NA
ATOM      7  C   UNL     1       4.769   4.147  18.954  0.00  0.00    +0.000 A 
ATOM      8  N   UNL     1       4.883   2.931  19.505  0.00  0.00    +0.000 NA
ATOM      9  C   UNL     1       3.918   2.568  20.374  0.00  0.00    +0.000 A 
ATOM     10  C   UNL     1       2.858   3.367  20.733  0.00  0.00    +0.000 A 
ATOM     11 CL   UNL     1       1.697   2.726  21.823  0.00  0.00    +0.000 Cl
BRANCH   7  12
ATOM     12  S   UNL     1       5.912   4.636  17.697  0.00  0.00    +0.000 S 
BRANCH  12  13
ATOM     13  C   UNL     1       6.738   6.076  18.487  0.00  0.00    +0.000 C 
ATOM     14  C   UNL     1       7.860   5.661  19.438  0.00  0.00    +0.000 C 
ATOM     15  C   UNL     1       7.314   6.936  17.362  0.00  0.00    +0.000 C 
ENDBRANCH  12  13
ENDBRANCH   7  12
ENDBRANCH   2   5
BRANCH   1  21
ATOM     16  C   UNL     1       0.999   8.937  19.761  0.00  0.00    +0.000 A 
ATOM     17  C   UNL     1       0.281  10.101  20.096  0.00  0.00    +0.000 A 
ATOM     18  C   UNL     1       0.017  10.436  21.424  0.00  0.00    +0.000 A 
ATOM     19  C   UNL     1       0.485   9.618  22.437  0.00  0.00    +0.000 A 
ATOM     20  C   UNL     1       1.208   8.466  22.119  0.00  0.00    +0.000 A 
ATOM     21  C   UNL     1       1.475   8.098  20.787  0.00  0.00    +0.000 A 
BRANCH  16  22
ATOM     22  O   UNL     1       1.174   8.807  18.407  0.00  0.00    +0.000 OA
BRANCH  22  24
ATOM     23  C   UNL     1       3.214   7.998  17.448  0.00  0.00    +0.000 C 
ATOM     24  C   UNL     1       2.408   9.229  17.834  0.00  0.00    +0.000 C 
ENDBRANCH  22  24
ENDBRANCH  16  22
ENDBRANCH   1  21
TORSDOF 6
ENDMDL
MODEL 4
REMARK VINA RESULT:      -6.9      3.817      5.832
REMARK  Name = 
REMARK  9 active torsions:
REMARK  status: ('A' for Active; 'I' for Inactive)
REMARK    1  A    between atoms: C_1  and  C_2
REMARK    2  A    between atoms: C_2  and  O_3
REMARK    3  A    between atoms: O_3  and  C_4
REMARK    4  A    between atoms: C_9  and  N_10
REMARK    5  A    between atoms: C_11  and  C_13
REMARK    6  A    between atoms: C_15  and  S_16
REMARK    7  A    between atoms: S_16  and  C_17
REMARK    8  A    between atoms: C_17  and  C_18
REMARK    9  A    between atoms: C_17  and  C_19
REMARK                            x       y       z     vdW  Elec       q    Type
REMARK                         _______ _______ _______ _____ _____    ______ ____
ROOT
ATOM      1  N   UNL     1       2.187   7.489  19.931  0.00  0.00    +0.000 N 
ATOM      2  C   UNL     1       2.155   6.111  20.093  0.00  0.00    +0.000 C 
ATOM      3  O   UNL     1       1.367   5.504  20.807  0.00  0.00    +0.000 OA
ATOM      4  H   UNL     1       2.830   7.837  19.227  0.00  0.00    +0.000 HD
ENDROOT
BRANCH   2   5
ATOM      5  C   UNL     1       3.152   5.356  19.262  0.00  0.00    +0.000 A 
ATOM      6  N   UNL     1       4.447   5.708  19.505  0.00  0.00    +0.000 NA
ATOM      7  C   UNL     1       5.382   5.073  18.784  0.00  0.00    +0.000 A 
ATOM      8  N   UNL     1       5.129   4.111  17.886  0.00  0.00    +0.000 NA
ATOM      9  C   UNL     1       3.832   3.809  17.672  0.00  0.00    +0.000 A 
ATOM     10  C   UNL     1       2.780   4.406  18.325  0.00  0.00    +0.000 A 
ATOM     11 CL   UNL     1       1.188   3.927  17.897  0.00  0.00    +0.000 Cl
BRANCH   7  12
ATOM     12  S   UNL     1       7.046   5.628  19.011  0.00  0.00    +0.000 S 
BRANCH  12  13
ATOM     13  C   UNL     1       7.304   6.646  17.503  0.00  0.00    +0.000 C 
ATOM     14  C   UNL     1       5.996   6.980  16.786  0.00  0.00    +0.000 C 
ATOM     15  C   UNL     1       7.987   7.940  17.946  0.00  0.00    +0.000 C 
ENDBRANCH  12  13
ENDBRANCH   7  12
ENDBRANCH   2   5
BRANCH   1  21
ATOM     16  C   UNL     1       0.606   9.395  19.911  0.00  0.00    +0.000 A 
ATOM     17  C   UNL     1      -0.136  10.344  20.640  0.00  0.00    +0.000 A 
ATOM     18  C   UNL     1      -0.149  10.342  22.034  0.00  0.00    +0.000 A 
ATOM     19  C   UNL     1       0.597   9.398  22.720  0.00  0.00    +0.000 A 
ATOM     20  C   UNL     1       1.346   8.459  22.008  0.00  0.00    +0.000 A 
ATOM     21  C   UNL     1       1.365   8.430  20.601  0.00  0.00    +0.000 A 
BRANCH  16  22
ATOM     22  O   UNL     1       0.508   9.588  18.557  0.00  0.00    +0.000 OA
BRANCH  22  24
ATOM     23  C   UNL     1      -1.558   9.847  17.373  0.00  0.00    +0.000 C 
ATOM     24  C   UNL     1      -0.411  10.562  18.070  0.00  0.00    +0.000 C 
ENDBRANCH  22  24
ENDBRANCH  16  22
ENDBRANCH   1  21
TORSDOF 6
ENDMDL
MODEL 5
REMARK VINA RESULT:      -6.8      3.698      5.631
REMARK  Name = 
REMARK  9 active torsions:
REMARK  status: ('A' for Active; 'I' for Inactive)
REMARK    1  A    between atoms: C_1  and  C_2
REMARK    2  A    between atoms: C_2  and  O_3
REMARK    3  A    between atoms: O_3  and  C_4
REMARK    4  A    between atoms: C_9  and  N_10
REMARK    5  A    between atoms: C_11  and  C_13
REMARK    6  A    between atoms: C_15  and  S_16
REMARK    7  A    between atoms: S_16  and  C_17
REMARK    8  A    between atoms: C_17  and  C_18
REMARK    9  A    between atoms: C_17  and  C_19
REMARK                            x       y       z     vdW  Elec       q    Type
REMARK                         _______ _______ _______ _____ _____    ______ ____
ROOT
ATOM      1  N   UNL     1       2.229   7.044  20.574  0.00  0.00    +0.000 N 
ATOM      2  C   UNL     1       1.775   5.735  20.489  0.00  0.00    +0.000 C 
ATOM      3  O   UNL     1       0.600   5.392  20.552  0.00  0.00    +0.000 OA
ATOM      4  H   UNL     1       3.220   7.180  20.401  0.00  0.00    +0.000 HD
ENDROOT
BRANCH   2   5
ATOM      5  C   UNL     1       2.845   4.711  20.247  0.00  0.00    +0.000 A 
ATOM      6  N   UNL     1       3.911   5.188  19.543  0.00  0.00    +0.000 NA
ATOM      7  C   UNL     1       4.895   4.314  19.288  0.00  0.00    +0.000 A 
ATOM      8  N   UNL     1       4.910   3.040  19.703  0.00  0.00    +0.000 NA
ATOM      9  C   UNL     1       3.827   2.613  20.383  0.00  0.00    +0.000 A 
ATOM     10  C   UNL     1       2.741   3.401  20.685  0.00  0.00    +0.000 A 
ATOM     11 CL   UNL     1       1.428   2.680  21.524  0.00  0.00    +0.000 Cl
BRANCH   7  12
ATOM     12  S   UNL     1       6.211   4.904  18.264  0.00  0.00    +0.000 S 
BRANCH  12  13
ATOM     13  C   UNL     1       5.352   5.133  16.655  0.00  0.00    +0.000 C 
ATOM     14  C   UNL     1       6.324   5.370  15.498  0.00  0.00    +0.000 C 
ATOM     15  C   UNL     1       4.547   3.860  16.391  0.00  0.00    +0.000 C 
ENDBRANCH  12  13
ENDBRANCH   7  12
ENDBRANCH   2   5
BRANCH   1  21
ATOM     16  C   UNL     1       0.945   8.998  19.760  0.00  0.00    +0.000 A 
ATOM     17  C   UNL     1       0.216  10.164  20.064  0.00  0.00    +0.000 A 
ATOM     18  C   UNL     1      -0.048  10.534  21.382  0.00  0.00    +0.000 A 
ATOM     19  C   UNL     1       0.431   9.750  22.417  0.00  0.00    +0.000 A 
ATOM     20  C   UNL     1       1.164   8.597  22.129  0.00  0.00    +0.000 A 
ATOM     21  C   UNL     1       1.432   8.193  20.808  0.00  0.00    +0.000 A 
BRANCH  16  22
ATOM     22  O   UNL     1       1.118   8.831  18.410  0.00  0.00    +0.000 OA
BRANCH  22  24
ATOM     23  C   UNL     1       3.180   8.033  17.490  0.00  0.00    +0.000 C 
ATOM     24  C   UNL     1       2.341   9.259  17.819  0.00  0.00    +0.000 C 
ENDBRANCH  22  24
ENDBRANCH  16  22
ENDBRANCH   1  21
TORSDOF 6
ENDMDL
MODEL 6
REMARK VINA RESULT:      -6.8      3.540      5.789
REMARK  Name = 
REMARK  9 active torsions:
REMARK  status: ('A' for Active; 'I' for Inactive)
REMARK    1  A    between atoms: C_1  and  C_2
REMARK    2  A    between atoms: C_2  and  O_3
REMARK    3  A    between atoms: O_3  and  C_4
REMARK    4  A    between atoms: C_9  and  N_10
REMARK    5  A    between atoms: C_11  and  C_13
REMARK    6  A    between atoms: C_15  and  S_16
REMARK    7  A    between atoms: S_16  and  C_17
REMARK    8  A    between atoms: C_17  and  C_18
REMARK    9  A    between atoms: C_17  and  C_19
REMARK                            x       y       z     vdW  Elec       q    Type
REMARK                         _______ _______ _______ _____ _____    ______ ____
ROOT
ATOM      1  N   UNL     1       1.975   7.508  19.430  0.00  0.00    +0.000 N 
ATOM      2  C   UNL     1       2.222   6.178  19.741  0.00  0.00    +0.000 C 
ATOM      3  O   UNL     1       1.866   5.618  20.771  0.00  0.00    +0.000 OA
ATOM      4  H   UNL     1       2.242   7.801  18.496  0.00  0.00    +0.000 HD
ENDROOT
BRANCH   2   5
ATOM      5  C   UNL     1       2.937   5.404  18.672  0.00  0.00    +0.000 A 
ATOM      6  N   UNL     1       4.056   6.025  18.201  0.00  0.00    +0.000 NA
ATOM      7  C   UNL     1       4.732   5.384  17.236  0.00  0.00    +0.000 A 
ATOM      8  N   UNL     1       4.401   4.182  16.744  0.00  0.00    +0.000 NA
ATOM      9  C   UNL     1       3.279   3.616  17.233  0.00  0.00    +0.000 A 
ATOM     10  C   UNL     1       2.484   4.183  18.201  0.00  0.00    +0.000 A 
ATOM     11 CL   UNL     1       1.067   3.339  18.677  0.00  0.00    +0.000 Cl
BRANCH   7  12
ATOM     12  S   UNL     1       6.104   6.255  16.540  0.00  0.00    +0.000 S 
BRANCH  12  13
ATOM     13  C   UNL     1       6.950   6.878  18.049  0.00  0.00    +0.000 C 
ATOM     14  C   UNL     1       7.784   5.801  18.743  0.00  0.00    +0.000 C 
ATOM     15  C   UNL     1       7.861   8.026  17.611  0.00  0.00    +0.000 C 
ENDBRANCH  12  13
ENDBRANCH   7  12
ENDBRANCH   2   5
BRANCH   1  21
ATOM     16  C   UNL     1       0.578   9.529  19.744  0.00  0.00    +0.000 A 
ATOM     17  C   UNL     1       0.020  10.474  20.626  0.00  0.00    +0.000 A 
ATOM     18  C   UNL     1       0.182  10.366  22.006  0.00  0.00    +0.000 A 
ATOM     19  C   UNL     1       0.923   9.317  22.524  0.00  0.00    +0.000 A 
ATOM     20  C   UNL     1       1.490   8.379  21.660  0.00  0.00    +0.000 A 
ATOM     21  C   UNL     1       1.330   8.457  20.264  0.00  0.00    +0.000 A 
BRANCH  16  22
ATOM     22  O   UNL     1       0.328   9.832  18.431  0.00  0.00    +0.000 OA
BRANCH  22  24
ATOM     23  C   UNL     1      -1.761   9.901  17.262  0.00  0.00    +0.000 C 
ATOM     24  C   UNL     1      -0.777  10.677  18.123  0.00  0.00    +0.000 C 
ENDBRANCH  22  24
ENDBRANCH  16  22
ENDBRANCH   1  21
TORSDOF 6
ENDMDL
MODEL 7
REMARK VINA RESULT:      -6.8      1.203      1.388
REMARK  Name = 
REMARK  9 active torsions:
REMARK  status: ('A' for Active; 'I' for Inactive)
REMARK    1  A    between atoms: C_1  and  C_2
REMARK    2  A    between atoms: C_2  and  O_3
REMARK    3  A    between atoms: O_3  and  C_4
REMARK    4  A    between atoms: C_9  and  N_10
REMARK    5  A    between atoms: C_11  and  C_13
REMARK    6  A    between atoms: C_15  and  S_16
REMARK    7  A    between atoms: S_16  and  C_17
REMARK    8  A    between atoms: C_17  and  C_18
REMARK    9  A    between atoms: C_17  and  C_19
REMARK                            x       y       z     vdW  Elec       q    Type
REMARK                         _______ _______ _______ _____ _____    ______ ____
ROOT
ATOM      1  N   UNL     1       3.650   4.291  17.721  0.00  0.00    +0.000 N 
ATOM      2  C   UNL     1       5.015   4.175  17.946  0.00  0.00    +0.000 C 
ATOM      3  O   UNL     1       5.526   3.775  18.985  0.00  0.00    +0.000 OA
ATOM      4  H   UNL     1       3.378   4.540  16.776  0.00  0.00    +0.000 HD
ENDROOT
BRANCH   2   5
ATOM      5  C   UNL     1       5.880   4.532  16.772  0.00  0.00    +0.000 A 
ATOM      6  N   UNL     1       5.427   4.034  15.586  0.00  0.00    +0.000 NA
ATOM      7  C   UNL     1       6.165   4.312  14.502  0.00  0.00    +0.000 A 
ATOM      8  N   UNL     1       7.276   5.062  14.508  0.00  0.00    +0.000 NA
ATOM      9  C   UNL     1       7.690   5.520  15.708  0.00  0.00    +0.000 A 
ATOM     10  C   UNL     1       7.038   5.282  16.895  0.00  0.00    +0.000 A 
ATOM     11 CL   UNL     1       7.730   5.908  18.335  0.00  0.00    +0.000 Cl
BRANCH   7  12
ATOM     12  S   UNL     1       5.644   3.553  12.992  0.00  0.00    +0.000 S 
BRANCH  12  13
ATOM     13  C   UNL     1       7.225   3.461  12.060  0.00  0.00    +0.000 C 
ATOM     14  C   UNL     1       7.301   2.235  11.150  0.00  0.00    +0.000 C 
ATOM     15  C   UNL     1       7.322   4.731  11.214  0.00  0.00    +0.000 C 
ENDBRANCH  12  13
ENDBRANCH   7  12
ENDBRANCH   2   5
BRANCH   1  21
ATOM     16  C   UNL     1       2.295   4.931  19.693  0.00  0.00    +0.000 A 
ATOM     17  C   UNL     1       1.309   4.578  20.634  0.00  0.00    +0.000 A 
ATOM     18  C   UNL     1       0.637   3.360  20.562  0.00  0.00    +0.000 A 
ATOM     19  C   UNL     1       0.955   2.466  19.553  0.00  0.00    +0.000 A 
ATOM     20  C   UNL     1       1.939   2.799  18.620  0.00  0.00    +0.000 A 
ATOM     21  C   UNL     1       2.622   4.029  18.661  0.00  0.00    +0.000 A 
BRANCH  16  22
ATOM     22  O   UNL     1       2.853   6.155  19.958  0.00  0.00    +0.000 OA
BRANCH  22  24
ATOM     23  C   UNL     1       2.541   7.745  18.194  0.00  0.00    +0.000 C 
ATOM     24  C   UNL     1       2.130   7.328  19.598  0.00  0.00    +0.000 C 
ENDBRANCH  22  24
ENDBRANCH  16  22
ENDBRANCH   1  21
TORSDOF 6
ENDMDL
MODEL 8
REMARK VINA RESULT:      -6.7      3.246      7.416
REMARK  Name = 
REMARK  9 active torsions:
REMARK  status: ('A' for Active; 'I' for Inactive)
REMARK    1  A    between atoms: C_1  and  C_2
REMARK    2  A    between atoms: C_2  and  O_3
REMARK    3  A    between atoms: O_3  and  C_4
REMARK    4  A    between atoms: C_9  and  N_10
REMARK    5  A    between atoms: C_11  and  C_13
REMARK    6  A    between atoms: C_15  and  S_16
REMARK    7  A    between atoms: S_16  and  C_17
REMARK    8  A    between atoms: C_17  and  C_18
REMARK    9  A    between atoms: C_17  and  C_19
REMARK                            x       y       z     vdW  Elec       q    Type
REMARK                         _______ _______ _______ _____ _____    ______ ____
ROOT
ATOM      1  N   UNL     1       4.578   5.104  17.023  0.00  0.00    +0.000 N 
ATOM      2  C   UNL     1       4.688   4.607  18.314  0.00  0.00    +0.000 C 
ATOM      3  O   UNL     1       5.618   3.926  18.730  0.00  0.00    +0.000 OA
ATOM      4  H   UNL     1       3.802   5.737  16.857  0.00  0.00    +0.000 HD
ENDROOT
BRANCH   2   5
ATOM      5  C   UNL     1       3.579   5.011  19.241  0.00  0.00    +0.000 A 
ATOM      6  N   UNL     1       3.179   6.305  19.086  0.00  0.00    +0.000 NA
ATOM      7  C   UNL     1       2.197   6.727  19.895  0.00  0.00    +0.000 A 
ATOM      8  N   UNL     1       1.575   5.960  20.802  0.00  0.00    +0.000 NA
ATOM      9  C   UNL     1       2.016   4.691  20.926  0.00  0.00    +0.000 A 
ATOM     10  C   UNL     1       3.033   4.148  20.177  0.00  0.00    +0.000 A 
ATOM     11 CL   UNL     1       3.494   2.526  20.498  0.00  0.00    +0.000 Cl
BRANCH   7  12
ATOM     12  S   UNL     1       1.775   8.440  19.778  0.00  0.00    +0.000 S 
BRANCH  12  13
ATOM     13  C   UNL     1       0.600   8.628  21.178  0.00  0.00    +0.000 C 
ATOM     14  C   UNL     1       1.279   9.127  22.454  0.00  0.00    +0.000 C 
ATOM     15  C   UNL     1      -0.464   9.636  20.740  0.00  0.00    +0.000 C 
ENDBRANCH  12  13
ENDBRANCH   7  12
ENDBRANCH   2   5
BRANCH   1  21
ATOM     16  C   UNL     1       6.795   5.370  15.950  0.00  0.00    +0.000 A 
ATOM     17  C   UNL     1       7.616   5.154  14.827  0.00  0.00    +0.000 A 
ATOM     18  C   UNL     1       7.162   4.437  13.721  0.00  0.00    +0.000 A 
ATOM     19  C   UNL     1       5.869   3.941  13.717  0.00  0.00    +0.000 A 
ATOM     20  C   UNL     1       5.041   4.158  14.819  0.00  0.00    +0.000 A 
ATOM     21  C   UNL     1       5.480   4.865  15.954  0.00  0.00    +0.000 A 
BRANCH  16  22
ATOM     22  O   UNL     1       7.419   6.120  16.913  0.00  0.00    +0.000 OA
BRANCH  22  24
ATOM     23  C   UNL     1       8.036   8.269  17.771  0.00  0.00    +0.000 C 
ATOM     24  C   UNL     1       6.909   7.417  17.208  0.00  0.00    +0.000 C 
ENDBRANCH  22  24
ENDBRANCH  16  22
ENDBRANCH   1  21
TORSDOF 6
ENDMDL
MODEL 9
REMARK VINA RESULT:      -6.7      1.018      1.072
REMARK  Name = 
REMARK  9 active torsions:
REMARK  status: ('A' for Active; 'I' for Inactive)
REMARK    1  A    between atoms: C_1  and  C_2
REMARK    2  A    between atoms: C_2  and  O_3
REMARK    3  A    between atoms: O_3  and  C_4
REMARK    4  A    between atoms: C_9  and  N_10
REMARK    5  A    between atoms: C_11  and  C_13
REMARK    6  A    between atoms: C_15  and  S_16
REMARK    7  A    between atoms: S_16  and  C_17
REMARK    8  A    between atoms: C_17  and  C_18
REMARK    9  A    between atoms: C_17  and  C_19
REMARK                            x       y       z     vdW  Elec       q    Type
REMARK                         _______ _______ _______ _____ _____    ______ ____
ROOT
ATOM      1  N   UNL     1       4.384   4.217  18.238  0.00  0.00    +0.000 N 
ATOM      2  C   UNL     1       4.386   3.970  16.872  0.00  0.00    +0.000 C 
ATOM      3  O   UNL     1       3.459   3.472  16.245  0.00  0.00    +0.000 OA
ATOM      4  H   UNL     1       5.185   4.728  18.596  0.00  0.00    +0.000 HD
ENDROOT
BRANCH   2   5
ATOM      5  C   UNL     1       5.626   4.418  16.153  0.00  0.00    +0.000 A 
ATOM      6  N   UNL     1       5.578   4.221  14.804  0.00  0.00    +0.000 NA
ATOM      7  C   UNL     1       6.662   4.592  14.109  0.00  0.00    +0.000 A 
ATOM      8  N   UNL     1       7.750   5.165  14.643  0.00  0.00    +0.000 NA
ATOM      9  C   UNL     1       7.754   5.325  15.982  0.00  0.00    +0.000 A 
ATOM     10  C   UNL     1       6.718   4.961  16.809  0.00  0.00    +0.000 A 
ATOM     11 CL   UNL     1       6.910   5.201  18.498  0.00  0.00    +0.000 Cl
BRANCH   7  12
ATOM     12  S   UNL     1       6.644   4.213  12.382  0.00  0.00    +0.000 S 
BRANCH  12  13
ATOM     13  C   UNL     1       5.329   2.932  12.299  0.00  0.00    +0.000 C 
ATOM     14  C   UNL     1       4.089   3.410  11.543  0.00  0.00    +0.000 C 
ATOM     15  C   UNL     1       5.927   1.720  11.582  0.00  0.00    +0.000 C 
ENDBRANCH  12  13
ENDBRANCH   7  12
ENDBRANCH   2   5
BRANCH   1  21
ATOM     16  C   UNL     1       2.185   4.669  19.284  0.00  0.00    +0.000 A 
ATOM     17  C   UNL     1       1.226   4.321  20.254  0.00  0.00    +0.000 A 
ATOM     18  C   UNL     1       1.393   3.207  21.075  0.00  0.00    +0.000 A 
ATOM     19  C   UNL     1       2.534   2.434  20.949  0.00  0.00    +0.000 A 
ATOM     20  C   UNL     1       3.499   2.775  19.999  0.00  0.00    +0.000 A 
ATOM     21  C   UNL     1       3.348   3.885  19.147  0.00  0.00    +0.000 A 
BRANCH  16  22
ATOM     22  O   UNL     1       1.846   5.810  18.603  0.00  0.00    +0.000 OA
BRANCH  22  24
ATOM     23  C   UNL     1       3.204   7.609  17.793  0.00  0.00    +0.000 C 
ATOM     24  C   UNL     1       2.452   7.041  18.987  0.00  0.00    +0.000 C 
ENDBRANCH  22  24
ENDBRANCH  16  22
ENDBRANCH   1  21
TORSDOF 6
ENDMDL
