MODEL 1
REMARK VINA RESULT:      -7.8      0.000      0.000
REMARK  Name = 
REMARK  7 active torsions:
REMARK  status: ('A' for Active; 'I' for Inactive)
REMARK    1  A    between atoms: C_1  and  O_2
REMARK    2  A    between atoms: O_2  and  C_3
REMARK    3  A    between atoms: C_8  and  C_9
REMARK    4  A    between atoms: C_9  and  N_10
REMARK    5  A    between atoms: C_14  and  O_15
REMARK    6  A    between atoms: C_17  and  C_18
REMARK    7  A    between atoms: C_22  and  C_24
REMARK                            x       y       z     vdW  Elec       q    Type
REMARK                         _______ _______ _______ _____ _____    ______ ____
ROOT
ATOM      1  N   UNL     1       1.027  14.555  21.039  0.00  0.00    +0.000 N 
ATOM      2  N   UNL     1       1.885  15.587  20.822  0.00  0.00    +0.000 NA
ATOM      3  N   UNL     1       2.644  15.269  19.773  0.00  0.00    +0.000 NA
ATOM      4  C   UNL     1       2.276  14.022  19.352  0.00  0.00    +0.000 A 
ATOM      5  C   UNL     1       2.747  13.133  18.395  0.00  0.00    +0.000 A 
ATOM      6  N   UNL     1       2.153  11.930  18.245  0.00  0.00    +0.000 NA
ATOM      7  C   UNL     1       1.120  11.609  19.059  0.00  0.00    +0.000 A 
ATOM      8  N   UNL     1       0.601  12.389  20.026  0.00  0.00    +0.000 NA
ATOM      9  C   UNL     1       1.222  13.568  20.116  0.00  0.00    +0.000 A 
ENDROOT
BRANCH   7  10
ATOM     10  C   UNL     1       0.372  10.312  18.829  0.00  0.00    +0.000 C 
ATOM     11  C   UNL     1      -0.005   9.548  20.103  0.00  0.00    +0.000 C 
ATOM     12  C   UNL     1       1.170   8.799  20.733  0.00  0.00    +0.000 C 
ATOM     13  N   UNL     1       1.896   8.008  19.736  0.00  0.00    +0.000 N 
ATOM     14  C   UNL     1       2.054   6.637  19.964  0.00  0.00    +0.000 C 
ATOM     15  O   UNL     1       1.507   6.049  20.896  0.00  0.00    +0.000 OA
ATOM     16  C   UNL     1       2.338   8.759  18.560  0.00  0.00    +0.000 C 
ATOM     17  C   UNL     1       1.162   9.425  17.864  0.00  0.00    +0.000 C 
BRANCH  14  18
ATOM     18  C   UNL     1       2.876   5.812  19.038  0.00  0.00    +0.000 A 
ATOM     19  C   UNL     1       4.277   5.848  19.042  0.00  0.00    +0.000 A 
ATOM     20  C   UNL     1       4.997   5.167  18.060  0.00  0.00    +0.000 A 
ATOM     21  C   UNL     1       4.320   4.366  17.148  0.00  0.00    +0.000 A 
ATOM     22  F   UNL     1       5.012   3.715  16.206  0.00  0.00    +0.000 F 
ATOM     23  C   UNL     1       2.937   4.228  17.202  0.00  0.00    +0.000 A 
ATOM     24  C   UNL     1       2.211   4.959  18.144  0.00  0.00    +0.000 A 
ENDBRANCH  14  18
ENDBRANCH   7  10
BRANCH   5  25
ATOM     25  O   UNL     1       3.838  13.383  17.596  0.00  0.00    +0.000 OA
ATOM     26  H   UNL     1       3.516  13.938  16.865  0.00  0.00    +0.000 HD
ENDBRANCH   5  25
BRANCH   1  27
ATOM     27  C   UNL     1       0.326  14.395  22.307  0.00  0.00    +0.000 C 
BRANCH  27  33
ATOM     28  C   UNL     1      -1.526  12.650  22.573  0.00  0.00    +0.000 A 
ATOM     29  C   UNL     1      -2.877  12.294  22.452  0.00  0.00    +0.000 A 
ATOM     30  C   UNL     1      -3.817  13.212  21.986  0.00  0.00    +0.000 A 
ATOM     31  C   UNL     1      -3.417  14.492  21.628  0.00  0.00    +0.000 A 
ATOM     32  C   UNL     1      -2.072  14.850  21.715  0.00  0.00    +0.000 A 
ATOM     33  C   UNL     1      -1.106  13.934  22.168  0.00  0.00    +0.000 A 
BRANCH  28  35
ATOM     34  C   UNL     1      -0.993  10.464  23.344  0.00  0.00    +0.000 C 
ATOM     35  O   UNL     1      -0.570  11.801  23.073  0.00  0.00    +0.000 OA
ENDBRANCH  28  35
ENDBRANCH  27  33
ENDBRANCH   1  27
TORSDOF 6
ENDMDL
MODEL 2
REMARK VINA RESULT:      -7.5      4.900      8.029
REMARK  Name = 
REMARK  7 active torsions:
REMARK  status: ('A' for Active; 'I' for Inactive)
REMARK    1  A    between atoms: C_1  and  O_2
REMARK    2  A    between atoms: O_2  and  C_3
REMARK    3  A    between atoms: C_8  and  C_9
REMARK    4  A    between atoms: C_9  and  N_10
REMARK    5  A    between atoms: C_14  and  O_15
REMARK    6  A    between atoms: C_17  and  C_18
REMARK    7  A    between atoms: C_22  and  C_24
REMARK                            x       y       z     vdW  Elec       q    Type
REMARK                         _______ _______ _______ _____ _____    ______ ____
ROOT
ATOM      1  N   UNL     1      -6.583  14.015  17.708  0.00  0.00    +0.000 N 
ATOM      2  N   UNL     1      -6.934  14.988  16.825  0.00  0.00    +0.000 NA
ATOM      3  N   UNL     1      -6.913  16.152  17.475  0.00  0.00    +0.000 NA
ATOM      4  C   UNL     1      -6.573  15.900  18.775  0.00  0.00    +0.000 A 
ATOM      5  C   UNL     1      -6.481  16.667  19.929  0.00  0.00    +0.000 A 
ATOM      6  N   UNL     1      -6.130  16.086  21.096  0.00  0.00    +0.000 NA
ATOM      7  C   UNL     1      -5.901  14.752  21.114  0.00  0.00    +0.000 A 
ATOM      8  N   UNL     1      -5.979  13.919  20.059  0.00  0.00    +0.000 NA
ATOM      9  C   UNL     1      -6.318  14.555  18.934  0.00  0.00    +0.000 A 
ENDROOT
BRANCH   7  10
ATOM     10  C   UNL     1      -5.398  14.106  22.388  0.00  0.00    +0.000 C 
ATOM     11  C   UNL     1      -4.394  14.946  23.187  0.00  0.00    +0.000 C 
ATOM     12  C   UNL     1      -2.987  14.944  22.588  0.00  0.00    +0.000 C 
ATOM     13  N   UNL     1      -2.539  13.582  22.280  0.00  0.00    +0.000 N 
ATOM     14  C   UNL     1      -1.338  13.137  22.840  0.00  0.00    +0.000 C 
ATOM     15  O   UNL     1      -0.708  13.788  23.674  0.00  0.00    +0.000 OA
ATOM     16  C   UNL     1      -3.456  12.811  21.439  0.00  0.00    +0.000 C 
ATOM     17  C   UNL     1      -4.833  12.719  22.075  0.00  0.00    +0.000 C 
BRANCH  14  18
ATOM     18  C   UNL     1      -0.786  11.805  22.471  0.00  0.00    +0.000 A 
ATOM     19  C   UNL     1      -1.096  10.639  23.184  0.00  0.00    +0.000 A 
ATOM     20  C   UNL     1      -0.441   9.443  22.889  0.00  0.00    +0.000 A 
ATOM     21  C   UNL     1       0.437   9.393  21.814  0.00  0.00    +0.000 A 
ATOM     22  F   UNL     1       1.066   8.245  21.533  0.00  0.00    +0.000 F 
ATOM     23  C   UNL     1       0.670  10.513  21.023  0.00  0.00    +0.000 A 
ATOM     24  C   UNL     1       0.063  11.727  21.357  0.00  0.00    +0.000 A 
ENDBRANCH  14  18
ENDBRANCH   7  10
BRANCH   5  25
ATOM     25  O   UNL     1      -6.776  18.009  19.976  0.00  0.00    +0.000 OA
ATOM     26  H   UNL     1      -5.962  18.475  19.718  0.00  0.00    +0.000 HD
ENDBRANCH   5  25
BRANCH   1  27
ATOM     27  C   UNL     1      -6.864  12.608  17.451  0.00  0.00    +0.000 C 
BRANCH  27  33
ATOM     28  C   UNL     1      -5.405  10.728  18.391  0.00  0.00    +0.000 A 
ATOM     29  C   UNL     1      -4.265   9.918  18.289  0.00  0.00    +0.000 A 
ATOM     30  C   UNL     1      -3.386  10.055  17.216  0.00  0.00    +0.000 A 
ATOM     31  C   UNL     1      -3.632  11.007  16.236  0.00  0.00    +0.000 A 
ATOM     32  C   UNL     1      -4.746  11.839  16.340  0.00  0.00    +0.000 A 
ATOM     33  C   UNL     1      -5.636  11.728  17.423  0.00  0.00    +0.000 A 
BRANCH  28  35
ATOM     34  C   UNL     1      -7.032   9.359  19.456  0.00  0.00    +0.000 C 
ATOM     35  O   UNL     1      -6.327  10.601  19.400  0.00  0.00    +0.000 OA
ENDBRANCH  28  35
ENDBRANCH  27  33
ENDBRANCH   1  27
TORSDOF 6
ENDMDL
MODEL 3
REMARK VINA RESULT:      -7.5      0.787      1.104
REMARK  Name = 
REMARK  7 active torsions:
REMARK  status: ('A' for Active; 'I' for Inactive)
REMARK    1  A    between atoms: C_1  and  O_2
REMARK    2  A    between atoms: O_2  and  C_3
REMARK    3  A    between atoms: C_8  and  C_9
REMARK    4  A    between atoms: C_9  and  N_10
REMARK    5  A    between atoms: C_14  and  O_15
REMARK    6  A    between atoms: C_17  and  C_18
REMARK    7  A    between atoms: C_22  and  C_24
REMARK                            x       y       z     vdW  Elec       q    Type
REMARK                         _______ _______ _______ _____ _____    ______ ____
ROOT
ATOM      1  N   UNL     1       0.769  14.471  21.018  0.00  0.00    +0.000 N 
ATOM      2  N   UNL     1       1.615  15.507  20.774  0.00  0.00    +0.000 NA
ATOM      3  N   UNL     1       2.404  15.154  19.759  0.00  0.00    +0.000 NA
ATOM      4  C   UNL     1       2.065  13.884  19.386  0.00  0.00    +0.000 A 
ATOM      5  C   UNL     1       2.572  12.961  18.480  0.00  0.00    +0.000 A 
ATOM      6  N   UNL     1       2.000  11.743  18.371  0.00  0.00    +0.000 NA
ATOM      7  C   UNL     1       0.954  11.442  19.175  0.00  0.00    +0.000 A 
ATOM      8  N   UNL     1       0.400  12.255  20.094  0.00  0.00    +0.000 NA
ATOM      9  C   UNL     1       1.001  13.447  20.145  0.00  0.00    +0.000 A 
ENDROOT
BRANCH   7  10
ATOM     10  C   UNL     1       0.232  10.124  18.986  0.00  0.00    +0.000 C 
ATOM     11  C   UNL     1      -0.046   9.347  20.278  0.00  0.00    +0.000 C 
ATOM     12  C   UNL     1       1.186   8.633  20.835  0.00  0.00    +0.000 C 
ATOM     13  N   UNL     1       1.874   7.864  19.793  0.00  0.00    +0.000 N 
ATOM     14  C   UNL     1       2.085   6.499  20.007  0.00  0.00    +0.000 C 
ATOM     15  O   UNL     1       1.613   5.893  20.969  0.00  0.00    +0.000 OA
ATOM     16  C   UNL     1       2.222   8.629  18.595  0.00  0.00    +0.000 C 
ATOM     17  C   UNL     1       0.988   9.261  17.974  0.00  0.00    +0.000 C 
BRANCH  14  18
ATOM     18  C   UNL     1       2.874   5.699  19.031  0.00  0.00    +0.000 A 
ATOM     19  C   UNL     1       4.272   5.757  18.968  0.00  0.00    +0.000 A 
ATOM     20  C   UNL     1       4.954   5.101  17.942  0.00  0.00    +0.000 A 
ATOM     21  C   UNL     1       4.246   4.302  17.053  0.00  0.00    +0.000 A 
ATOM     22  F   UNL     1       4.901   3.674  16.070  0.00  0.00    +0.000 F 
ATOM     23  C   UNL     1       2.870   4.141  17.172  0.00  0.00    +0.000 A 
ATOM     24  C   UNL     1       2.179   4.847  18.159  0.00  0.00    +0.000 A 
ENDBRANCH  14  18
ENDBRANCH   7  10
BRANCH   5  25
ATOM     25  O   UNL     1       3.677  13.193  17.696  0.00  0.00    +0.000 OA
ATOM     26  H   UNL     1       4.450  13.031  18.264  0.00  0.00    +0.000 HD
ENDBRANCH   5  25
BRANCH   1  27
ATOM     27  C   UNL     1       0.041  14.356  22.276  0.00  0.00    +0.000 C 
BRANCH  27  33
ATOM     28  C   UNL     1      -2.506  14.147  22.151  0.00  0.00    +0.000 A 
ATOM     29  C   UNL     1      -3.770  14.754  22.161  0.00  0.00    +0.000 A 
ATOM     30  C   UNL     1      -3.898  16.134  22.311  0.00  0.00    +0.000 A 
ATOM     31  C   UNL     1      -2.764  16.923  22.446  0.00  0.00    +0.000 A 
ATOM     32  C   UNL     1      -1.499  16.337  22.407  0.00  0.00    +0.000 A 
ATOM     33  C   UNL     1      -1.349  14.948  22.241  0.00  0.00    +0.000 A 
BRANCH  28  35
ATOM     34  C   UNL     1      -2.571  12.037  23.247  0.00  0.00    +0.000 C 
ATOM     35  O   UNL     1      -2.328  12.789  22.057  0.00  0.00    +0.000 OA
ENDBRANCH  28  35
ENDBRANCH  27  33
ENDBRANCH   1  27
TORSDOF 6
ENDMDL
MODEL 4
REMARK VINA RESULT:      -7.5      3.526      9.789
REMARK  Name = 
REMARK  7 active torsions:
REMARK  status: ('A' for Active; 'I' for Inactive)
REMARK    1  A    between atoms: C_1  and  O_2
REMARK    2  A    between atoms: O_2  and  C_3
REMARK    3  A    between atoms: C_8  and  C_9
REMARK    4  A    between atoms: C_9  and  N_10
REMARK    5  A    between atoms: C_14  and  O_15
REMARK    6  A    between atoms: C_17  and  C_18
REMARK    7  A    between atoms: C_22  and  C_24
REMARK                            x       y       z     vdW  Elec       q    Type
REMARK                         _______ _______ _______ _____ _____    ______ ____
ROOT
ATOM      1  N   UNL     1       3.562   6.799  17.723  0.00  0.00    +0.000 N 
ATOM      2  N   UNL     1       3.847   5.707  18.482  0.00  0.00    +0.000 NA
ATOM      3  N   UNL     1       3.158   5.813  19.618  0.00  0.00    +0.000 NA
ATOM      4  C   UNL     1       2.461   6.988  19.579  0.00  0.00    +0.000 A 
ATOM      5  C   UNL     1       1.662   7.683  20.477  0.00  0.00    +0.000 A 
ATOM      6  N   UNL     1       1.127   8.870  20.120  0.00  0.00    +0.000 NA
ATOM      7  C   UNL     1       1.408   9.368  18.894  0.00  0.00    +0.000 A 
ATOM      8  N   UNL     1       2.182   8.784  17.959  0.00  0.00    +0.000 NA
ATOM      9  C   UNL     1       2.671   7.609  18.366  0.00  0.00    +0.000 A 
ENDROOT
BRANCH   7  10
ATOM     10  C   UNL     1       0.726  10.641  18.437  0.00  0.00    +0.000 C 
ATOM     11  C   UNL     1       1.419  11.938  18.870  0.00  0.00    +0.000 C 
ATOM     12  C   UNL     1       1.180  12.294  20.338  0.00  0.00    +0.000 C 
ATOM     13  N   UNL     1      -0.243  12.214  20.683  0.00  0.00    +0.000 N 
ATOM     14  C   UNL     1      -0.856  13.344  21.232  0.00  0.00    +0.000 C 
ATOM     15  O   UNL     1      -0.290  14.433  21.323  0.00  0.00    +0.000 OA
ATOM     16  C   UNL     1      -0.883  10.940  20.353  0.00  0.00    +0.000 C 
ATOM     17  C   UNL     1      -0.741  10.625  18.873  0.00  0.00    +0.000 C 
BRANCH  14  18
ATOM     18  C   UNL     1      -2.267  13.280  21.700  0.00  0.00    +0.000 A 
ATOM     19  C   UNL     1      -2.611  12.892  23.001  0.00  0.00    +0.000 A 
ATOM     20  C   UNL     1      -3.951  12.708  23.346  0.00  0.00    +0.000 A 
ATOM     21  C   UNL     1      -4.942  13.020  22.424  0.00  0.00    +0.000 A 
ATOM     22  F   UNL     1      -6.226  12.841  22.756  0.00  0.00    +0.000 F 
ATOM     23  C   UNL     1      -4.621  13.517  21.165  0.00  0.00    +0.000 A 
ATOM     24  C   UNL     1      -3.280  13.640  20.797  0.00  0.00    +0.000 A 
ENDBRANCH  14  18
ENDBRANCH   7  10
BRANCH   5  25
ATOM     25  O   UNL     1       1.408   7.255  21.758  0.00  0.00    +0.000 OA
ATOM     26  H   UNL     1       0.912   7.972  22.189  0.00  0.00    +0.000 HD
ENDBRANCH   5  25
BRANCH   1  27
ATOM     27  C   UNL     1       4.410   7.199  16.607  0.00  0.00    +0.000 C 
BRANCH  27  33
ATOM     28  C   UNL     1       6.626   5.937  16.813  0.00  0.00    +0.000 A 
ATOM     29  C   UNL     1       7.477   4.911  16.378  0.00  0.00    +0.000 A 
ATOM     30  C   UNL     1       7.093   4.055  15.347  0.00  0.00    +0.000 A 
ATOM     31  C   UNL     1       5.858   4.218  14.735  0.00  0.00    +0.000 A 
ATOM     32  C   UNL     1       5.014   5.253  15.136  0.00  0.00    +0.000 A 
ATOM     33  C   UNL     1       5.389   6.138  16.164  0.00  0.00    +0.000 A 
BRANCH  28  35
ATOM     34  C   UNL     1       7.786   7.880  17.546  0.00  0.00    +0.000 C 
ATOM     35  O   UNL     1       6.935   6.775  17.855  0.00  0.00    +0.000 OA
ENDBRANCH  28  35
ENDBRANCH  27  33
ENDBRANCH   1  27
TORSDOF 6
ENDMDL
MODEL 5
REMARK VINA RESULT:      -7.4      3.779      9.615
REMARK  Name = 
REMARK  7 active torsions:
REMARK  status: ('A' for Active; 'I' for Inactive)
REMARK    1  A    between atoms: C_1  and  O_2
REMARK    2  A    between atoms: O_2  and  C_3
REMARK    3  A    between atoms: C_8  and  C_9
REMARK    4  A    between atoms: C_9  and  N_10
REMARK    5  A    between atoms: C_14  and  O_15
REMARK    6  A    between atoms: C_17  and  C_18
REMARK    7  A    between atoms: C_22  and  C_24
REMARK                            x       y       z     vdW  Elec       q    Type
REMARK                         _______ _______ _______ _____ _____    ______ ____
ROOT
ATOM      1  N   UNL     1       3.192   6.914  17.892  0.00  0.00    +0.000 N 
ATOM      2  N   UNL     1       3.516   5.948  18.792  0.00  0.00    +0.000 NA
ATOM      3  N   UNL     1       2.909   6.246  19.941  0.00  0.00    +0.000 NA
ATOM      4  C   UNL     1       2.225   7.416  19.764  0.00  0.00    +0.000 A 
ATOM      5  C   UNL     1       1.499   8.261  20.592  0.00  0.00    +0.000 A 
ATOM      6  N   UNL     1       0.955   9.390  20.090  0.00  0.00    +0.000 NA
ATOM      7  C   UNL     1       1.156   9.683  18.784  0.00  0.00    +0.000 A 
ATOM      8  N   UNL     1       1.856   8.942  17.903  0.00  0.00    +0.000 NA
ATOM      9  C   UNL     1       2.358   7.835  18.457  0.00  0.00    +0.000 A 
ENDROOT
BRANCH   7  10
ATOM     10  C   UNL     1       0.459  10.884  18.179  0.00  0.00    +0.000 C 
ATOM     11  C   UNL     1       0.701  12.209  18.911  0.00  0.00    +0.000 C 
ATOM     12  C   UNL     1      -0.106  12.346  20.203  0.00  0.00    +0.000 C 
ATOM     13  N   UNL     1      -1.517  12.013  19.990  0.00  0.00    +0.000 N 
ATOM     14  C   UNL     1      -2.482  12.963  20.335  0.00  0.00    +0.000 C 
ATOM     15  O   UNL     1      -2.196  14.106  20.691  0.00  0.00    +0.000 OA
ATOM     16  C   UNL     1      -1.752  10.706  19.375  0.00  0.00    +0.000 C 
ATOM     17  C   UNL     1      -1.037  10.595  18.038  0.00  0.00    +0.000 C 
BRANCH  14  18
ATOM     18  C   UNL     1      -3.930  12.632  20.241  0.00  0.00    +0.000 A 
ATOM     19  C   UNL     1      -4.797  12.731  21.337  0.00  0.00    +0.000 A 
ATOM     20  C   UNL     1      -6.111  12.271  21.235  0.00  0.00    +0.000 A 
ATOM     21  C   UNL     1      -6.582  11.819  20.008  0.00  0.00    +0.000 A 
ATOM     22  F   UNL     1      -7.841  11.377  19.912  0.00  0.00    +0.000 F 
ATOM     23  C   UNL     1      -5.768  11.821  18.881  0.00  0.00    +0.000 A 
ATOM     24  C   UNL     1      -4.435  12.221  18.997  0.00  0.00    +0.000 A 
ENDBRANCH  14  18
ENDBRANCH   7  10
BRANCH   5  25
ATOM     25  O   UNL     1       1.330   8.045  21.939  0.00  0.00    +0.000 OA
ATOM     26  H   UNL     1       1.933   7.319  22.175  0.00  0.00    +0.000 HD
ENDBRANCH   5  25
BRANCH   1  27
ATOM     27  C   UNL     1       3.964   7.115  16.672  0.00  0.00    +0.000 C 
BRANCH  27  33
ATOM     28  C   UNL     1       6.404   6.441  17.046  0.00  0.00    +0.000 A 
ATOM     29  C   UNL     1       7.434   5.501  16.898  0.00  0.00    +0.000 A 
ATOM     30  C   UNL     1       7.198   4.276  16.277  0.00  0.00    +0.000 A 
ATOM     31  C   UNL     1       5.932   3.978  15.791  0.00  0.00    +0.000 A 
ATOM     32  C   UNL     1       4.906   4.916  15.904  0.00  0.00    +0.000 A 
ATOM     33  C   UNL     1       5.127   6.164  16.513  0.00  0.00    +0.000 A 
BRANCH  28  35
ATOM     34  C   UNL     1       7.883   8.205  17.644  0.00  0.00    +0.000 C 
ATOM     35  O   UNL     1       6.572   7.640  17.692  0.00  0.00    +0.000 OA
ENDBRANCH  28  35
ENDBRANCH  27  33
ENDBRANCH   1  27
TORSDOF 6
ENDMDL
MODEL 6
REMARK VINA RESULT:      -7.3      1.024      1.733
REMARK  Name = 
REMARK  7 active torsions:
REMARK  status: ('A' for Active; 'I' for Inactive)
REMARK    1  A    between atoms: C_1  and  O_2
REMARK    2  A    between atoms: O_2  and  C_3
REMARK    3  A    between atoms: C_8  and  C_9
REMARK    4  A    between atoms: C_9  and  N_10
REMARK    5  A    between atoms: C_14  and  O_15
REMARK    6  A    between atoms: C_17  and  C_18
REMARK    7  A    between atoms: C_22  and  C_24
REMARK                            x       y       z     vdW  Elec       q    Type
REMARK                         _______ _______ _______ _____ _____    ______ ____
ROOT
ATOM      1  N   UNL     1       0.659  14.448  21.139  0.00  0.00    +0.000 N 
ATOM      2  N   UNL     1       1.473  15.511  20.904  0.00  0.00    +0.000 NA
ATOM      3  N   UNL     1       2.259  15.199  19.873  0.00  0.00    +0.000 NA
ATOM      4  C   UNL     1       1.950  13.926  19.481  0.00  0.00    +0.000 A 
ATOM      5  C   UNL     1       2.471  13.035  18.553  0.00  0.00    +0.000 A 
ATOM      6  N   UNL     1       1.932  11.803  18.428  0.00  0.00    +0.000 NA
ATOM      7  C   UNL     1       0.904  11.459  19.239  0.00  0.00    +0.000 A 
ATOM      8  N   UNL     1       0.339  12.240  20.180  0.00  0.00    +0.000 NA
ATOM      9  C   UNL     1       0.908  13.447  20.245  0.00  0.00    +0.000 A 
ENDROOT
BRANCH   7  10
ATOM     10  C   UNL     1       0.216  10.125  19.035  0.00  0.00    +0.000 C 
ATOM     11  C   UNL     1       0.014   9.299  20.310  0.00  0.00    +0.000 C 
ATOM     12  C   UNL     1       1.290   8.607  20.794  0.00  0.00    +0.000 C 
ATOM     13  N   UNL     1       1.958   7.894  19.701  0.00  0.00    +0.000 N 
ATOM     14  C   UNL     1       2.221   6.530  19.862  0.00  0.00    +0.000 C 
ATOM     15  O   UNL     1       1.806   5.879  20.820  0.00  0.00    +0.000 OA
ATOM     16  C   UNL     1       2.234   8.709  18.517  0.00  0.00    +0.000 C 
ATOM     17  C   UNL     1       0.957   9.320  17.965  0.00  0.00    +0.000 C 
BRANCH  14  18
ATOM     18  C   UNL     1       2.994   5.788  18.830  0.00  0.00    +0.000 A 
ATOM     19  C   UNL     1       4.251   6.214  18.381  0.00  0.00    +0.000 A 
ATOM     20  C   UNL     1       4.869   5.567  17.311  0.00  0.00    +0.000 A 
ATOM     21  C   UNL     1       4.280   4.431  16.768  0.00  0.00    +0.000 A 
ATOM     22  F   UNL     1       4.874   3.812  15.740  0.00  0.00    +0.000 F 
ATOM     23  C   UNL     1       3.089   3.927  17.277  0.00  0.00    +0.000 A 
ATOM     24  C   UNL     1       2.437   4.611  18.306  0.00  0.00    +0.000 A 
ENDBRANCH  14  18
ENDBRANCH   7  10
BRANCH   5  25
ATOM     25  O   UNL     1       3.560  13.311  17.760  0.00  0.00    +0.000 OA
ATOM     26  H   UNL     1       3.871  12.455  17.421  0.00  0.00    +0.000 HD
ENDBRANCH   5  25
BRANCH   1  27
ATOM     27  C   UNL     1      -0.050  14.290  22.403  0.00  0.00    +0.000 C 
BRANCH  27  33
ATOM     28  C   UNL     1      -2.404  14.888  21.599  0.00  0.00    +0.000 A 
ATOM     29  C   UNL     1      -3.756  14.544  21.458  0.00  0.00    +0.000 A 
ATOM     30  C   UNL     1      -4.230  13.313  21.910  0.00  0.00    +0.000 A 
ATOM     31  C   UNL     1      -3.360  12.416  22.513  0.00  0.00    +0.000 A 
ATOM     32  C   UNL     1      -2.019  12.757  22.687  0.00  0.00    +0.000 A 
ATOM     33  C   UNL     1      -1.525  13.999  22.253  0.00  0.00    +0.000 A 
BRANCH  28  35
ATOM     34  C   UNL     1      -2.262  17.251  21.823  0.00  0.00    +0.000 C 
ATOM     35  O   UNL     1      -1.878  16.064  21.127  0.00  0.00    +0.000 OA
ENDBRANCH  28  35
ENDBRANCH  27  33
ENDBRANCH   1  27
TORSDOF 6
ENDMDL
MODEL 7
REMARK VINA RESULT:      -7.2      3.628      9.893
REMARK  Name = 
REMARK  7 active torsions:
REMARK  status: ('A' for Active; 'I' for Inactive)
REMARK    1  A    between atoms: C_1  and  O_2
REMARK    2  A    between atoms: O_2  and  C_3
REMARK    3  A    between atoms: C_8  and  C_9
REMARK    4  A    between atoms: C_9  and  N_10
REMARK    5  A    between atoms: C_14  and  O_15
REMARK    6  A    between atoms: C_17  and  C_18
REMARK    7  A    between atoms: C_22  and  C_24
REMARK                            x       y       z     vdW  Elec       q    Type
REMARK                         _______ _______ _______ _____ _____    ______ ____
ROOT
ATOM      1  N   UNL     1       3.504   6.874  17.770  0.00  0.00    +0.000 N 
ATOM      2  N   UNL     1       3.727   5.770  18.531  0.00  0.00    +0.000 NA
ATOM      3  N   UNL     1       3.020   5.902  19.654  0.00  0.00    +0.000 NA
ATOM      4  C   UNL     1       2.375   7.106  19.604  0.00  0.00    +0.000 A 
ATOM      5  C   UNL     1       1.589   7.833  20.488  0.00  0.00    +0.000 A 
ATOM      6  N   UNL     1       1.113   9.043  20.125  0.00  0.00    +0.000 NA
ATOM      7  C   UNL     1       1.440   9.531  18.906  0.00  0.00    +0.000 A 
ATOM      8  N   UNL     1       2.206   8.916  17.985  0.00  0.00    +0.000 NA
ATOM      9  C   UNL     1       2.636   7.721  18.398  0.00  0.00    +0.000 A 
ENDROOT
BRANCH   7  10
ATOM     10  C   UNL     1       0.822  10.833  18.440  0.00  0.00    +0.000 C 
ATOM     11  C   UNL     1       1.706  12.072  18.624  0.00  0.00    +0.000 C 
ATOM     12  C   UNL     1       1.759  12.572  20.068  0.00  0.00    +0.000 C 
ATOM     13  N   UNL     1       0.415  12.687  20.643  0.00  0.00    +0.000 N 
ATOM     14  C   UNL     1       0.023  13.922  21.168  0.00  0.00    +0.000 C 
ATOM     15  O   UNL     1       0.703  14.941  21.057  0.00  0.00    +0.000 OA
ATOM     16  C   UNL     1      -0.398  11.474  20.550  0.00  0.00    +0.000 C 
ATOM     17  C   UNL     1      -0.543  11.024  19.106  0.00  0.00    +0.000 C 
BRANCH  14  18
ATOM     18  C   UNL     1      -1.287  14.062  21.860  0.00  0.00    +0.000 A 
ATOM     19  C   UNL     1      -2.455  14.446  21.188  0.00  0.00    +0.000 A 
ATOM     20  C   UNL     1      -3.624  14.703  21.906  0.00  0.00    +0.000 A 
ATOM     21  C   UNL     1      -3.649  14.468  23.276  0.00  0.00    +0.000 A 
ATOM     22  F   UNL     1      -4.770  14.717  23.963  0.00  0.00    +0.000 F 
ATOM     23  C   UNL     1      -2.531  13.977  23.941  0.00  0.00    +0.000 A 
ATOM     24  C   UNL     1      -1.343  13.780  23.234  0.00  0.00    +0.000 A 
ENDBRANCH  14  18
ENDBRANCH   7  10
BRANCH   5  25
ATOM     25  O   UNL     1       1.292   7.414  21.763  0.00  0.00    +0.000 OA
ATOM     26  H   UNL     1       2.119   7.057  22.131  0.00  0.00    +0.000 HD
ENDBRANCH   5  25
BRANCH   1  27
ATOM     27  C   UNL     1       4.390   7.240  16.672  0.00  0.00    +0.000 C 
BRANCH  27  33
ATOM     28  C   UNL     1       6.596   5.973  16.946  0.00  0.00    +0.000 A 
ATOM     29  C   UNL     1       7.443   4.925  16.558  0.00  0.00    +0.000 A 
ATOM     30  C   UNL     1       7.062   4.032  15.558  0.00  0.00    +0.000 A 
ATOM     31  C   UNL     1       5.834   4.181  14.929  0.00  0.00    +0.000 A 
ATOM     32  C   UNL     1       4.994   5.236  15.283  0.00  0.00    +0.000 A 
ATOM     33  C   UNL     1       5.366   6.156  16.279  0.00  0.00    +0.000 A 
BRANCH  28  35
ATOM     34  C   UNL     1       7.805   7.905  17.627  0.00  0.00    +0.000 C 
ATOM     35  O   UNL     1       6.902   6.848  17.958  0.00  0.00    +0.000 OA
ENDBRANCH  28  35
ENDBRANCH  27  33
ENDBRANCH   1  27
TORSDOF 6
ENDMDL
MODEL 8
REMARK VINA RESULT:      -7.2      2.957      3.973
REMARK  Name = 
REMARK  7 active torsions:
REMARK  status: ('A' for Active; 'I' for Inactive)
REMARK    1  A    between atoms: C_1  and  O_2
REMARK    2  A    between atoms: O_2  and  C_3
REMARK    3  A    between atoms: C_8  and  C_9
REMARK    4  A    between atoms: C_9  and  N_10
REMARK    5  A    between atoms: C_14  and  O_15
REMARK    6  A    between atoms: C_17  and  C_18
REMARK    7  A    between atoms: C_22  and  C_24
REMARK                            x       y       z     vdW  Elec       q    Type
REMARK                         _______ _______ _______ _____ _____    ______ ____
ROOT
ATOM      1  N   UNL     1      -3.641  12.261  19.648  0.00  0.00    +0.000 N 
ATOM      2  N   UNL     1      -4.739  12.113  18.860  0.00  0.00    +0.000 NA
ATOM      3  N   UNL     1      -4.403  11.322  17.841  0.00  0.00    +0.000 NA
ATOM      4  C   UNL     1      -3.083  10.996  17.981  0.00  0.00    +0.000 A 
ATOM      5  C   UNL     1      -2.159  10.300  17.212  0.00  0.00    +0.000 A 
ATOM      6  N   UNL     1      -0.885  10.178  17.641  0.00  0.00    +0.000 NA
ATOM      7  C   UNL     1      -0.533  10.765  18.808  0.00  0.00    +0.000 A 
ATOM      8  N   UNL     1      -1.344  11.473  19.617  0.00  0.00    +0.000 NA
ATOM      9  C   UNL     1      -2.591  11.547  19.145  0.00  0.00    +0.000 A 
ENDROOT
BRANCH   7  10
ATOM     10  C   UNL     1       0.861  10.541  19.358  0.00  0.00    +0.000 C 
ATOM     11  C   UNL     1       1.973  10.494  18.303  0.00  0.00    +0.000 C 
ATOM     12  C   UNL     1       2.026   9.173  17.533  0.00  0.00    +0.000 C 
ATOM     13  N   UNL     1       1.994   8.024  18.443  0.00  0.00    +0.000 N 
ATOM     14  C   UNL     1       3.028   7.086  18.362  0.00  0.00    +0.000 C 
ATOM     15  O   UNL     1       4.021   7.247  17.653  0.00  0.00    +0.000 OA
ATOM     16  C   UNL     1       0.878   8.021  19.390  0.00  0.00    +0.000 C 
ATOM     17  C   UNL     1       0.876   9.286  20.233  0.00  0.00    +0.000 C 
BRANCH  14  18
ATOM     18  C   UNL     1       2.984   5.847  19.185  0.00  0.00    +0.000 A 
ATOM     19  C   UNL     1       3.677   4.683  18.828  0.00  0.00    +0.000 A 
ATOM     20  C   UNL     1       3.487   3.506  19.553  0.00  0.00    +0.000 A 
ATOM     21  C   UNL     1       2.696   3.527  20.695  0.00  0.00    +0.000 A 
ATOM     22  F   UNL     1       2.515   2.397  21.388  0.00  0.00    +0.000 F 
ATOM     23  C   UNL     1       2.093   4.702  21.129  0.00  0.00    +0.000 A 
ATOM     24  C   UNL     1       2.230   5.866  20.368  0.00  0.00    +0.000 A 
ENDBRANCH  14  18
ENDBRANCH   7  10
BRANCH   5  25
ATOM     25  O   UNL     1      -2.450   9.751  15.986  0.00  0.00    +0.000 OA
ATOM     26  H   UNL     1      -3.189  10.270  15.625  0.00  0.00    +0.000 HD
ENDBRANCH   5  25
BRANCH   1  27
ATOM     27  C   UNL     1      -3.536  13.341  20.621  0.00  0.00    +0.000 C 
BRANCH  27  33
ATOM     28  C   UNL     1      -3.291  12.572  23.049  0.00  0.00    +0.000 A 
ATOM     29  C   UNL     1      -3.873  12.312  24.298  0.00  0.00    +0.000 A 
ATOM     30  C   UNL     1      -5.234  12.526  24.510  0.00  0.00    +0.000 A 
ATOM     31  C   UNL     1      -6.030  12.996  23.475  0.00  0.00    +0.000 A 
ATOM     32  C   UNL     1      -5.471  13.230  22.219  0.00  0.00    +0.000 A 
ATOM     33  C   UNL     1      -4.104  13.006  21.980  0.00  0.00    +0.000 A 
BRANCH  28  35
ATOM     34  C   UNL     1      -1.382  11.156  23.132  0.00  0.00    +0.000 C 
ATOM     35  O   UNL     1      -1.949  12.425  22.803  0.00  0.00    +0.000 OA
ENDBRANCH  28  35
ENDBRANCH  27  33
ENDBRANCH   1  27
TORSDOF 6
ENDMDL
MODEL 9
REMARK VINA RESULT:      -7.2      1.208      2.019
REMARK  Name = 
REMARK  7 active torsions:
REMARK  status: ('A' for Active; 'I' for Inactive)
REMARK    1  A    between atoms: C_1  and  O_2
REMARK    2  A    between atoms: O_2  and  C_3
REMARK    3  A    between atoms: C_8  and  C_9
REMARK    4  A    between atoms: C_9  and  N_10
REMARK    5  A    between atoms: C_14  and  O_15
REMARK    6  A    between atoms: C_17  and  C_18
REMARK    7  A    between atoms: C_22  and  C_24
REMARK                            x       y       z     vdW  Elec       q    Type
REMARK                         _______ _______ _______ _____ _____    ______ ____
ROOT
ATOM      1  N   UNL     1       0.524  14.373  21.177  0.00  0.00    +0.000 N 
ATOM      2  N   UNL     1       1.317  15.446  20.912  0.00  0.00    +0.000 NA
ATOM      3  N   UNL     1       2.089  15.131  19.872  0.00  0.00    +0.000 NA
ATOM      4  C   UNL     1       1.795  13.848  19.504  0.00  0.00    +0.000 A 
ATOM      5  C   UNL     1       2.314  12.951  18.580  0.00  0.00    +0.000 A 
ATOM      6  N   UNL     1       1.793  11.709  18.483  0.00  0.00    +0.000 NA
ATOM      7  C   UNL     1       0.786  11.360  19.317  0.00  0.00    +0.000 A 
ATOM      8  N   UNL     1       0.224  12.146  20.255  0.00  0.00    +0.000 NA
ATOM      9  C   UNL     1       0.774  13.363  20.293  0.00  0.00    +0.000 A 
ENDROOT
BRANCH   7  10
ATOM     10  C   UNL     1       0.116  10.013  19.144  0.00  0.00    +0.000 C 
ATOM     11  C   UNL     1       0.003   9.177  20.425  0.00  0.00    +0.000 C 
ATOM     12  C   UNL     1       1.318   8.512  20.834  0.00  0.00    +0.000 C 
ATOM     13  N   UNL     1       1.940   7.818  19.702  0.00  0.00    +0.000 N 
ATOM     14  C   UNL     1       2.240   6.460  19.841  0.00  0.00    +0.000 C 
ATOM     15  O   UNL     1       1.893   5.796  20.817  0.00  0.00    +0.000 OA
ATOM     16  C   UNL     1       2.133   8.643  18.508  0.00  0.00    +0.000 C 
ATOM     17  C   UNL     1       0.814   9.228  18.031  0.00  0.00    +0.000 C 
BRANCH  14  18
ATOM     18  C   UNL     1       2.970   5.738  18.764  0.00  0.00    +0.000 A 
ATOM     19  C   UNL     1       2.347   4.798  17.933  0.00  0.00    +0.000 A 
ATOM     20  C   UNL     1       3.106   4.044  17.037  0.00  0.00    +0.000 A 
ATOM     21  C   UNL     1       4.463   4.311  16.898  0.00  0.00    +0.000 A 
ATOM     22  F   UNL     1       5.189   3.586  16.038  0.00  0.00    +0.000 F 
ATOM     23  C   UNL     1       5.075   5.320  17.632  0.00  0.00    +0.000 A 
ATOM     24  C   UNL     1       4.330   6.032  18.575  0.00  0.00    +0.000 A 
ENDBRANCH  14  18
ENDBRANCH   7  10
BRANCH   5  25
ATOM     25  O   UNL     1       3.384  13.233  17.764  0.00  0.00    +0.000 OA
ATOM     26  H   UNL     1       4.086  13.571  18.346  0.00  0.00    +0.000 HD
ENDBRANCH   5  25
BRANCH   1  27
ATOM     27  C   UNL     1      -0.160  14.223  22.455  0.00  0.00    +0.000 C 
BRANCH  27  33
ATOM     28  C   UNL     1      -2.236  15.718  22.385  0.00  0.00    +0.000 A 
ATOM     29  C   UNL     1      -3.628  15.848  22.279  0.00  0.00    +0.000 A 
ATOM     30  C   UNL     1      -4.439  14.725  22.122  0.00  0.00    +0.000 A 
ATOM     31  C   UNL     1      -3.870  13.460  22.076  0.00  0.00    +0.000 A 
ATOM     32  C   UNL     1      -2.489  13.314  22.209  0.00  0.00    +0.000 A 
ATOM     33  C   UNL     1      -1.655  14.432  22.384  0.00  0.00    +0.000 A 
BRANCH  28  35
ATOM     34  C   UNL     1      -1.716  17.757  23.494  0.00  0.00    +0.000 C 
ATOM     35  O   UNL     1      -1.390  16.793  22.491  0.00  0.00    +0.000 OA
ENDBRANCH  28  35
ENDBRANCH  27  33
ENDBRANCH   1  27
TORSDOF 6
ENDMDL
