MODEL 1
REMARK VINA RESULT:      -8.0      0.000      0.000
REMARK  Name = 
REMARK  4 active torsions:
REMARK  status: ('A' for Active; 'I' for Inactive)
REMARK    1  A    between atoms: C_1  and  N_2
REMARK    2  A    between atoms: C_4  and  C_5
REMARK    3  A    between atoms: N_7  and  C_8
REMARK    4  A    between atoms: C_8  and  C_9
REMARK                            x       y       z     vdW  Elec       q    Type
REMARK                         _______ _______ _______ _____ _____    ______ ____
ROOT
ATOM      1  C   UNL     1       3.107   5.334  19.180  0.00  0.00    +0.000 C 
ATOM      2  C   UNL     1       2.889   4.619  20.546  0.00  0.00    +0.000 C 
ATOM      3  C   UNL     1       1.439   4.230  20.773  0.00  0.00    +0.000 C 
ATOM      4  O   UNL     1       0.996   3.355  19.743  0.00  0.00    +0.000 OA
ATOM      5  C   UNL     1       1.039   3.983  18.467  0.00  0.00    +0.000 C 
ATOM      6  C   UNL     1       2.464   4.393  18.112  0.00  0.00    +0.000 C 
ENDROOT
BRANCH   1   7
ATOM      7  C   UNL     1       2.526   6.773  19.141  0.00  0.00    +0.000 A 
ATOM      8  C   UNL     1       1.959   7.377  20.283  0.00  0.00    +0.000 A 
ATOM      9  C   UNL     1       1.340   8.632  20.224  0.00  0.00    +0.000 A 
ATOM     10  C   UNL     1       1.260   9.310  19.016  0.00  0.00    +0.000 A 
ATOM     11 CL   UNL     1       0.427  10.811  18.928  0.00  0.00    +0.000 Cl
ATOM     12  C   UNL     1       1.834   8.761  17.877  0.00  0.00    +0.000 A 
ATOM     13  C   UNL     1       2.461   7.508  17.941  0.00  0.00    +0.000 A 
ENDBRANCH   1   7
BRANCH   1  16
ATOM     14  C   UNL     1       5.507   4.444  19.038  0.00  0.00    +0.000 C 
ATOM     15  O   UNL     1       5.242   3.327  19.481  0.00  0.00    +0.000 OA
ATOM     16  N   UNL     1       4.562   5.426  18.836  0.00  0.00    +0.000 N 
ATOM     17  H   UNL     1       4.900   6.358  18.623  0.00  0.00    +0.000 HD
BRANCH  14  21
ATOM     18  C   UNL     1       7.360   5.506  15.019  0.00  0.00    +0.000 C 
ATOM     19  N   UNL     1       7.158   5.501  16.447  0.00  0.00    +0.000 N 
ATOM     20  C   UNL     1       7.297   4.308  17.240  0.00  0.00    +0.000 C 
ATOM     21  C   UNL     1       6.945   4.766  18.644  0.00  0.00    +0.000 C 
ATOM     22  C   UNL     1       7.259   6.260  18.669  0.00  0.00    +0.000 C 
ATOM     23  C   UNL     1       7.254   6.657  17.213  0.00  0.00    +0.000 C 
ATOM     24  O   UNL     1       7.319   7.796  16.797  0.00  0.00    +0.000 OA
ENDBRANCH  14  21
ENDBRANCH   1  16
TORSDOF 3
ENDMDL
MODEL 2
REMARK VINA RESULT:      -7.9      0.183      1.018
REMARK  Name = 
REMARK  4 active torsions:
REMARK  status: ('A' for Active; 'I' for Inactive)
REMARK    1  A    between atoms: C_1  and  N_2
REMARK    2  A    between atoms: C_4  and  C_5
REMARK    3  A    between atoms: N_7  and  C_8
REMARK    4  A    between atoms: C_8  and  C_9
REMARK                            x       y       z     vdW  Elec       q    Type
REMARK                         _______ _______ _______ _____ _____    ______ ____
ROOT
ATOM      1  C   UNL     1       3.062   5.194  19.158  0.00  0.00    +0.000 C 
ATOM      2  C   UNL     1       2.876   4.511  20.545  0.00  0.00    +0.000 C 
ATOM      3  C   UNL     1       1.441   4.081  20.793  0.00  0.00    +0.000 C 
ATOM      4  O   UNL     1       1.021   3.164  19.790  0.00  0.00    +0.000 OA
ATOM      5  C   UNL     1       1.035   3.757  18.497  0.00  0.00    +0.000 C 
ATOM      6  C   UNL     1       2.443   4.204  18.122  0.00  0.00    +0.000 C 
ENDROOT
BRANCH   1   7
ATOM      7  C   UNL     1       2.433   6.611  19.084  0.00  0.00    +0.000 A 
ATOM      8  C   UNL     1       2.427   7.362  17.890  0.00  0.00    +0.000 A 
ATOM      9  C   UNL     1       1.956   8.680  17.847  0.00  0.00    +0.000 A 
ATOM     10  C   UNL     1       1.488   9.287  19.004  0.00  0.00    +0.000 A 
ATOM     11 CL   UNL     1       0.989  10.931  18.969  0.00  0.00    +0.000 Cl
ATOM     12  C   UNL     1       1.450   8.569  20.193  0.00  0.00    +0.000 A 
ATOM     13  C   UNL     1       1.914   7.247  20.230  0.00  0.00    +0.000 A 
ENDBRANCH   1   7
BRANCH   1  16
ATOM     14  C   UNL     1       5.492   4.388  19.043  0.00  0.00    +0.000 C 
ATOM     15  O   UNL     1       5.272   3.284  19.537  0.00  0.00    +0.000 OA
ATOM     16  N   UNL     1       4.511   5.325  18.802  0.00  0.00    +0.000 N 
ATOM     17  H   UNL     1       4.813   6.257  18.544  0.00  0.00    +0.000 HD
BRANCH  14  21
ATOM     18  C   UNL     1       7.254   5.498  14.995  0.00  0.00    +0.000 C 
ATOM     19  N   UNL     1       7.075   5.486  16.426  0.00  0.00    +0.000 N 
ATOM     20  C   UNL     1       7.256   4.297  17.216  0.00  0.00    +0.000 C 
ATOM     21  C   UNL     1       6.916   4.745  18.625  0.00  0.00    +0.000 C 
ATOM     22  C   UNL     1       7.195   6.246  18.647  0.00  0.00    +0.000 C 
ATOM     23  C   UNL     1       7.156   6.644  17.192  0.00  0.00    +0.000 C 
ATOM     24  O   UNL     1       7.187   7.785  16.776  0.00  0.00    +0.000 OA
ENDBRANCH  14  21
ENDBRANCH   1  16
TORSDOF 3
ENDMDL
MODEL 3
REMARK VINA RESULT:      -7.6      1.558      1.996
REMARK  Name = 
REMARK  4 active torsions:
REMARK  status: ('A' for Active; 'I' for Inactive)
REMARK    1  A    between atoms: C_1  and  N_2
REMARK    2  A    between atoms: C_4  and  C_5
REMARK    3  A    between atoms: N_7  and  C_8
REMARK    4  A    between atoms: C_8  and  C_9
REMARK                            x       y       z     vdW  Elec       q    Type
REMARK                         _______ _______ _______ _____ _____    ______ ____
ROOT
ATOM      1  C   UNL     1       2.671   5.127  19.217  0.00  0.00    +0.000 C 
ATOM      2  C   UNL     1       3.303   4.349  20.408  0.00  0.00    +0.000 C 
ATOM      3  C   UNL     1       2.267   3.905  21.427  0.00  0.00    +0.000 C 
ATOM      4  O   UNL     1       1.303   3.060  20.811  0.00  0.00    +0.000 OA
ATOM      5  C   UNL     1       0.583   3.741  19.791  0.00  0.00    +0.000 C 
ATOM      6  C   UNL     1       1.523   4.212  18.687  0.00  0.00    +0.000 C 
ENDROOT
BRANCH   1   7
ATOM      7  C   UNL     1       2.177   6.547  19.605  0.00  0.00    +0.000 A 
ATOM      8  C   UNL     1       1.605   6.817  20.866  0.00  0.00    +0.000 A 
ATOM      9  C   UNL     1       1.063   8.070  21.178  0.00  0.00    +0.000 A 
ATOM     10  C   UNL     1       1.069   9.084  20.230  0.00  0.00    +0.000 A 
ATOM     11 CL   UNL     1       0.329  10.594  20.585  0.00  0.00    +0.000 Cl
ATOM     12  C   UNL     1       1.651   8.865  18.988  0.00  0.00    +0.000 A 
ATOM     13  C   UNL     1       2.201   7.612  18.682  0.00  0.00    +0.000 A 
ENDBRANCH   1   7
BRANCH   1  16
ATOM     14  C   UNL     1       3.877   4.359  17.090  0.00  0.00    +0.000 C 
ATOM     15  O   UNL     1       3.256   3.303  16.979  0.00  0.00    +0.000 OA
ATOM     16  N   UNL     1       3.642   5.281  18.087  0.00  0.00    +0.000 N 
ATOM     17  H   UNL     1       4.310   6.036  18.187  0.00  0.00    +0.000 HD
BRANCH  14  21
ATOM     18  C   UNL     1       7.553   7.033  17.331  0.00  0.00    +0.000 C 
ATOM     19  N   UNL     1       6.718   5.928  16.928  0.00  0.00    +0.000 N 
ATOM     20  C   UNL     1       5.487   6.115  16.207  0.00  0.00    +0.000 C 
ATOM     21  C   UNL     1       4.941   4.708  16.053  0.00  0.00    +0.000 C 
ATOM     22  C   UNL     1       6.164   3.795  16.110  0.00  0.00    +0.000 C 
ATOM     23  C   UNL     1       7.212   4.635  16.799  0.00  0.00    +0.000 C 
ATOM     24  O   UNL     1       8.296   4.234  17.173  0.00  0.00    +0.000 OA
ENDBRANCH  14  21
ENDBRANCH   1  16
TORSDOF 3
ENDMDL
MODEL 4
REMARK VINA RESULT:      -7.6      1.556      2.223
REMARK  Name = 
REMARK  4 active torsions:
REMARK  status: ('A' for Active; 'I' for Inactive)
REMARK    1  A    between atoms: C_1  and  N_2
REMARK    2  A    between atoms: C_4  and  C_5
REMARK    3  A    between atoms: N_7  and  C_8
REMARK    4  A    between atoms: C_8  and  C_9
REMARK                            x       y       z     vdW  Elec       q    Type
REMARK                         _______ _______ _______ _____ _____    ______ ____
ROOT
ATOM      1  C   UNL     1       2.580   5.083  19.172  0.00  0.00    +0.000 C 
ATOM      2  C   UNL     1       3.241   4.361  20.383  0.00  0.00    +0.000 C 
ATOM      3  C   UNL     1       2.222   3.892  21.407  0.00  0.00    +0.000 C 
ATOM      4  O   UNL     1       1.301   2.989  20.806  0.00  0.00    +0.000 OA
ATOM      5  C   UNL     1       0.555   3.614  19.768  0.00  0.00    +0.000 C 
ATOM      6  C   UNL     1       1.478   4.103  18.658  0.00  0.00    +0.000 C 
ENDROOT
BRANCH   1   7
ATOM      7  C   UNL     1       2.018   6.486  19.526  0.00  0.00    +0.000 A 
ATOM      8  C   UNL     1       2.051   7.554  18.606  0.00  0.00    +0.000 A 
ATOM      9  C   UNL     1       1.642   8.846  18.959  0.00  0.00    +0.000 A 
ATOM     10  C   UNL     1       1.201   9.106  20.249  0.00  0.00    +0.000 A 
ATOM     11 CL   UNL     1       0.779  10.708  20.705  0.00  0.00    +0.000 Cl
ATOM     12  C   UNL     1       1.125   8.072  21.174  0.00  0.00    +0.000 A 
ATOM     13  C   UNL     1       1.527   6.778  20.814  0.00  0.00    +0.000 A 
ENDBRANCH   1   7
BRANCH   1  16
ATOM     14  C   UNL     1       3.898   4.294  17.120  0.00  0.00    +0.000 C 
ATOM     15  O   UNL     1       3.395   3.173  17.083  0.00  0.00    +0.000 OA
ATOM     16  N   UNL     1       3.548   5.256  18.043  0.00  0.00    +0.000 N 
ATOM     17  H   UNL     1       4.130   6.084  18.093  0.00  0.00    +0.000 HD
BRANCH  14  21
ATOM     18  C   UNL     1       7.534   7.024  17.341  0.00  0.00    +0.000 C 
ATOM     19  N   UNL     1       6.709   5.912  16.934  0.00  0.00    +0.000 N 
ATOM     20  C   UNL     1       5.463   6.092  16.238  0.00  0.00    +0.000 C 
ATOM     21  C   UNL     1       4.937   4.679  16.070  0.00  0.00    +0.000 C 
ATOM     22  C   UNL     1       6.175   3.785  16.089  0.00  0.00    +0.000 C 
ATOM     23  C   UNL     1       7.222   4.630  16.773  0.00  0.00    +0.000 C 
ATOM     24  O   UNL     1       8.319   4.241  17.120  0.00  0.00    +0.000 OA
ENDBRANCH  14  21
ENDBRANCH   1  16
TORSDOF 3
ENDMDL
MODEL 5
REMARK VINA RESULT:      -7.5      1.115      1.573
REMARK  Name = 
REMARK  4 active torsions:
REMARK  status: ('A' for Active; 'I' for Inactive)
REMARK    1  A    between atoms: C_1  and  N_2
REMARK    2  A    between atoms: C_4  and  C_5
REMARK    3  A    between atoms: N_7  and  C_8
REMARK    4  A    between atoms: C_8  and  C_9
REMARK                            x       y       z     vdW  Elec       q    Type
REMARK                         _______ _______ _______ _____ _____    ______ ____
ROOT
ATOM      1  C   UNL     1       2.941   3.916  19.161  0.00  0.00    +0.000 C 
ATOM      2  C   UNL     1       2.869   3.264  20.573  0.00  0.00    +0.000 C 
ATOM      3  C   UNL     1       1.442   2.999  21.019  0.00  0.00    +0.000 C 
ATOM      4  O   UNL     1       0.793   2.129  20.100  0.00  0.00    +0.000 OA
ATOM      5  C   UNL     1       0.698   2.711  18.805  0.00  0.00    +0.000 C 
ATOM      6  C   UNL     1       2.083   2.995  18.236  0.00  0.00    +0.000 C 
ENDROOT
BRANCH   1   7
ATOM      7  C   UNL     1       2.467   5.394  19.143  0.00  0.00    +0.000 A 
ATOM      8  C   UNL     1       2.515   6.177  17.971  0.00  0.00    +0.000 A 
ATOM      9  C   UNL     1       2.188   7.539  17.978  0.00  0.00    +0.000 A 
ATOM     10  C   UNL     1       1.815   8.156  19.163  0.00  0.00    +0.000 A 
ATOM     11 CL   UNL     1       1.495   9.845  19.187  0.00  0.00    +0.000 Cl
ATOM     12  C   UNL     1       1.727   7.411  20.332  0.00  0.00    +0.000 A 
ATOM     13  C   UNL     1       2.046   6.046  20.320  0.00  0.00    +0.000 A 
ENDBRANCH   1   7
BRANCH   1  16
ATOM     14  C   UNL     1       5.395   4.647  19.046  0.00  0.00    +0.000 C 
ATOM     15  O   UNL     1       5.330   5.421  19.999  0.00  0.00    +0.000 OA
ATOM     16  N   UNL     1       4.334   3.883  18.612  0.00  0.00    +0.000 N 
ATOM     17  H   UNL     1       4.441   3.402  17.726  0.00  0.00    +0.000 HD
BRANCH  14  21
ATOM     18  C   UNL     1       6.622   5.589  14.765  0.00  0.00    +0.000 C 
ATOM     19  N   UNL     1       6.742   5.427  16.194  0.00  0.00    +0.000 N 
ATOM     20  C   UNL     1       6.561   4.155  16.842  0.00  0.00    +0.000 C 
ATOM     21  C   UNL     1       6.724   4.476  18.316  0.00  0.00    +0.000 C 
ATOM     22  C   UNL     1       7.603   5.723  18.360  0.00  0.00    +0.000 C 
ATOM     23  C   UNL     1       7.449   6.325  16.985  0.00  0.00    +0.000 C 
ATOM     24  O   UNL     1       7.872   7.411  16.644  0.00  0.00    +0.000 OA
ENDBRANCH  14  21
ENDBRANCH   1  16
TORSDOF 3
ENDMDL
MODEL 6
REMARK VINA RESULT:      -7.5      1.003      1.079
REMARK  Name = 
REMARK  4 active torsions:
REMARK  status: ('A' for Active; 'I' for Inactive)
REMARK    1  A    between atoms: C_1  and  N_2
REMARK    2  A    between atoms: C_4  and  C_5
REMARK    3  A    between atoms: N_7  and  C_8
REMARK    4  A    between atoms: C_8  and  C_9
REMARK                            x       y       z     vdW  Elec       q    Type
REMARK                         _______ _______ _______ _____ _____    ______ ____
ROOT
ATOM      1  C   UNL     1       2.907   4.124  19.099  0.00  0.00    +0.000 C 
ATOM      2  C   UNL     1       2.785   3.349  20.444  0.00  0.00    +0.000 C 
ATOM      3  C   UNL     1       1.341   3.149  20.871  0.00  0.00    +0.000 C 
ATOM      4  O   UNL     1       0.632   2.420  19.877  0.00  0.00    +0.000 OA
ATOM      5  C   UNL     1       0.582   3.125  18.642  0.00  0.00    +0.000 C 
ATOM      6  C   UNL     1       1.986   3.359  18.096  0.00  0.00    +0.000 C 
ENDROOT
BRANCH   1   7
ATOM      7  C   UNL     1       2.544   5.628  19.222  0.00  0.00    +0.000 A 
ATOM      8  C   UNL     1       2.032   6.174  20.418  0.00  0.00    +0.000 A 
ATOM      9  C   UNL     1       1.605   7.506  20.498  0.00  0.00    +0.000 A 
ATOM     10  C   UNL     1       1.668   8.323  19.378  0.00  0.00    +0.000 A 
ATOM     11 CL   UNL     1       1.067   9.931  19.455  0.00  0.00    +0.000 Cl
ATOM     12  C   UNL     1       2.195   7.829  18.192  0.00  0.00    +0.000 A 
ATOM     13  C   UNL     1       2.630   6.498  18.118  0.00  0.00    +0.000 A 
ENDBRANCH   1   7
BRANCH   1  16
ATOM     14  C   UNL     1       5.412   4.668  19.050  0.00  0.00    +0.000 C 
ATOM     15  O   UNL     1       5.405   5.339  20.080  0.00  0.00    +0.000 OA
ATOM     16  N   UNL     1       4.295   4.039  18.543  0.00  0.00    +0.000 N 
ATOM     17  H   UNL     1       4.367   3.648  17.611  0.00  0.00    +0.000 HD
BRANCH  14  21
ATOM     18  C   UNL     1       6.561   5.495  14.724  0.00  0.00    +0.000 C 
ATOM     19  N   UNL     1       6.707   5.368  16.154  0.00  0.00    +0.000 N 
ATOM     20  C   UNL     1       6.532   4.114  16.838  0.00  0.00    +0.000 C 
ATOM     21  C   UNL     1       6.726   4.470  18.300  0.00  0.00    +0.000 C 
ATOM     22  C   UNL     1       7.612   5.714  18.295  0.00  0.00    +0.000 C 
ATOM     23  C   UNL     1       7.434   6.282  16.908  0.00  0.00    +0.000 C 
ATOM     24  O   UNL     1       7.856   7.357  16.532  0.00  0.00    +0.000 OA
ENDBRANCH  14  21
ENDBRANCH   1  16
TORSDOF 3
ENDMDL
MODEL 7
REMARK VINA RESULT:      -7.4      1.429      2.003
REMARK  Name = 
REMARK  4 active torsions:
REMARK  status: ('A' for Active; 'I' for Inactive)
REMARK    1  A    between atoms: C_1  and  N_2
REMARK    2  A    between atoms: C_4  and  C_5
REMARK    3  A    between atoms: N_7  and  C_8
REMARK    4  A    between atoms: C_8  and  C_9
REMARK                            x       y       z     vdW  Elec       q    Type
REMARK                         _______ _______ _______ _____ _____    ______ ____
ROOT
ATOM      1  C   UNL     1       3.227   4.476  18.986  0.00  0.00    +0.000 C 
ATOM      2  C   UNL     1       3.199   3.677  20.322  0.00  0.00    +0.000 C 
ATOM      3  C   UNL     1       1.801   3.210  20.690  0.00  0.00    +0.000 C 
ATOM      4  O   UNL     1       1.276   2.375  19.666  0.00  0.00    +0.000 OA
ATOM      5  C   UNL     1       1.144   3.074  18.434  0.00  0.00    +0.000 C 
ATOM      6  C   UNL     1       2.500   3.568  17.944  0.00  0.00    +0.000 C 
ENDROOT
BRANCH   1   7
ATOM      7  C   UNL     1       2.589   5.886  19.101  0.00  0.00    +0.000 A 
ATOM      8  C   UNL     1       2.572   6.787  18.015  0.00  0.00    +0.000 A 
ATOM      9  C   UNL     1       2.092   8.096  18.148  0.00  0.00    +0.000 A 
ATOM     10  C   UNL     1       1.628   8.543  19.377  0.00  0.00    +0.000 A 
ATOM     11 CL   UNL     1       1.119  10.174  19.560  0.00  0.00    +0.000 Cl
ATOM     12  C   UNL     1       1.601   7.676  20.462  0.00  0.00    +0.000 A 
ATOM     13  C   UNL     1       2.074   6.363  20.323  0.00  0.00    +0.000 A 
ENDBRANCH   1   7
BRANCH   1  16
ATOM     14  C   UNL     1       5.049   4.483  17.183  0.00  0.00    +0.000 C 
ATOM     15  O   UNL     1       4.292   4.217  16.252  0.00  0.00    +0.000 OA
ATOM     16  N   UNL     1       4.627   4.654  18.484  0.00  0.00    +0.000 N 
ATOM     17  H   UNL     1       5.342   4.710  19.200  0.00  0.00    +0.000 HD
BRANCH  14  21
ATOM     18  C   UNL     1       7.716   8.154  17.545  0.00  0.00    +0.000 C 
ATOM     19  N   UNL     1       7.331   6.763  17.567  0.00  0.00    +0.000 N 
ATOM     20  C   UNL     1       6.866   6.075  16.393  0.00  0.00    +0.000 C 
ATOM     21  C   UNL     1       6.536   4.683  16.899  0.00  0.00    +0.000 C 
ATOM     22  C   UNL     1       7.418   4.483  18.129  0.00  0.00    +0.000 C 
ATOM     23  C   UNL     1       7.777   5.887  18.550  0.00  0.00    +0.000 C 
ATOM     24  O   UNL     1       8.354   6.185  19.577  0.00  0.00    +0.000 OA
ENDBRANCH  14  21
ENDBRANCH   1  16
TORSDOF 3
ENDMDL
MODEL 8
REMARK VINA RESULT:      -7.4      3.186      6.745
REMARK  Name = 
REMARK  4 active torsions:
REMARK  status: ('A' for Active; 'I' for Inactive)
REMARK    1  A    between atoms: C_1  and  N_2
REMARK    2  A    between atoms: C_4  and  C_5
REMARK    3  A    between atoms: N_7  and  C_8
REMARK    4  A    between atoms: C_8  and  C_9
REMARK                            x       y       z     vdW  Elec       q    Type
REMARK                         _______ _______ _______ _____ _____    ______ ____
ROOT
ATOM      1  C   UNL     1       5.750   5.806  17.495  0.00  0.00    +0.000 C 
ATOM      2  C   UNL     1       6.599   5.228  18.666  0.00  0.00    +0.000 C 
ATOM      3  C   UNL     1       8.065   5.608  18.562  0.00  0.00    +0.000 C 
ATOM      4  O   UNL     1       8.209   7.023  18.571  0.00  0.00    +0.000 OA
ATOM      5  C   UNL     1       7.569   7.623  17.451  0.00  0.00    +0.000 C 
ATOM      6  C   UNL     1       6.072   7.334  17.465  0.00  0.00    +0.000 C 
ENDROOT
BRANCH   1   7
ATOM      7  C   UNL     1       6.023   5.107  16.136  0.00  0.00    +0.000 A 
ATOM      8  C   UNL     1       7.194   5.360  15.392  0.00  0.00    +0.000 A 
ATOM      9  C   UNL     1       7.393   4.812  14.118  0.00  0.00    +0.000 A 
ATOM     10  C   UNL     1       6.417   4.006  13.551  0.00  0.00    +0.000 A 
ATOM     11 CL   UNL     1       6.624   3.402  11.954  0.00  0.00    +0.000 Cl
ATOM     12  C   UNL     1       5.264   3.709  14.266  0.00  0.00    +0.000 A 
ATOM     13  C   UNL     1       5.072   4.252  15.545  0.00  0.00    +0.000 A 
ENDBRANCH   1   7
BRANCH   1  16
ATOM     14  C   UNL     1       3.704   5.513  19.012  0.00  0.00    +0.000 C 
ATOM     15  O   UNL     1       4.342   5.487  20.063  0.00  0.00    +0.000 OA
ATOM     16  N   UNL     1       4.283   5.692  17.774  0.00  0.00    +0.000 N 
ATOM     17  H   UNL     1       3.696   5.538  16.962  0.00  0.00    +0.000 HD
BRANCH  14  21
ATOM     18  C   UNL     1       0.969   1.901  18.578  0.00  0.00    +0.000 C 
ATOM     19  N   UNL     1       1.441   3.183  19.043  0.00  0.00    +0.000 N 
ATOM     20  C   UNL     1       1.645   4.296  18.154  0.00  0.00    +0.000 C 
ATOM     21  C   UNL     1       2.184   5.386  19.061  0.00  0.00    +0.000 C 
ATOM     22  C   UNL     1       1.650   5.052  20.452  0.00  0.00    +0.000 C 
ATOM     23  C   UNL     1       1.313   3.583  20.368  0.00  0.00    +0.000 C 
ATOM     24  O   UNL     1       0.991   2.883  21.307  0.00  0.00    +0.000 OA
ENDBRANCH  14  21
ENDBRANCH   1  16
TORSDOF 3
ENDMDL
MODEL 9
REMARK VINA RESULT:      -7.4      1.466      1.901
REMARK  Name = 
REMARK  4 active torsions:
REMARK  status: ('A' for Active; 'I' for Inactive)
REMARK    1  A    between atoms: C_1  and  N_2
REMARK    2  A    between atoms: C_4  and  C_5
REMARK    3  A    between atoms: N_7  and  C_8
REMARK    4  A    between atoms: C_8  and  C_9
REMARK                            x       y       z     vdW  Elec       q    Type
REMARK                         _______ _______ _______ _____ _____    ______ ____
ROOT
ATOM      1  C   UNL     1       3.064   4.410  18.962  0.00  0.00    +0.000 C 
ATOM      2  C   UNL     1       3.419   3.432  20.120  0.00  0.00    +0.000 C 
ATOM      3  C   UNL     1       2.189   2.797  20.743  0.00  0.00    +0.000 C 
ATOM      4  O   UNL     1       1.461   2.069  19.761  0.00  0.00    +0.000 OA
ATOM      5  C   UNL     1       0.982   2.919  18.725  0.00  0.00    +0.000 C 
ATOM      6  C   UNL     1       2.141   3.595  18.001  0.00  0.00    +0.000 C 
ENDROOT
BRANCH   1   7
ATOM      7  C   UNL     1       2.406   5.728  19.452  0.00  0.00    +0.000 A 
ATOM      8  C   UNL     1       2.474   6.918  18.698  0.00  0.00    +0.000 A 
ATOM      9  C   UNL     1       1.974   8.131  19.186  0.00  0.00    +0.000 A 
ATOM     10  C   UNL     1       1.402   8.188  20.450  0.00  0.00    +0.000 A 
ATOM     11 CL   UNL     1       0.865   9.693  21.082  0.00  0.00    +0.000 Cl
ATOM     12  C   UNL     1       1.290   7.030  21.209  0.00  0.00    +0.000 A 
ATOM     13  C   UNL     1       1.784   5.815  20.713  0.00  0.00    +0.000 A 
ENDBRANCH   1   7
BRANCH   1  16
ATOM     14  C   UNL     1       5.538   5.010  18.669  0.00  0.00    +0.000 C 
ATOM     15  O   UNL     1       5.831   4.875  19.856  0.00  0.00    +0.000 OA
ATOM     16  N   UNL     1       4.277   4.780  18.165  0.00  0.00    +0.000 N 
ATOM     17  H   UNL     1       4.098   5.073  17.212  0.00  0.00    +0.000 HD
BRANCH  14  21
ATOM     18  C   UNL     1       6.223   3.845  14.323  0.00  0.00    +0.000 C 
ATOM     19  N   UNL     1       6.220   4.662  15.512  0.00  0.00    +0.000 N 
ATOM     20  C   UNL     1       6.969   4.312  16.689  0.00  0.00    +0.000 C 
ATOM     21  C   UNL     1       6.625   5.412  17.676  0.00  0.00    +0.000 C 
ATOM     22  C   UNL     1       6.245   6.616  16.818  0.00  0.00    +0.000 C 
ATOM     23  C   UNL     1       5.887   6.012  15.482  0.00  0.00    +0.000 C 
ATOM     24  O   UNL     1       5.389   6.613  14.552  0.00  0.00    +0.000 OA
ENDBRANCH  14  21
ENDBRANCH   1  16
TORSDOF 3
ENDMDL
