MODEL 1
REMARK VINA RESULT:      -8.8      0.000      0.000
REMARK  Name = 
REMARK  9 active torsions:
REMARK  status: ('A' for Active; 'I' for Inactive)
REMARK    1  A    between atoms: C_1  and  O_2
REMARK    2  A    between atoms: O_2  and  C_3
REMARK    3  A    between atoms: C_6  and  C_7
REMARK    4  A    between atoms: C_7  and  C_8
REMARK    5  A    between atoms: C_8  and  N_9
REMARK    6  A    between atoms: C_8  and  C_10
REMARK    7  A    between atoms: C_15  and  C_17
REMARK    8  A    between atoms: C_21  and  O_22
REMARK    9  A    between atoms: O_22  and  C_23
REMARK                            x       y       z     vdW  Elec       q    Type
REMARK                         _______ _______ _______ _____ _____    ______ ____
ROOT
ATOM      1  C   UNL     1       6.375   5.829  17.413  0.00  0.00    +0.000 A 
ATOM      2  C   UNL     1       7.053   4.820  18.076  0.00  0.00    +0.000 A 
ATOM      3  S   UNL     1       8.279   5.499  19.079  0.00  0.00    +0.000 S 
ATOM      4  C   UNL     1       7.872   7.046  18.494  0.00  0.00    +0.000 A 
ATOM      5  N   UNL     1       8.669   8.073  18.919  0.00  0.00    +0.000 N 
ATOM      6  C   UNL     1       8.536   9.330  18.365  0.00  0.00    +0.000 C 
ATOM      7  O   UNL     1       7.742   9.660  17.492  0.00  0.00    +0.000 OA
ATOM      8  N   UNL     1       6.851   7.105  17.683  0.00  0.00    +0.000 NA
ATOM      9  H   UNL     1       9.353   7.856  19.627  0.00  0.00    +0.000 HD
ENDROOT
BRANCH   6  10
ATOM     10  C   UNL     1       9.442  10.390  18.887  0.00  0.00    +0.000 A 
ATOM     11  C   UNL     1       9.388  10.649  20.264  0.00  0.00    +0.000 A 
ATOM     12  C   UNL     1      10.163  11.662  20.820  0.00  0.00    +0.000 A 
ATOM     13  C   UNL     1      11.004  12.407  20.002  0.00  0.00    +0.000 A 
ATOM     14  C   UNL     1      11.086  12.149  18.628  0.00  0.00    +0.000 A 
ATOM     15  C   UNL     1      10.273  11.164  18.062  0.00  0.00    +0.000 A 
BRANCH  14  16
ATOM     16  O   UNL     1      11.923  12.980  17.949  0.00  0.00    +0.000 OA
BRANCH  16  17
ATOM     17  C   UNL     1      11.393  13.897  17.002  0.00  0.00    +0.000 C 
ATOM     18  F   UNL     1      10.147  14.330  17.292  0.00  0.00    +0.000 F 
ATOM     19  F   UNL     1      12.211  14.967  16.918  0.00  0.00    +0.000 F 
ATOM     20  F   UNL     1      11.354  13.296  15.793  0.00  0.00    +0.000 F 
ENDBRANCH  16  17
ENDBRANCH  14  16
ENDBRANCH   6  10
BRANCH   1  21
ATOM     21  C   UNL     1       5.252   5.698  16.415  0.00  0.00    +0.000 C 
BRANCH  21  22
ATOM     22  N   UNL     1       4.199   6.634  16.849  0.00  0.00    +0.000 NA
ATOM     23  H   UNL     1       4.608   7.204  17.600  0.00  0.00    +0.000 HD
ATOM     24  H   UNL     1       3.447   6.107  17.292  0.00  0.00    +0.000 HD
ENDBRANCH  21  22
BRANCH  21  25
ATOM     25  C   UNL     1       4.752   4.235  16.325  0.00  0.00    +0.000 C 
BRANCH  25  29
ATOM     26  C   UNL     1       1.823   3.158  19.333  0.00  0.00    +0.000 A 
ATOM     27  C   UNL     1       3.131   2.682  19.424  0.00  0.00    +0.000 A 
ATOM     28  C   UNL     1       4.084   3.033  18.462  0.00  0.00    +0.000 A 
ATOM     29  C   UNL     1       3.731   3.842  17.375  0.00  0.00    +0.000 A 
ATOM     30  C   UNL     1       2.409   4.301  17.282  0.00  0.00    +0.000 A 
ATOM     31  C   UNL     1       1.462   3.961  18.254  0.00  0.00    +0.000 A 
BRANCH  26  33
ATOM     32  C   UNL     1       1.527   2.744  21.642  0.00  0.00    +0.000 C 
ATOM     33  O   UNL     1       0.979   2.740  20.327  0.00  0.00    +0.000 OA
ENDBRANCH  26  33
ENDBRANCH  25  29
ENDBRANCH  21  25
ENDBRANCH   1  21
TORSDOF 8
ENDMDL
MODEL 2
REMARK VINA RESULT:      -8.7      0.888      1.208
REMARK  Name = 
REMARK  9 active torsions:
REMARK  status: ('A' for Active; 'I' for Inactive)
REMARK    1  A    between atoms: C_1  and  O_2
REMARK    2  A    between atoms: O_2  and  C_3
REMARK    3  A    between atoms: C_6  and  C_7
REMARK    4  A    between atoms: C_7  and  C_8
REMARK    5  A    between atoms: C_8  and  N_9
REMARK    6  A    between atoms: C_8  and  C_10
REMARK    7  A    between atoms: C_15  and  C_17
REMARK    8  A    between atoms: C_21  and  O_22
REMARK    9  A    between atoms: O_22  and  C_23
REMARK                            x       y       z     vdW  Elec       q    Type
REMARK                         _______ _______ _______ _____ _____    ______ ____
ROOT
ATOM      1  C   UNL     1       6.252   5.921  17.371  0.00  0.00    +0.000 A 
ATOM      2  C   UNL     1       6.941   4.902  18.004  0.00  0.00    +0.000 A 
ATOM      3  S   UNL     1       8.196   5.564  18.984  0.00  0.00    +0.000 S 
ATOM      4  C   UNL     1       7.782   7.119  18.427  0.00  0.00    +0.000 A 
ATOM      5  N   UNL     1       8.595   8.137  18.843  0.00  0.00    +0.000 N 
ATOM      6  C   UNL     1       8.454   9.401  18.307  0.00  0.00    +0.000 C 
ATOM      7  O   UNL     1       7.639   9.745  17.459  0.00  0.00    +0.000 OA
ATOM      8  N   UNL     1       6.740   7.192  17.643  0.00  0.00    +0.000 NA
ATOM      9  H   UNL     1       9.296   7.909  19.530  0.00  0.00    +0.000 HD
ENDROOT
BRANCH   6  10
ATOM     10  C   UNL     1       9.378  10.450  18.818  0.00  0.00    +0.000 A 
ATOM     11  C   UNL     1       9.446  10.614  20.209  0.00  0.00    +0.000 A 
ATOM     12  C   UNL     1      10.244  11.611  20.762  0.00  0.00    +0.000 A 
ATOM     13  C   UNL     1      10.987  12.435  19.925  0.00  0.00    +0.000 A 
ATOM     14  C   UNL     1      10.946  12.273  18.535  0.00  0.00    +0.000 A 
ATOM     15  C   UNL     1      10.109  11.305  17.977  0.00  0.00    +0.000 A 
BRANCH  14  16
ATOM     16  O   UNL     1      11.697  13.174  17.842  0.00  0.00    +0.000 OA
BRANCH  16  17
ATOM     17  C   UNL     1      11.197  14.485  17.619  0.00  0.00    +0.000 C 
ATOM     18  F   UNL     1      11.802  15.439  18.360  0.00  0.00    +0.000 F 
ATOM     19  F   UNL     1      11.344  14.797  16.315  0.00  0.00    +0.000 F 
ATOM     20  F   UNL     1       9.880  14.503  17.915  0.00  0.00    +0.000 F 
ENDBRANCH  16  17
ENDBRANCH  14  16
ENDBRANCH   6  10
BRANCH   1  21
ATOM     21  C   UNL     1       5.103   5.808  16.400  0.00  0.00    +0.000 C 
BRANCH  21  22
ATOM     22  N   UNL     1       5.464   6.628  15.230  0.00  0.00    +0.000 NA
ATOM     23  H   UNL     1       5.173   7.589  15.447  0.00  0.00    +0.000 HD
ATOM     24  H   UNL     1       4.891   6.347  14.436  0.00  0.00    +0.000 HD
ENDBRANCH  21  22
BRANCH  21  25
ATOM     25  C   UNL     1       3.773   6.255  17.056  0.00  0.00    +0.000 C 
BRANCH  25  29
ATOM     26  C   UNL     1       1.833   3.264  19.521  0.00  0.00    +0.000 A 
ATOM     27  C   UNL     1       2.085   4.539  20.030  0.00  0.00    +0.000 A 
ATOM     28  C   UNL     1       2.703   5.511  19.237  0.00  0.00    +0.000 A 
ATOM     29  C   UNL     1       3.106   5.212  17.930  0.00  0.00    +0.000 A 
ATOM     30  C   UNL     1       2.865   3.923  17.433  0.00  0.00    +0.000 A 
ATOM     31  C   UNL     1       2.234   2.956  18.223  0.00  0.00    +0.000 A 
BRANCH  26  33
ATOM     32  C   UNL     1       1.361   2.721  21.773  0.00  0.00    +0.000 C 
ATOM     33  O   UNL     1       1.233   2.396  20.393  0.00  0.00    +0.000 OA
ENDBRANCH  26  33
ENDBRANCH  25  29
ENDBRANCH  21  25
ENDBRANCH   1  21
TORSDOF 8
ENDMDL
MODEL 3
REMARK VINA RESULT:      -8.7      1.059      1.532
REMARK  Name = 
REMARK  9 active torsions:
REMARK  status: ('A' for Active; 'I' for Inactive)
REMARK    1  A    between atoms: C_1  and  O_2
REMARK    2  A    between atoms: O_2  and  C_3
REMARK    3  A    between atoms: C_6  and  C_7
REMARK    4  A    between atoms: C_7  and  C_8
REMARK    5  A    between atoms: C_8  and  N_9
REMARK    6  A    between atoms: C_8  and  C_10
REMARK    7  A    between atoms: C_15  and  C_17
REMARK    8  A    between atoms: C_21  and  O_22
REMARK    9  A    between atoms: O_22  and  C_23
REMARK                            x       y       z     vdW  Elec       q    Type
REMARK                         _______ _______ _______ _____ _____    ______ ____
ROOT
ATOM      1  C   UNL     1       7.157   5.468  17.285  0.00  0.00    +0.000 A 
ATOM      2  C   UNL     1       7.483   4.643  18.348  0.00  0.00    +0.000 A 
ATOM      3  S   UNL     1       8.194   5.571  19.614  0.00  0.00    +0.000 S 
ATOM      4  C   UNL     1       8.092   6.956  18.628  0.00  0.00    +0.000 A 
ATOM      5  N   UNL     1       8.658   8.093  19.135  0.00  0.00    +0.000 N 
ATOM      6  C   UNL     1       8.787   9.216  18.344  0.00  0.00    +0.000 C 
ATOM      7  O   UNL     1       8.431   9.330  17.177  0.00  0.00    +0.000 OA
ATOM      8  N   UNL     1       7.499   6.799  17.475  0.00  0.00    +0.000 NA
ATOM      9  H   UNL     1       8.984   8.053  20.088  0.00  0.00    +0.000 HD
ENDROOT
BRANCH   6  10
ATOM     10  C   UNL     1       9.412  10.410  18.976  0.00  0.00    +0.000 A 
ATOM     11  C   UNL     1       9.117  10.641  20.328  0.00  0.00    +0.000 A 
ATOM     12  C   UNL     1       9.618  11.766  20.975  0.00  0.00    +0.000 A 
ATOM     13  C   UNL     1      10.428  12.654  20.277  0.00  0.00    +0.000 A 
ATOM     14  C   UNL     1      10.749  12.429  18.932  0.00  0.00    +0.000 A 
ATOM     15  C   UNL     1      10.208  11.325  18.269  0.00  0.00    +0.000 A 
BRANCH  14  16
ATOM     16  O   UNL     1      11.520  13.399  18.369  0.00  0.00    +0.000 OA
BRANCH  16  17
ATOM     17  C   UNL     1      10.996  14.195  17.315  0.00  0.00    +0.000 C 
ATOM     18  F   UNL     1      11.579  15.408  17.198  0.00  0.00    +0.000 F 
ATOM     19  F   UNL     1      11.143  13.533  16.148  0.00  0.00    +0.000 F 
ATOM     20  F   UNL     1       9.677  14.387  17.532  0.00  0.00    +0.000 F 
ENDBRANCH  16  17
ENDBRANCH  14  16
ENDBRANCH   6  10
BRANCH   1  21
ATOM     21  C   UNL     1       6.546   5.085  15.960  0.00  0.00    +0.000 C 
BRANCH  21  22
ATOM     22  N   UNL     1       7.458   5.594  14.919  0.00  0.00    +0.000 NA
ATOM     23  H   UNL     1       7.966   6.383  15.338  0.00  0.00    +0.000 HD
ATOM     24  H   UNL     1       6.908   6.000  14.164  0.00  0.00    +0.000 HD
ENDBRANCH  21  22
BRANCH  21  25
ATOM     25  C   UNL     1       5.110   5.647  15.824  0.00  0.00    +0.000 C 
BRANCH  25  29
ATOM     26  C   UNL     1       2.188   3.934  18.529  0.00  0.00    +0.000 A 
ATOM     27  C   UNL     1       2.452   5.304  18.554  0.00  0.00    +0.000 A 
ATOM     28  C   UNL     1       3.387   5.865  17.679  0.00  0.00    +0.000 A 
ATOM     29  C   UNL     1       4.096   5.055  16.783  0.00  0.00    +0.000 A 
ATOM     30  C   UNL     1       3.838   3.677  16.776  0.00  0.00    +0.000 A 
ATOM     31  C   UNL     1       2.891   3.121  17.643  0.00  0.00    +0.000 A 
BRANCH  26  33
ATOM     32  C   UNL     1       1.121   4.303  20.605  0.00  0.00    +0.000 C 
ATOM     33  O   UNL     1       1.261   3.501  19.437  0.00  0.00    +0.000 OA
ENDBRANCH  26  33
ENDBRANCH  25  29
ENDBRANCH  21  25
ENDBRANCH   1  21
TORSDOF 8
ENDMDL
MODEL 4
REMARK VINA RESULT:      -8.7      1.245      1.482
REMARK  Name = 
REMARK  9 active torsions:
REMARK  status: ('A' for Active; 'I' for Inactive)
REMARK    1  A    between atoms: C_1  and  O_2
REMARK    2  A    between atoms: O_2  and  C_3
REMARK    3  A    between atoms: C_6  and  C_7
REMARK    4  A    between atoms: C_7  and  C_8
REMARK    5  A    between atoms: C_8  and  N_9
REMARK    6  A    between atoms: C_8  and  C_10
REMARK    7  A    between atoms: C_15  and  C_17
REMARK    8  A    between atoms: C_21  and  O_22
REMARK    9  A    between atoms: O_22  and  C_23
REMARK                            x       y       z     vdW  Elec       q    Type
REMARK                         _______ _______ _______ _____ _____    ______ ____
ROOT
ATOM      1  C   UNL     1       7.236   5.367  17.169  0.00  0.00    +0.000 A 
ATOM      2  C   UNL     1       7.598   4.597  18.260  0.00  0.00    +0.000 A 
ATOM      3  S   UNL     1       8.217   5.608  19.511  0.00  0.00    +0.000 S 
ATOM      4  C   UNL     1       8.037   6.955  18.484  0.00  0.00    +0.000 A 
ATOM      5  N   UNL     1       8.511   8.142  18.969  0.00  0.00    +0.000 N 
ATOM      6  C   UNL     1       8.577   9.250  18.149  0.00  0.00    +0.000 C 
ATOM      7  O   UNL     1       8.236   9.306  16.972  0.00  0.00    +0.000 OA
ATOM      8  N   UNL     1       7.479   6.725  17.326  0.00  0.00    +0.000 NA
ATOM      9  H   UNL     1       8.821   8.151  19.928  0.00  0.00    +0.000 HD
ENDROOT
BRANCH   6  10
ATOM     10  C   UNL     1       9.103  10.502  18.757  0.00  0.00    +0.000 A 
ATOM     11  C   UNL     1       9.409  10.464  20.125  0.00  0.00    +0.000 A 
ATOM     12  C   UNL     1       9.854  11.608  20.780  0.00  0.00    +0.000 A 
ATOM     13  C   UNL     1      10.009  12.789  20.063  0.00  0.00    +0.000 A 
ATOM     14  C   UNL     1       9.728  12.841  18.692  0.00  0.00    +0.000 A 
ATOM     15  C   UNL     1       9.236  11.705  18.045  0.00  0.00    +0.000 A 
BRANCH  14  16
ATOM     16  O   UNL     1       9.891  14.071  18.132  0.00  0.00    +0.000 OA
BRANCH  16  17
ATOM     17  C   UNL     1      11.057  14.350  17.370  0.00  0.00    +0.000 C 
ATOM     18  F   UNL     1      11.430  13.347  16.546  0.00  0.00    +0.000 F 
ATOM     19  F   UNL     1      10.845  15.458  16.629  0.00  0.00    +0.000 F 
ATOM     20  F   UNL     1      12.080  14.594  18.216  0.00  0.00    +0.000 F 
ENDBRANCH  16  17
ENDBRANCH  14  16
ENDBRANCH   6  10
BRANCH   1  21
ATOM     21  C   UNL     1       6.679   4.906  15.845  0.00  0.00    +0.000 C 
BRANCH  21  22
ATOM     22  N   UNL     1       7.487   5.565  14.802  0.00  0.00    +0.000 NA
ATOM     23  H   UNL     1       7.266   5.089  13.918  0.00  0.00    +0.000 HD
ATOM     24  H   UNL     1       8.473   5.372  14.971  0.00  0.00    +0.000 HD
ENDBRANCH  21  22
BRANCH  21  25
ATOM     25  C   UNL     1       5.170   5.235  15.728  0.00  0.00    +0.000 C 
BRANCH  25  29
ATOM     26  C   UNL     1       2.736   3.752  18.993  0.00  0.00    +0.000 A 
ATOM     27  C   UNL     1       3.420   2.862  18.165  0.00  0.00    +0.000 A 
ATOM     28  C   UNL     1       4.214   3.333  17.115  0.00  0.00    +0.000 A 
ATOM     29  C   UNL     1       4.311   4.707  16.859  0.00  0.00    +0.000 A 
ATOM     30  C   UNL     1       3.606   5.594  17.685  0.00  0.00    +0.000 A 
ATOM     31  C   UNL     1       2.824   5.120  18.744  0.00  0.00    +0.000 A 
BRANCH  26  33
ATOM     32  C   UNL     1       0.792   3.866  20.333  0.00  0.00    +0.000 C 
ATOM     33  O   UNL     1       1.985   3.173  19.980  0.00  0.00    +0.000 OA
ENDBRANCH  26  33
ENDBRANCH  25  29
ENDBRANCH  21  25
ENDBRANCH   1  21
TORSDOF 8
ENDMDL
MODEL 5
REMARK VINA RESULT:      -8.6      1.294      1.504
REMARK  Name = 
REMARK  9 active torsions:
REMARK  status: ('A' for Active; 'I' for Inactive)
REMARK    1  A    between atoms: C_1  and  O_2
REMARK    2  A    between atoms: O_2  and  C_3
REMARK    3  A    between atoms: C_6  and  C_7
REMARK    4  A    between atoms: C_7  and  C_8
REMARK    5  A    between atoms: C_8  and  N_9
REMARK    6  A    between atoms: C_8  and  C_10
REMARK    7  A    between atoms: C_15  and  C_17
REMARK    8  A    between atoms: C_21  and  O_22
REMARK    9  A    between atoms: O_22  and  C_23
REMARK                            x       y       z     vdW  Elec       q    Type
REMARK                         _______ _______ _______ _____ _____    ______ ____
ROOT
ATOM      1  C   UNL     1       6.882   5.461  17.380  0.00  0.00    +0.000 A 
ATOM      2  C   UNL     1       7.451   4.642  18.339  0.00  0.00    +0.000 A 
ATOM      3  S   UNL     1       8.337   5.594  19.470  0.00  0.00    +0.000 S 
ATOM      4  C   UNL     1       7.969   6.984  18.558  0.00  0.00    +0.000 A 
ATOM      5  N   UNL     1       8.557   8.146  18.978  0.00  0.00    +0.000 N 
ATOM      6  C   UNL     1       8.468   9.286  18.205  0.00  0.00    +0.000 C 
ATOM      7  O   UNL     1       7.889   9.395  17.130  0.00  0.00    +0.000 OA
ATOM      8  N   UNL     1       7.177   6.808  17.535  0.00  0.00    +0.000 NA
ATOM      9  H   UNL     1       9.061   8.112  19.850  0.00  0.00    +0.000 HD
ENDROOT
BRANCH   6  10
ATOM     10  C   UNL     1       9.133  10.507  18.738  0.00  0.00    +0.000 A 
ATOM     11  C   UNL     1       9.540  10.475  20.079  0.00  0.00    +0.000 A 
ATOM     12  C   UNL     1      10.120  11.595  20.666  0.00  0.00    +0.000 A 
ATOM     13  C   UNL     1      10.307  12.744  19.908  0.00  0.00    +0.000 A 
ATOM     14  C   UNL     1       9.925  12.788  18.561  0.00  0.00    +0.000 A 
ATOM     15  C   UNL     1       9.301  11.680  17.985  0.00  0.00    +0.000 A 
BRANCH  14  16
ATOM     16  O   UNL     1      10.137  13.989  17.956  0.00  0.00    +0.000 OA
BRANCH  16  17
ATOM     17  C   UNL     1      11.397  14.268  17.361  0.00  0.00    +0.000 C 
ATOM     18  F   UNL     1      12.325  14.732  18.227  0.00  0.00    +0.000 F 
ATOM     19  F   UNL     1      11.871  13.143  16.786  0.00  0.00    +0.000 F 
ATOM     20  F   UNL     1      11.225  15.198  16.398  0.00  0.00    +0.000 F 
ENDBRANCH  16  17
ENDBRANCH  14  16
ENDBRANCH   6  10
BRANCH   1  21
ATOM     21  C   UNL     1       6.051   5.061  16.186  0.00  0.00    +0.000 C 
BRANCH  21  22
ATOM     22  N   UNL     1       6.874   5.339  14.995  0.00  0.00    +0.000 NA
ATOM     23  H   UNL     1       6.411   4.871  14.205  0.00  0.00    +0.000 HD
ATOM     24  H   UNL     1       7.774   4.871  15.094  0.00  0.00    +0.000 HD
ENDBRANCH  21  22
BRANCH  21  25
ATOM     25  C   UNL     1       4.699   5.816  16.167  0.00  0.00    +0.000 C 
BRANCH  25  29
ATOM     26  C   UNL     1       2.063   4.891  19.481  0.00  0.00    +0.000 A 
ATOM     27  C   UNL     1       2.408   3.902  18.560  0.00  0.00    +0.000 A 
ATOM     28  C   UNL     1       3.265   4.191  17.493  0.00  0.00    +0.000 A 
ATOM     29  C   UNL     1       3.766   5.487  17.315  0.00  0.00    +0.000 A 
ATOM     30  C   UNL     1       3.400   6.479  18.236  0.00  0.00    +0.000 A 
ATOM     31  C   UNL     1       2.555   6.183  19.311  0.00  0.00    +0.000 A 
BRANCH  26  33
ATOM     32  C   UNL     1       1.512   3.236  21.076  0.00  0.00    +0.000 C 
ATOM     33  O   UNL     1       1.212   4.492  20.476  0.00  0.00    +0.000 OA
ENDBRANCH  26  33
ENDBRANCH  25  29
ENDBRANCH  21  25
ENDBRANCH   1  21
TORSDOF 8
ENDMDL
MODEL 6
REMARK VINA RESULT:      -8.5      2.023      2.679
REMARK  Name = 
REMARK  9 active torsions:
REMARK  status: ('A' for Active; 'I' for Inactive)
REMARK    1  A    between atoms: C_1  and  O_2
REMARK    2  A    between atoms: O_2  and  C_3
REMARK    3  A    between atoms: C_6  and  C_7
REMARK    4  A    between atoms: C_7  and  C_8
REMARK    5  A    between atoms: C_8  and  N_9
REMARK    6  A    between atoms: C_8  and  C_10
REMARK    7  A    between atoms: C_15  and  C_17
REMARK    8  A    between atoms: C_21  and  O_22
REMARK    9  A    between atoms: O_22  and  C_23
REMARK                            x       y       z     vdW  Elec       q    Type
REMARK                         _______ _______ _______ _____ _____    ______ ____
ROOT
ATOM      1  C   UNL     1       6.273   5.911  17.414  0.00  0.00    +0.000 A 
ATOM      2  C   UNL     1       6.966   4.903  18.060  0.00  0.00    +0.000 A 
ATOM      3  S   UNL     1       8.222   5.582  19.026  0.00  0.00    +0.000 S 
ATOM      4  C   UNL     1       7.803   7.128  18.447  0.00  0.00    +0.000 A 
ATOM      5  N   UNL     1       8.614   8.154  18.846  0.00  0.00    +0.000 N 
ATOM      6  C   UNL     1       8.468   9.410  18.292  0.00  0.00    +0.000 C 
ATOM      7  O   UNL     1       7.649   9.740  17.441  0.00  0.00    +0.000 OA
ATOM      8  N   UNL     1       6.758   7.187  17.666  0.00  0.00    +0.000 NA
ATOM      9  H   UNL     1       9.317   7.938  19.535  0.00  0.00    +0.000 HD
ENDROOT
BRANCH   6  10
ATOM     10  C   UNL     1       9.390  10.469  18.784  0.00  0.00    +0.000 A 
ATOM     11  C   UNL     1      10.421  10.866  17.920  0.00  0.00    +0.000 A 
ATOM     12  C   UNL     1      11.357  11.811  18.328  0.00  0.00    +0.000 A 
ATOM     13  C   UNL     1      11.255  12.372  19.595  0.00  0.00    +0.000 A 
ATOM     14  C   UNL     1      10.221  12.003  20.464  0.00  0.00    +0.000 A 
ATOM     15  C   UNL     1       9.309  11.020  20.073  0.00  0.00    +0.000 A 
BRANCH  14  16
ATOM     16  O   UNL     1      10.268  12.607  21.683  0.00  0.00    +0.000 OA
BRANCH  16  17
ATOM     17  C   UNL     1       9.765  13.927  21.837  0.00  0.00    +0.000 C 
ATOM     18  F   UNL     1      10.698  14.893  21.695  0.00  0.00    +0.000 F 
ATOM     19  F   UNL     1       8.790  14.136  20.927  0.00  0.00    +0.000 F 
ATOM     20  F   UNL     1       9.228  14.045  23.070  0.00  0.00    +0.000 F 
ENDBRANCH  16  17
ENDBRANCH  14  16
ENDBRANCH   6  10
BRANCH   1  21
ATOM     21  C   UNL     1       5.121   5.780  16.449  0.00  0.00    +0.000 C 
BRANCH  21  22
ATOM     22  N   UNL     1       5.594   6.320  15.161  0.00  0.00    +0.000 NA
ATOM     23  H   UNL     1       5.122   5.777  14.427  0.00  0.00    +0.000 HD
ATOM     24  H   UNL     1       6.585   6.109  15.055  0.00  0.00    +0.000 HD
ENDBRANCH  21  22
BRANCH  21  25
ATOM     25  C   UNL     1       3.863   6.514  16.977  0.00  0.00    +0.000 C 
BRANCH  25  29
ATOM     26  C   UNL     1       1.598   4.317  19.949  0.00  0.00    +0.000 A 
ATOM     27  C   UNL     1       1.792   3.781  18.675  0.00  0.00    +0.000 A 
ATOM     28  C   UNL     1       2.529   4.481  17.715  0.00  0.00    +0.000 A 
ATOM     29  C   UNL     1       3.058   5.744  18.006  0.00  0.00    +0.000 A 
ATOM     30  C   UNL     1       2.843   6.282  19.282  0.00  0.00    +0.000 A 
ATOM     31  C   UNL     1       2.118   5.574  20.247  0.00  0.00    +0.000 A 
BRANCH  26  33
ATOM     32  C   UNL     1       1.589   2.627  21.602  0.00  0.00    +0.000 C 
ATOM     33  O   UNL     1       0.853   3.545  20.800  0.00  0.00    +0.000 OA
ENDBRANCH  26  33
ENDBRANCH  25  29
ENDBRANCH  21  25
ENDBRANCH   1  21
TORSDOF 8
ENDMDL
MODEL 7
REMARK VINA RESULT:      -8.5      6.982      9.246
REMARK  Name = 
REMARK  9 active torsions:
REMARK  status: ('A' for Active; 'I' for Inactive)
REMARK    1  A    between atoms: C_1  and  O_2
REMARK    2  A    between atoms: O_2  and  C_3
REMARK    3  A    between atoms: C_6  and  C_7
REMARK    4  A    between atoms: C_7  and  C_8
REMARK    5  A    between atoms: C_8  and  N_9
REMARK    6  A    between atoms: C_8  and  C_10
REMARK    7  A    between atoms: C_15  and  C_17
REMARK    8  A    between atoms: C_21  and  O_22
REMARK    9  A    between atoms: O_22  and  C_23
REMARK                            x       y       z     vdW  Elec       q    Type
REMARK                         _______ _______ _______ _____ _____    ______ ____
ROOT
ATOM      1  C   UNL     1      -0.031  10.757  20.539  0.00  0.00    +0.000 A 
ATOM      2  C   UNL     1      -0.259  10.508  21.881  0.00  0.00    +0.000 A 
ATOM      3  S   UNL     1       0.636   9.122  22.379  0.00  0.00    +0.000 S 
ATOM      4  C   UNL     1       1.176   8.920  20.776  0.00  0.00    +0.000 A 
ATOM      5  N   UNL     1       1.923   7.800  20.536  0.00  0.00    +0.000 N 
ATOM      6  C   UNL     1       2.254   7.452  19.242  0.00  0.00    +0.000 C 
ATOM      7  O   UNL     1       1.950   8.062  18.223  0.00  0.00    +0.000 OA
ATOM      8  N   UNL     1       0.814   9.842  19.926  0.00  0.00    +0.000 NA
ATOM      9  H   UNL     1       2.190   7.249  21.336  0.00  0.00    +0.000 HD
ENDROOT
BRANCH   6  10
ATOM     10  C   UNL     1       3.070   6.219  19.069  0.00  0.00    +0.000 A 
ATOM     11  C   UNL     1       2.791   5.147  19.928  0.00  0.00    +0.000 A 
ATOM     12  C   UNL     1       3.547   3.980  19.867  0.00  0.00    +0.000 A 
ATOM     13  C   UNL     1       4.572   3.878  18.935  0.00  0.00    +0.000 A 
ATOM     14  C   UNL     1       4.853   4.931  18.056  0.00  0.00    +0.000 A 
ATOM     15  C   UNL     1       4.126   6.120  18.149  0.00  0.00    +0.000 A 
BRANCH  14  16
ATOM     16  O   UNL     1       5.907   4.703  17.224  0.00  0.00    +0.000 OA
BRANCH  16  17
ATOM     17  C   UNL     1       7.188   5.225  17.549  0.00  0.00    +0.000 C 
ATOM     18  F   UNL     1       7.208   5.978  18.670  0.00  0.00    +0.000 F 
ATOM     19  F   UNL     1       8.054   4.202  17.704  0.00  0.00    +0.000 F 
ATOM     20  F   UNL     1       7.616   5.992  16.524  0.00  0.00    +0.000 F 
ENDBRANCH  16  17
ENDBRANCH  14  16
ENDBRANCH   6  10
BRANCH   1  21
ATOM     21  C   UNL     1      -0.626  11.844  19.678  0.00  0.00    +0.000 C 
BRANCH  21  22
ATOM     22  N   UNL     1      -0.202  13.125  20.272  0.00  0.00    +0.000 NA
ATOM     23  H   UNL     1      -1.054  13.580  20.623  0.00  0.00    +0.000 HD
ATOM     24  H   UNL     1       0.145  13.736  19.535  0.00  0.00    +0.000 HD
ENDBRANCH  21  22
BRANCH  21  25
ATOM     25  C   UNL     1      -2.166  11.707  19.592  0.00  0.00    +0.000 C 
BRANCH  25  29
ATOM     26  C   UNL     1      -3.720  10.450  15.746  0.00  0.00    +0.000 A 
ATOM     27  C   UNL     1      -2.419  10.114  16.123  0.00  0.00    +0.000 A 
ATOM     28  C   UNL     1      -1.915  10.509  17.365  0.00  0.00    +0.000 A 
ATOM     29  C   UNL     1      -2.696  11.275  18.239  0.00  0.00    +0.000 A 
ATOM     30  C   UNL     1      -3.996  11.623  17.845  0.00  0.00    +0.000 A 
ATOM     31  C   UNL     1      -4.504  11.214  16.607  0.00  0.00    +0.000 A 
BRANCH  26  33
ATOM     32  C   UNL     1      -3.045   9.854  13.560  0.00  0.00    +0.000 C 
ATOM     33  O   UNL     1      -4.099  10.017  14.504  0.00  0.00    +0.000 OA
ENDBRANCH  26  33
ENDBRANCH  25  29
ENDBRANCH  21  25
ENDBRANCH   1  21
TORSDOF 8
ENDMDL
MODEL 8
REMARK VINA RESULT:      -8.4      2.598      3.259
REMARK  Name = 
REMARK  9 active torsions:
REMARK  status: ('A' for Active; 'I' for Inactive)
REMARK    1  A    between atoms: C_1  and  O_2
REMARK    2  A    between atoms: O_2  and  C_3
REMARK    3  A    between atoms: C_6  and  C_7
REMARK    4  A    between atoms: C_7  and  C_8
REMARK    5  A    between atoms: C_8  and  N_9
REMARK    6  A    between atoms: C_8  and  C_10
REMARK    7  A    between atoms: C_15  and  C_17
REMARK    8  A    between atoms: C_21  and  O_22
REMARK    9  A    between atoms: O_22  and  C_23
REMARK                            x       y       z     vdW  Elec       q    Type
REMARK                         _______ _______ _______ _____ _____    ______ ____
ROOT
ATOM      1  C   UNL     1       7.301   5.369  17.099  0.00  0.00    +0.000 A 
ATOM      2  C   UNL     1       7.600   4.582  18.196  0.00  0.00    +0.000 A 
ATOM      3  S   UNL     1       8.169   5.570  19.489  0.00  0.00    +0.000 S 
ATOM      4  C   UNL     1       8.054   6.931  18.471  0.00  0.00    +0.000 A 
ATOM      5  N   UNL     1       8.517   8.107  18.993  0.00  0.00    +0.000 N 
ATOM      6  C   UNL     1       8.635   9.224  18.191  0.00  0.00    +0.000 C 
ATOM      7  O   UNL     1       8.353   9.298  17.000  0.00  0.00    +0.000 OA
ATOM      8  N   UNL     1       7.551   6.722  17.284  0.00  0.00    +0.000 NA
ATOM      9  H   UNL     1       8.780   8.102  19.966  0.00  0.00    +0.000 HD
ENDROOT
BRANCH   6  10
ATOM     10  C   UNL     1       9.146  10.462  18.840  0.00  0.00    +0.000 A 
ATOM     11  C   UNL     1       9.713  11.432  18.000  0.00  0.00    +0.000 A 
ATOM     12  C   UNL     1      10.262  12.592  18.536  0.00  0.00    +0.000 A 
ATOM     13  C   UNL     1      10.231  12.792  19.911  0.00  0.00    +0.000 A 
ATOM     14  C   UNL     1       9.651  11.844  20.763  0.00  0.00    +0.000 A 
ATOM     15  C   UNL     1       9.142  10.658  20.230  0.00  0.00    +0.000 A 
BRANCH  14  16
ATOM     16  O   UNL     1       9.725  12.158  22.086  0.00  0.00    +0.000 OA
BRANCH  16  17
ATOM     17  C   UNL     1       8.533  12.393  22.823  0.00  0.00    +0.000 C 
ATOM     18  F   UNL     1       7.513  12.877  22.083  0.00  0.00    +0.000 F 
ATOM     19  F   UNL     1       8.136  11.238  23.398  0.00  0.00    +0.000 F 
ATOM     20  F   UNL     1       8.798  13.285  23.801  0.00  0.00    +0.000 F 
ENDBRANCH  16  17
ENDBRANCH  14  16
ENDBRANCH   6  10
BRANCH   1  21
ATOM     21  C   UNL     1       6.804   4.930  15.744  0.00  0.00    +0.000 C 
BRANCH  21  22
ATOM     22  N   UNL     1       7.698   5.554  14.751  0.00  0.00    +0.000 NA
ATOM     23  H   UNL     1       8.461   4.886  14.586  0.00  0.00    +0.000 HD
ATOM     24  H   UNL     1       8.142   6.371  15.169  0.00  0.00    +0.000 HD
ENDBRANCH  21  22
BRANCH  21  25
ATOM     25  C   UNL     1       5.319   5.321  15.539  0.00  0.00    +0.000 C 
BRANCH  25  29
ATOM     26  C   UNL     1       2.661   4.038  18.713  0.00  0.00    +0.000 A 
ATOM     27  C   UNL     1       3.230   3.101  17.851  0.00  0.00    +0.000 A 
ATOM     28  C   UNL     1       4.096   3.507  16.830  0.00  0.00    +0.000 A 
ATOM     29  C   UNL     1       4.380   4.864  16.638  0.00  0.00    +0.000 A 
ATOM     30  C   UNL     1       3.789   5.801  17.498  0.00  0.00    +0.000 A 
ATOM     31  C   UNL     1       2.936   5.391  18.528  0.00  0.00    +0.000 A 
BRANCH  26  33
ATOM     32  C   UNL     1       1.211   4.476  20.528  0.00  0.00    +0.000 C 
ATOM     33  O   UNL     1       1.824   3.523  19.666  0.00  0.00    +0.000 OA
ENDBRANCH  26  33
ENDBRANCH  25  29
ENDBRANCH  21  25
ENDBRANCH   1  21
TORSDOF 8
ENDMDL
MODEL 9
REMARK VINA RESULT:      -8.2      1.871      2.028
REMARK  Name = 
REMARK  9 active torsions:
REMARK  status: ('A' for Active; 'I' for Inactive)
REMARK    1  A    between atoms: C_1  and  O_2
REMARK    2  A    between atoms: O_2  and  C_3
REMARK    3  A    between atoms: C_6  and  C_7
REMARK    4  A    between atoms: C_7  and  C_8
REMARK    5  A    between atoms: C_8  and  N_9
REMARK    6  A    between atoms: C_8  and  C_10
REMARK    7  A    between atoms: C_15  and  C_17
REMARK    8  A    between atoms: C_21  and  O_22
REMARK    9  A    between atoms: O_22  and  C_23
REMARK                            x       y       z     vdW  Elec       q    Type
REMARK                         _______ _______ _______ _____ _____    ______ ____
ROOT
ATOM      1  C   UNL     1       6.526   5.666  17.262  0.00  0.00    +0.000 A 
ATOM      2  C   UNL     1       7.060   4.739  18.140  0.00  0.00    +0.000 A 
ATOM      3  S   UNL     1       8.101   5.528  19.264  0.00  0.00    +0.000 S 
ATOM      4  C   UNL     1       7.829   7.000  18.451  0.00  0.00    +0.000 A 
ATOM      5  N   UNL     1       8.555   8.070  18.896  0.00  0.00    +0.000 N 
ATOM      6  C   UNL     1       8.542   9.258  18.192  0.00  0.00    +0.000 C 
ATOM      7  O   UNL     1       7.919   9.487  17.162  0.00  0.00    +0.000 OA
ATOM      8  N   UNL     1       6.967   6.965  17.470  0.00  0.00    +0.000 NA
ATOM      9  H   UNL     1       9.101   7.935  19.732  0.00  0.00    +0.000 HD
ENDROOT
BRANCH   6  10
ATOM     10  C   UNL     1       9.359  10.372  18.747  0.00  0.00    +0.000 A 
ATOM     11  C   UNL     1       9.339  10.542  20.139  0.00  0.00    +0.000 A 
ATOM     12  C   UNL     1      10.032  11.594  20.730  0.00  0.00    +0.000 A 
ATOM     13  C   UNL     1      10.758  12.468  19.931  0.00  0.00    +0.000 A 
ATOM     14  C   UNL     1      10.806  12.302  18.541  0.00  0.00    +0.000 A 
ATOM     15  C   UNL     1      10.072  11.275  17.943  0.00  0.00    +0.000 A 
BRANCH  14  16
ATOM     16  O   UNL     1      11.526  13.254  17.886  0.00  0.00    +0.000 OA
BRANCH  16  17
ATOM     17  C   UNL     1      11.016  14.576  17.780  0.00  0.00    +0.000 C 
ATOM     18  F   UNL     1       9.672  14.642  17.668  0.00  0.00    +0.000 F 
ATOM     19  F   UNL     1      11.392  15.282  18.867  0.00  0.00    +0.000 F 
ATOM     20  F   UNL     1      11.553  15.161  16.687  0.00  0.00    +0.000 F 
ENDBRANCH  16  17
ENDBRANCH  14  16
ENDBRANCH   6  10
BRANCH   1  21
ATOM     21  C   UNL     1       5.593   5.423  16.101  0.00  0.00    +0.000 C 
BRANCH  21  22
ATOM     22  N   UNL     1       5.354   6.737  15.477  0.00  0.00    +0.000 NA
ATOM     23  H   UNL     1       5.959   7.407  15.969  0.00  0.00    +0.000 HD
ATOM     24  H   UNL     1       4.402   7.035  15.682  0.00  0.00    +0.000 HD
ENDBRANCH  21  22
BRANCH  21  25
ATOM     25  C   UNL     1       4.286   4.737  16.570  0.00  0.00    +0.000 C 
BRANCH  25  29
ATOM     26  C   UNL     1       2.231   6.808  19.775  0.00  0.00    +0.000 A 
ATOM     27  C   UNL     1       2.620   5.478  19.934  0.00  0.00    +0.000 A 
ATOM     28  C   UNL     1       3.291   4.806  18.907  0.00  0.00    +0.000 A 
ATOM     29  C   UNL     1       3.556   5.449  17.691  0.00  0.00    +0.000 A 
ATOM     30  C   UNL     1       3.145   6.780  17.534  0.00  0.00    +0.000 A 
ATOM     31  C   UNL     1       2.486   7.455  18.568  0.00  0.00    +0.000 A 
BRANCH  26  33
ATOM     32  C   UNL     1       1.341   8.759  20.771  0.00  0.00    +0.000 C 
ATOM     33  O   UNL     1       1.574   7.356  20.844  0.00  0.00    +0.000 OA
ENDBRANCH  26  33
ENDBRANCH  25  29
ENDBRANCH  21  25
ENDBRANCH   1  21
TORSDOF 8
ENDMDL
