MODEL 1
REMARK VINA RESULT:      -8.8      0.000      0.000
REMARK  Name = 
REMARK  10 active torsions:
REMARK  status: ('A' for Active; 'I' for Inactive)
REMARK    1  A    between atoms: C_1  and  O_2
REMARK    2  A    between atoms: O_2  and  C_3
REMARK    3  A    between atoms: C_6  and  C_7
REMARK    4  A    between atoms: C_11  and  C_12
REMARK    5  A    between atoms: C_15  and  O_16
REMARK    6  A    between atoms: O_16  and  C_17
REMARK    7  A    between atoms: C_17  and  C_18
REMARK    8  A    between atoms: C_26  and  O_27
REMARK    9  A    between atoms: C_29  and  O_30
REMARK   10  A    between atoms: O_30  and  C_31
REMARK                            x       y       z     vdW  Elec       q    Type
REMARK                         _______ _______ _______ _____ _____    ______ ____
ROOT
ATOM      1  C   UNL     1       5.799   5.545  17.769  0.00  0.00    +0.000 A 
ATOM      2  C   UNL     1       6.676   5.326  18.845  0.00  0.00    +0.000 A 
ATOM      3  C   UNL     1       7.691   6.230  19.153  0.00  0.00    +0.000 A 
ATOM      4  C   UNL     1       7.885   7.358  18.362  0.00  0.00    +0.000 A 
ATOM      5  C   UNL     1       7.085   7.552  17.236  0.00  0.00    +0.000 A 
ATOM      6  C   UNL     1       6.034   6.667  16.956  0.00  0.00    +0.000 A 
ENDROOT
BRANCH   1  11
ATOM      7  C   UNL     1       3.324   4.667  17.993  0.00  0.00    +0.000 A 
ATOM      8  C   UNL     1       2.767   3.468  17.594  0.00  0.00    +0.000 A 
ATOM      9  N   UNL     1       3.743   2.795  16.934  0.00  0.00    +0.000 N 
ATOM     10  N   UNL     1       4.922   3.420  16.925  0.00  0.00    +0.000 NA
ATOM     11  C   UNL     1       4.698   4.593  17.544  0.00  0.00    +0.000 A 
ATOM     12  H   UNL     1       3.686   1.887  16.486  0.00  0.00    +0.000 HD
BRANCH   7  16
ATOM     13  C   UNL     1       1.570   7.712  20.433  0.00  0.00    +0.000 A 
ATOM     14  C   UNL     1       1.576   6.373  20.857  0.00  0.00    +0.000 A 
ATOM     15  C   UNL     1       2.115   5.368  20.049  0.00  0.00    +0.000 A 
ATOM     16  C   UNL     1       2.599   5.667  18.772  0.00  0.00    +0.000 A 
ATOM     17  C   UNL     1       2.444   6.974  18.300  0.00  0.00    +0.000 A 
ATOM     18  C   UNL     1       1.961   8.009  19.121  0.00  0.00    +0.000 A 
BRANCH  13  20
ATOM     19  C   UNL     1      -0.205   8.700  21.655  0.00  0.00    +0.000 C 
ATOM     20  O   UNL     1       1.173   8.715  21.277  0.00  0.00    +0.000 OA
ENDBRANCH  13  20
BRANCH  18  21
ATOM     21  O   UNL     1       2.008   9.223  18.491  0.00  0.00    +0.000 OA
ATOM     22  C   UNL     1       0.800   9.821  18.049  0.00  0.00    +0.000 C 
ENDBRANCH  18  21
ENDBRANCH   7  16
ENDBRANCH   1  11
BRANCH   6  23
ATOM     23  O   UNL     1       5.214   6.952  15.896  0.00  0.00    +0.000 OA
ATOM     24  H   UNL     1       4.292   6.945  16.197  0.00  0.00    +0.000 HD
ENDBRANCH   6  23
BRANCH   4  25
ATOM     25  O   UNL     1       8.824   8.325  18.602  0.00  0.00    +0.000 OA
BRANCH  25  26
ATOM     26  C   UNL     1       8.475   9.625  18.122  0.00  0.00    +0.000 C 
BRANCH  26  27
ATOM     27  C   UNL     1       9.463  10.628  18.657  0.00  0.00    +0.000 A 
ATOM     28  C   UNL     1       9.585  10.840  20.039  0.00  0.00    +0.000 A 
ATOM     29  C   UNL     1      10.501  11.762  20.532  0.00  0.00    +0.000 A 
ATOM     30  C   UNL     1      11.303  12.477  19.643  0.00  0.00    +0.000 A 
ATOM     31  F   UNL     1      12.186  13.365  20.119  0.00  0.00    +0.000 F 
ATOM     32  C   UNL     1      11.195  12.284  18.271  0.00  0.00    +0.000 A 
ATOM     33  C   UNL     1      10.277  11.360  17.775  0.00  0.00    +0.000 A 
ENDBRANCH  26  27
ENDBRANCH  25  26
ENDBRANCH   4  25
TORSDOF 8
ENDMDL
MODEL 2
REMARK VINA RESULT:      -8.6      4.472      8.035
REMARK  Name = 
REMARK  10 active torsions:
REMARK  status: ('A' for Active; 'I' for Inactive)
REMARK    1  A    between atoms: C_1  and  O_2
REMARK    2  A    between atoms: O_2  and  C_3
REMARK    3  A    between atoms: C_6  and  C_7
REMARK    4  A    between atoms: C_11  and  C_12
REMARK    5  A    between atoms: C_15  and  O_16
REMARK    6  A    between atoms: O_16  and  C_17
REMARK    7  A    between atoms: C_17  and  C_18
REMARK    8  A    between atoms: C_26  and  O_27
REMARK    9  A    between atoms: C_29  and  O_30
REMARK   10  A    between atoms: O_30  and  C_31
REMARK                            x       y       z     vdW  Elec       q    Type
REMARK                         _______ _______ _______ _____ _____    ______ ____
ROOT
ATOM      1  C   UNL     1       2.418   5.181  18.976  0.00  0.00    +0.000 A 
ATOM      2  C   UNL     1       2.368   5.984  17.825  0.00  0.00    +0.000 A 
ATOM      3  C   UNL     1       2.195   7.366  17.907  0.00  0.00    +0.000 A 
ATOM      4  C   UNL     1       2.021   7.974  19.146  0.00  0.00    +0.000 A 
ATOM      5  C   UNL     1       1.979   7.188  20.297  0.00  0.00    +0.000 A 
ATOM      6  C   UNL     1       2.201   5.806  20.216  0.00  0.00    +0.000 A 
ENDROOT
BRANCH   1  11
ATOM      7  C   UNL     1       3.723   3.078  18.069  0.00  0.00    +0.000 A 
ATOM      8  C   UNL     1       3.437   1.733  18.193  0.00  0.00    +0.000 A 
ATOM      9  N   UNL     1       2.345   1.648  18.995  0.00  0.00    +0.000 N 
ATOM     10  N   UNL     1       1.843   2.831  19.355  0.00  0.00    +0.000 NA
ATOM     11  C   UNL     1       2.682   3.739  18.827  0.00  0.00    +0.000 A 
ATOM     12  H   UNL     1       1.868   0.814  19.318  0.00  0.00    +0.000 HD
BRANCH   7  16
ATOM     13  C   UNL     1       6.718   4.947  15.652  0.00  0.00    +0.000 A 
ATOM     14  C   UNL     1       5.729   4.140  15.067  0.00  0.00    +0.000 A 
ATOM     15  C   UNL     1       4.769   3.499  15.853  0.00  0.00    +0.000 A 
ATOM     16  C   UNL     1       4.816   3.592  17.247  0.00  0.00    +0.000 A 
ATOM     17  C   UNL     1       5.895   4.267  17.825  0.00  0.00    +0.000 A 
ATOM     18  C   UNL     1       6.834   4.970  17.048  0.00  0.00    +0.000 A 
BRANCH  13  20
ATOM     19  C   UNL     1       7.706   5.264  13.522  0.00  0.00    +0.000 C 
ATOM     20  O   UNL     1       7.571   5.689  14.879  0.00  0.00    +0.000 OA
ENDBRANCH  13  20
BRANCH  18  21
ATOM     21  O   UNL     1       7.729   5.653  17.826  0.00  0.00    +0.000 OA
ATOM     22  C   UNL     1       7.523   5.714  19.228  0.00  0.00    +0.000 C 
ENDBRANCH  18  21
ENDBRANCH   7  16
ENDBRANCH   1  11
BRANCH   6  23
ATOM     23  O   UNL     1       2.247   5.090  21.383  0.00  0.00    +0.000 OA
ATOM     24  H   UNL     1       2.542   4.187  21.190  0.00  0.00    +0.000 HD
ENDBRANCH   6  23
BRANCH   4  25
ATOM     25  O   UNL     1       1.886   9.324  19.337  0.00  0.00    +0.000 OA
BRANCH  25  26
ATOM     26  C   UNL     1       1.455  10.048  18.182  0.00  0.00    +0.000 C 
BRANCH  26  27
ATOM     27  C   UNL     1       0.046  10.531  18.403  0.00  0.00    +0.000 A 
ATOM     28  C   UNL     1      -1.019   9.977  17.677  0.00  0.00    +0.000 A 
ATOM     29  C   UNL     1      -2.320  10.420  17.886  0.00  0.00    +0.000 A 
ATOM     30  C   UNL     1      -2.562  11.423  18.824  0.00  0.00    +0.000 A 
ATOM     31  F   UNL     1      -3.816  11.849  19.026  0.00  0.00    +0.000 F 
ATOM     32  C   UNL     1      -1.521  11.986  19.551  0.00  0.00    +0.000 A 
ATOM     33  C   UNL     1      -0.216  11.544  19.343  0.00  0.00    +0.000 A 
ENDBRANCH  26  27
ENDBRANCH  25  26
ENDBRANCH   4  25
TORSDOF 8
ENDMDL
MODEL 3
REMARK VINA RESULT:      -8.6      4.421      8.101
REMARK  Name = 
REMARK  10 active torsions:
REMARK  status: ('A' for Active; 'I' for Inactive)
REMARK    1  A    between atoms: C_1  and  O_2
REMARK    2  A    between atoms: O_2  and  C_3
REMARK    3  A    between atoms: C_6  and  C_7
REMARK    4  A    between atoms: C_11  and  C_12
REMARK    5  A    between atoms: C_15  and  O_16
REMARK    6  A    between atoms: O_16  and  C_17
REMARK    7  A    between atoms: C_17  and  C_18
REMARK    8  A    between atoms: C_26  and  O_27
REMARK    9  A    between atoms: C_29  and  O_30
REMARK   10  A    between atoms: O_30  and  C_31
REMARK                            x       y       z     vdW  Elec       q    Type
REMARK                         _______ _______ _______ _____ _____    ______ ____
ROOT
ATOM      1  C   UNL     1       2.390   5.311  18.924  0.00  0.00    +0.000 A 
ATOM      2  C   UNL     1       2.333   6.066  17.740  0.00  0.00    +0.000 A 
ATOM      3  C   UNL     1       2.159   7.449  17.766  0.00  0.00    +0.000 A 
ATOM      4  C   UNL     1       1.992   8.109  18.979  0.00  0.00    +0.000 A 
ATOM      5  C   UNL     1       1.957   7.371  20.163  0.00  0.00    +0.000 A 
ATOM      6  C   UNL     1       2.180   5.987  20.138  0.00  0.00    +0.000 A 
ENDROOT
BRANCH   1  11
ATOM      7  C   UNL     1       3.692   3.173  18.097  0.00  0.00    +0.000 A 
ATOM      8  C   UNL     1       3.408   1.834  18.278  0.00  0.00    +0.000 A 
ATOM      9  N   UNL     1       2.320   1.782  19.090  0.00  0.00    +0.000 N 
ATOM     10  N   UNL     1       1.820   2.978  19.403  0.00  0.00    +0.000 NA
ATOM     11  C   UNL     1       2.655   3.864  18.833  0.00  0.00    +0.000 A 
ATOM     12  H   UNL     1       1.846   0.961  19.450  0.00  0.00    +0.000 HD
BRANCH   7  16
ATOM     13  C   UNL     1       6.714   4.962  15.653  0.00  0.00    +0.000 A 
ATOM     14  C   UNL     1       5.601   4.336  15.069  0.00  0.00    +0.000 A 
ATOM     15  C   UNL     1       4.628   3.719  15.859  0.00  0.00    +0.000 A 
ATOM     16  C   UNL     1       4.779   3.653  17.248  0.00  0.00    +0.000 A 
ATOM     17  C   UNL     1       5.966   4.140  17.804  0.00  0.00    +0.000 A 
ATOM     18  C   UNL     1       6.926   4.819  17.031  0.00  0.00    +0.000 A 
BRANCH  13  20
ATOM     19  C   UNL     1       7.723   5.277  13.532  0.00  0.00    +0.000 C 
ATOM     20  O   UNL     1       7.593   5.687  14.894  0.00  0.00    +0.000 OA
ENDBRANCH  13  20
BRANCH  18  21
ATOM     21  O   UNL     1       7.944   5.311  17.801  0.00  0.00    +0.000 OA
ATOM     22  C   UNL     1       7.648   5.850  19.079  0.00  0.00    +0.000 C 
ENDBRANCH  18  21
ENDBRANCH   7  16
ENDBRANCH   1  11
BRANCH   6  23
ATOM     23  O   UNL     1       2.234   5.320  21.333  0.00  0.00    +0.000 OA
ATOM     24  H   UNL     1       2.036   5.939  22.053  0.00  0.00    +0.000 HD
ENDBRANCH   6  23
BRANCH   4  25
ATOM     25  O   UNL     1       1.856   9.465  19.115  0.00  0.00    +0.000 OA
BRANCH  25  26
ATOM     26  C   UNL     1       0.864   9.872  20.061  0.00  0.00    +0.000 C 
BRANCH  26  27
ATOM     27  C   UNL     1      -0.337  10.393  19.318  0.00  0.00    +0.000 A 
ATOM     28  C   UNL     1      -1.151  11.385  19.887  0.00  0.00    +0.000 A 
ATOM     29  C   UNL     1      -2.256  11.870  19.198  0.00  0.00    +0.000 A 
ATOM     30  C   UNL     1      -2.554  11.364  17.933  0.00  0.00    +0.000 A 
ATOM     31  F   UNL     1      -3.619  11.832  17.269  0.00  0.00    +0.000 F 
ATOM     32  C   UNL     1      -1.762  10.379  17.354  0.00  0.00    +0.000 A 
ATOM     33  C   UNL     1      -0.654   9.892  18.043  0.00  0.00    +0.000 A 
ENDBRANCH  26  27
ENDBRANCH  25  26
ENDBRANCH   4  25
TORSDOF 8
ENDMDL
MODEL 4
REMARK VINA RESULT:      -8.5      4.323      8.432
REMARK  Name = 
REMARK  10 active torsions:
REMARK  status: ('A' for Active; 'I' for Inactive)
REMARK    1  A    between atoms: C_1  and  O_2
REMARK    2  A    between atoms: O_2  and  C_3
REMARK    3  A    between atoms: C_6  and  C_7
REMARK    4  A    between atoms: C_11  and  C_12
REMARK    5  A    between atoms: C_15  and  O_16
REMARK    6  A    between atoms: O_16  and  C_17
REMARK    7  A    between atoms: C_17  and  C_18
REMARK    8  A    between atoms: C_26  and  O_27
REMARK    9  A    between atoms: C_29  and  O_30
REMARK   10  A    between atoms: O_30  and  C_31
REMARK                            x       y       z     vdW  Elec       q    Type
REMARK                         _______ _______ _______ _____ _____    ______ ____
ROOT
ATOM      1  C   UNL     1       2.441   6.434  19.371  0.00  0.00    +0.000 A 
ATOM      2  C   UNL     1       2.566   6.832  18.030  0.00  0.00    +0.000 A 
ATOM      3  C   UNL     1       2.208   8.114  17.613  0.00  0.00    +0.000 A 
ATOM      4  C   UNL     1       1.671   9.018  18.524  0.00  0.00    +0.000 A 
ATOM      5  C   UNL     1       1.454   8.618  19.842  0.00  0.00    +0.000 A 
ATOM      6  C   UNL     1       1.860   7.346  20.269  0.00  0.00    +0.000 A 
ENDROOT
BRANCH   1  11
ATOM      7  C   UNL     1       3.917   4.263  19.136  0.00  0.00    +0.000 A 
ATOM      8  C   UNL     1       3.876   3.079  19.846  0.00  0.00    +0.000 A 
ATOM      9  N   UNL     1       2.948   3.252  20.822  0.00  0.00    +0.000 N 
ATOM     10  N   UNL     1       2.321   4.428  20.771  0.00  0.00    +0.000 NA
ATOM     11  C   UNL     1       2.911   5.093  19.762  0.00  0.00    +0.000 A 
ATOM     12  H   UNL     1       2.668   2.597  21.543  0.00  0.00    +0.000 HD
BRANCH   7  16
ATOM     13  C   UNL     1       6.217   5.221  15.658  0.00  0.00    +0.000 A 
ATOM     14  C   UNL     1       5.131   4.334  15.574  0.00  0.00    +0.000 A 
ATOM     15  C   UNL     1       4.398   3.989  16.712  0.00  0.00    +0.000 A 
ATOM     16  C   UNL     1       4.773   4.468  17.971  0.00  0.00    +0.000 A 
ATOM     17  C   UNL     1       5.947   5.223  18.064  0.00  0.00    +0.000 A 
ATOM     18  C   UNL     1       6.661   5.630  16.922  0.00  0.00    +0.000 A 
BRANCH  13  20
ATOM     19  C   UNL     1       7.227   4.665  13.588  0.00  0.00    +0.000 C 
ATOM     20  O   UNL     1       6.847   5.671  14.529  0.00  0.00    +0.000 OA
ENDBRANCH  13  20
BRANCH  18  21
ATOM     21  O   UNL     1       7.703   6.458  17.242  0.00  0.00    +0.000 OA
ATOM     22  C   UNL     1       7.978   6.729  18.606  0.00  0.00    +0.000 C 
ENDBRANCH  18  21
ENDBRANCH   7  16
ENDBRANCH   1  11
BRANCH   6  23
ATOM     23  O   UNL     1       1.717   7.033  21.595  0.00  0.00    +0.000 OA
ATOM     24  H   UNL     1       1.718   6.069  21.696  0.00  0.00    +0.000 HD
ENDBRANCH   6  23
BRANCH   4  25
ATOM     25  O   UNL     1       1.327  10.310  18.226  0.00  0.00    +0.000 OA
BRANCH  25  26
ATOM     26  C   UNL     1       0.408  10.907  19.143  0.00  0.00    +0.000 C 
BRANCH  26  27
ATOM     27  C   UNL     1      -0.974  10.875  18.546  0.00  0.00    +0.000 A 
ATOM     28  C   UNL     1      -1.989  11.701  19.052  0.00  0.00    +0.000 A 
ATOM     29  C   UNL     1      -3.262  11.675  18.496  0.00  0.00    +0.000 A 
ATOM     30  C   UNL     1      -3.528  10.818  17.427  0.00  0.00    +0.000 A 
ATOM     31  F   UNL     1      -4.755  10.793  16.891  0.00  0.00    +0.000 F 
ATOM     32  C   UNL     1      -2.537   9.990  16.914  0.00  0.00    +0.000 A 
ATOM     33  C   UNL     1      -1.260  10.015  17.470  0.00  0.00    +0.000 A 
ENDBRANCH  26  27
ENDBRANCH  25  26
ENDBRANCH   4  25
TORSDOF 8
ENDMDL
MODEL 5
REMARK VINA RESULT:      -8.4      3.765      7.903
REMARK  Name = 
REMARK  10 active torsions:
REMARK  status: ('A' for Active; 'I' for Inactive)
REMARK    1  A    between atoms: C_1  and  O_2
REMARK    2  A    between atoms: O_2  and  C_3
REMARK    3  A    between atoms: C_6  and  C_7
REMARK    4  A    between atoms: C_11  and  C_12
REMARK    5  A    between atoms: C_15  and  O_16
REMARK    6  A    between atoms: O_16  and  C_17
REMARK    7  A    between atoms: C_17  and  C_18
REMARK    8  A    between atoms: C_26  and  O_27
REMARK    9  A    between atoms: C_29  and  O_30
REMARK   10  A    between atoms: O_30  and  C_31
REMARK                            x       y       z     vdW  Elec       q    Type
REMARK                         _______ _______ _______ _____ _____    ______ ____
ROOT
ATOM      1  C   UNL     1       2.185   5.034  19.161  0.00  0.00    +0.000 A 
ATOM      2  C   UNL     1       2.371   6.230  18.448  0.00  0.00    +0.000 A 
ATOM      3  C   UNL     1       2.139   7.473  19.037  0.00  0.00    +0.000 A 
ATOM      4  C   UNL     1       1.669   7.549  20.345  0.00  0.00    +0.000 A 
ATOM      5  C   UNL     1       1.393   6.374  21.044  0.00  0.00    +0.000 A 
ATOM      6  C   UNL     1       1.673   5.127  20.466  0.00  0.00    +0.000 A 
ENDROOT
BRANCH   1  11
ATOM      7  C   UNL     1       3.676   3.427  17.697  0.00  0.00    +0.000 A 
ATOM      8  C   UNL     1       3.431   2.141  17.260  0.00  0.00    +0.000 A 
ATOM      9  N   UNL     1       2.253   1.765  17.820  0.00  0.00    +0.000 N 
ATOM     10  N   UNL     1       1.664   2.725  18.536  0.00  0.00    +0.000 NA
ATOM     11  C   UNL     1       2.524   3.758  18.508  0.00  0.00    +0.000 A 
ATOM     12  H   UNL     1       1.774   0.876  17.736  0.00  0.00    +0.000 HD
BRANCH   7  16
ATOM     13  C   UNL     1       6.946   6.012  16.731  0.00  0.00    +0.000 A 
ATOM     14  C   UNL     1       5.831   5.924  15.882  0.00  0.00    +0.000 A 
ATOM     15  C   UNL     1       4.775   5.055  16.173  0.00  0.00    +0.000 A 
ATOM     16  C   UNL     1       4.840   4.206  17.281  0.00  0.00    +0.000 A 
ATOM     17  C   UNL     1       6.021   4.190  18.030  0.00  0.00    +0.000 A 
ATOM     18  C   UNL     1       7.066   5.101  17.788  0.00  0.00    +0.000 A 
BRANCH  13  20
ATOM     19  C   UNL     1       7.878   8.083  17.410  0.00  0.00    +0.000 C 
ATOM     20  O   UNL     1       7.912   6.960  16.527  0.00  0.00    +0.000 OA
ENDBRANCH  13  20
BRANCH  18  21
ATOM     21  O   UNL     1       8.068   4.983  18.713  0.00  0.00    +0.000 OA
ATOM     22  C   UNL     1       7.929   5.627  19.969  0.00  0.00    +0.000 C 
ENDBRANCH  18  21
ENDBRANCH   7  16
ENDBRANCH   1  11
BRANCH   6  23
ATOM     23  O   UNL     1       1.478   4.004  21.227  0.00  0.00    +0.000 OA
ATOM     24  H   UNL     1       1.651   4.215  22.157  0.00  0.00    +0.000 HD
ENDBRANCH   6  23
BRANCH   4  25
ATOM     25  O   UNL     1       1.449   8.716  21.026  0.00  0.00    +0.000 OA
BRANCH  25  26
ATOM     26  C   UNL     1       0.897   9.771  20.235  0.00  0.00    +0.000 C 
BRANCH  26  27
ATOM     27  C   UNL     1      -0.126  10.513  21.053  0.00  0.00    +0.000 A 
ATOM     28  C   UNL     1      -0.286  10.233  22.419  0.00  0.00    +0.000 A 
ATOM     29  C   UNL     1      -1.228  10.923  23.174  0.00  0.00    +0.000 A 
ATOM     30  C   UNL     1      -2.016  11.899  22.565  0.00  0.00    +0.000 A 
ATOM     31  F   UNL     1      -2.923  12.563  23.293  0.00  0.00    +0.000 F 
ATOM     32  C   UNL     1      -1.875  12.188  21.213  0.00  0.00    +0.000 A 
ATOM     33  C   UNL     1      -0.932  11.498  20.454  0.00  0.00    +0.000 A 
ENDBRANCH  26  27
ENDBRANCH  25  26
ENDBRANCH   4  25
TORSDOF 8
ENDMDL
MODEL 6
REMARK VINA RESULT:      -8.3      4.060      8.108
REMARK  Name = 
REMARK  10 active torsions:
REMARK  status: ('A' for Active; 'I' for Inactive)
REMARK    1  A    between atoms: C_1  and  O_2
REMARK    2  A    between atoms: O_2  and  C_3
REMARK    3  A    between atoms: C_6  and  C_7
REMARK    4  A    between atoms: C_11  and  C_12
REMARK    5  A    between atoms: C_15  and  O_16
REMARK    6  A    between atoms: O_16  and  C_17
REMARK    7  A    between atoms: C_17  and  C_18
REMARK    8  A    between atoms: C_26  and  O_27
REMARK    9  A    between atoms: C_29  and  O_30
REMARK   10  A    between atoms: O_30  and  C_31
REMARK                            x       y       z     vdW  Elec       q    Type
REMARK                         _______ _______ _______ _____ _____    ______ ____
ROOT
ATOM      1  C   UNL     1       2.368   6.582  19.466  0.00  0.00    +0.000 A 
ATOM      2  C   UNL     1       2.555   6.883  18.107  0.00  0.00    +0.000 A 
ATOM      3  C   UNL     1       2.294   8.155  17.598  0.00  0.00    +0.000 A 
ATOM      4  C   UNL     1       1.793   9.150  18.433  0.00  0.00    +0.000 A 
ATOM      5  C   UNL     1       1.516   8.852  19.767  0.00  0.00    +0.000 A 
ATOM      6  C   UNL     1       1.824   7.586  20.285  0.00  0.00    +0.000 A 
ENDROOT
BRANCH   1  11
ATOM      7  C   UNL     1       3.798   4.368  19.503  0.00  0.00    +0.000 A 
ATOM      8  C   UNL     1       3.622   3.209  20.231  0.00  0.00    +0.000 A 
ATOM      9  N   UNL     1       2.569   3.434  21.058  0.00  0.00    +0.000 N 
ATOM     10  N   UNL     1       1.991   4.624  20.887  0.00  0.00    +0.000 NA
ATOM     11  C   UNL     1       2.738   5.243  19.956  0.00  0.00    +0.000 A 
ATOM     12  H   UNL     1       2.170   2.809  21.750  0.00  0.00    +0.000 HD
BRANCH   7  16
ATOM     13  C   UNL     1       6.580   5.146  16.347  0.00  0.00    +0.000 A 
ATOM     14  C   UNL     1       5.538   4.222  16.169  0.00  0.00    +0.000 A 
ATOM     15  C   UNL     1       4.647   3.937  17.206  0.00  0.00    +0.000 A 
ATOM     16  C   UNL     1       4.817   4.516  18.467  0.00  0.00    +0.000 A 
ATOM     17  C   UNL     1       5.948   5.312  18.678  0.00  0.00    +0.000 A 
ATOM     18  C   UNL     1       6.819   5.658  17.629  0.00  0.00    +0.000 A 
BRANCH  13  20
ATOM     19  C   UNL     1       7.115   4.869  14.055  0.00  0.00    +0.000 C 
ATOM     20  O   UNL     1       7.366   5.533  15.295  0.00  0.00    +0.000 OA
ENDBRANCH  13  20
BRANCH  18  21
ATOM     21  O   UNL     1       7.784   6.538  18.039  0.00  0.00    +0.000 OA
ATOM     22  C   UNL     1       7.693   7.898  17.647  0.00  0.00    +0.000 C 
ENDBRANCH  18  21
ENDBRANCH   7  16
ENDBRANCH   1  11
BRANCH   6  23
ATOM     23  O   UNL     1       1.626   7.371  21.624  0.00  0.00    +0.000 OA
ATOM     24  H   UNL     1       2.440   7.017  22.013  0.00  0.00    +0.000 HD
ENDBRANCH   6  23
BRANCH   4  25
ATOM     25  O   UNL     1       1.543  10.438  18.043  0.00  0.00    +0.000 OA
BRANCH  25  26
ATOM     26  C   UNL     1       1.280  11.344  19.117  0.00  0.00    +0.000 C 
BRANCH  26  27
ATOM     27  C   UNL     1      -0.200  11.608  19.185  0.00  0.00    +0.000 A 
ATOM     28  C   UNL     1      -1.015  11.391  18.063  0.00  0.00    +0.000 A 
ATOM     29  C   UNL     1      -2.383  11.630  18.129  0.00  0.00    +0.000 A 
ATOM     30  C   UNL     1      -2.944  12.088  19.321  0.00  0.00    +0.000 A 
ATOM     31  F   UNL     1      -4.262  12.317  19.384  0.00  0.00    +0.000 F 
ATOM     32  C   UNL     1      -2.154  12.312  20.442  0.00  0.00    +0.000 A 
ATOM     33  C   UNL     1      -0.782  12.073  20.378  0.00  0.00    +0.000 A 
ENDBRANCH  26  27
ENDBRANCH  25  26
ENDBRANCH   4  25
TORSDOF 8
ENDMDL
MODEL 7
REMARK VINA RESULT:      -8.2      3.727      6.926
REMARK  Name = 
REMARK  10 active torsions:
REMARK  status: ('A' for Active; 'I' for Inactive)
REMARK    1  A    between atoms: C_1  and  O_2
REMARK    2  A    between atoms: O_2  and  C_3
REMARK    3  A    between atoms: C_6  and  C_7
REMARK    4  A    between atoms: C_11  and  C_12
REMARK    5  A    between atoms: C_15  and  O_16
REMARK    6  A    between atoms: O_16  and  C_17
REMARK    7  A    between atoms: C_17  and  C_18
REMARK    8  A    between atoms: C_26  and  O_27
REMARK    9  A    between atoms: C_29  and  O_30
REMARK   10  A    between atoms: O_30  and  C_31
REMARK                            x       y       z     vdW  Elec       q    Type
REMARK                         _______ _______ _______ _____ _____    ______ ____
ROOT
ATOM      1  C   UNL     1       2.359   6.523  19.484  0.00  0.00    +0.000 A 
ATOM      2  C   UNL     1       2.605   6.778  18.125  0.00  0.00    +0.000 A 
ATOM      3  C   UNL     1       2.434   8.050  17.578  0.00  0.00    +0.000 A 
ATOM      4  C   UNL     1       1.965   9.092  18.372  0.00  0.00    +0.000 A 
ATOM      5  C   UNL     1       1.629   8.844  19.703  0.00  0.00    +0.000 A 
ATOM      6  C   UNL     1       1.848   7.577  20.261  0.00  0.00    +0.000 A 
ENDROOT
BRANCH   1  11
ATOM      7  C   UNL     1       3.547   4.170  19.517  0.00  0.00    +0.000 A 
ATOM      8  C   UNL     1       3.327   3.076  20.329  0.00  0.00    +0.000 A 
ATOM      9  N   UNL     1       2.395   3.457  21.240  0.00  0.00    +0.000 N 
ATOM     10  N   UNL     1       1.929   4.693  21.053  0.00  0.00    +0.000 NA
ATOM     11  C   UNL     1       2.636   5.178  20.017  0.00  0.00    +0.000 A 
ATOM     12  H   UNL     1       2.007   2.916  22.005  0.00  0.00    +0.000 HD
BRANCH   7  16
ATOM     13  C   UNL     1       6.119   4.515  16.116  0.00  0.00    +0.000 A 
ATOM     14  C   UNL     1       4.848   3.932  15.993  0.00  0.00    +0.000 A 
ATOM     15  C   UNL     1       4.016   3.784  17.106  0.00  0.00    +0.000 A 
ATOM     16  C   UNL     1       4.462   4.152  18.379  0.00  0.00    +0.000 A 
ATOM     17  C   UNL     1       5.785   4.585  18.513  0.00  0.00    +0.000 A 
ATOM     18  C   UNL     1       6.614   4.798  17.396  0.00  0.00    +0.000 A 
BRANCH  13  20
ATOM     19  C   UNL     1       6.496   4.113  13.811  0.00  0.00    +0.000 C 
ATOM     20  O   UNL     1       6.877   4.791  15.010  0.00  0.00    +0.000 OA
ENDBRANCH  13  20
BRANCH  18  21
ATOM     21  O   UNL     1       7.821   5.334  17.753  0.00  0.00    +0.000 OA
ATOM     22  C   UNL     1       7.867   6.320  18.772  0.00  0.00    +0.000 C 
ENDBRANCH  18  21
ENDBRANCH   7  16
ENDBRANCH   1  11
BRANCH   6  23
ATOM     23  O   UNL     1       1.595   7.406  21.597  0.00  0.00    +0.000 OA
ATOM     24  H   UNL     1       2.435   7.298  22.068  0.00  0.00    +0.000 HD
ENDBRANCH   6  23
BRANCH   4  25
ATOM     25  O   UNL     1       1.801  10.383  17.944  0.00  0.00    +0.000 OA
BRANCH  25  26
ATOM     26  C   UNL     1       0.990  11.194  18.797  0.00  0.00    +0.000 C 
BRANCH  26  27
ATOM     27  C   UNL     1       1.443  12.626  18.688  0.00  0.00    +0.000 A 
ATOM     28  C   UNL     1       2.757  12.930  18.300  0.00  0.00    +0.000 A 
ATOM     29  C   UNL     1       3.172  14.252  18.195  0.00  0.00    +0.000 A 
ATOM     30  C   UNL     1       2.272  15.280  18.478  0.00  0.00    +0.000 A 
ATOM     31  F   UNL     1       2.672  16.554  18.376  0.00  0.00    +0.000 F 
ATOM     32  C   UNL     1       0.968  14.999  18.867  0.00  0.00    +0.000 A 
ATOM     33  C   UNL     1       0.550  13.674  18.973  0.00  0.00    +0.000 A 
ENDBRANCH  26  27
ENDBRANCH  25  26
ENDBRANCH   4  25
TORSDOF 8
ENDMDL
MODEL 8
REMARK VINA RESULT:      -8.2      3.158      6.491
REMARK  Name = 
REMARK  10 active torsions:
REMARK  status: ('A' for Active; 'I' for Inactive)
REMARK    1  A    between atoms: C_1  and  O_2
REMARK    2  A    between atoms: O_2  and  C_3
REMARK    3  A    between atoms: C_6  and  C_7
REMARK    4  A    between atoms: C_11  and  C_12
REMARK    5  A    between atoms: C_15  and  O_16
REMARK    6  A    between atoms: O_16  and  C_17
REMARK    7  A    between atoms: C_17  and  C_18
REMARK    8  A    between atoms: C_26  and  O_27
REMARK    9  A    between atoms: C_29  and  O_30
REMARK   10  A    between atoms: O_30  and  C_31
REMARK                            x       y       z     vdW  Elec       q    Type
REMARK                         _______ _______ _______ _____ _____    ______ ____
ROOT
ATOM      1  C   UNL     1       2.270   6.799  19.469  0.00  0.00    +0.000 A 
ATOM      2  C   UNL     1       2.481   7.109  18.116  0.00  0.00    +0.000 A 
ATOM      3  C   UNL     1       2.246   8.391  17.617  0.00  0.00    +0.000 A 
ATOM      4  C   UNL     1       1.747   9.384  18.453  0.00  0.00    +0.000 A 
ATOM      5  C   UNL     1       1.446   9.077  19.780  0.00  0.00    +0.000 A 
ATOM      6  C   UNL     1       1.729   7.802  20.291  0.00  0.00    +0.000 A 
ENDROOT
BRANCH   1  11
ATOM      7  C   UNL     1       3.616   4.532  19.452  0.00  0.00    +0.000 A 
ATOM      8  C   UNL     1       3.433   3.385  20.198  0.00  0.00    +0.000 A 
ATOM      9  N   UNL     1       2.434   3.656  21.076  0.00  0.00    +0.000 N 
ATOM     10  N   UNL     1       1.893   4.866  20.925  0.00  0.00    +0.000 NA
ATOM     11  C   UNL     1       2.614   5.449  19.951  0.00  0.00    +0.000 A 
ATOM     12  H   UNL     1       2.047   3.051  21.792  0.00  0.00    +0.000 HD
BRANCH   7  16
ATOM     13  C   UNL     1       6.279   5.197  16.170  0.00  0.00    +0.000 A 
ATOM     14  C   UNL     1       5.145   4.383  16.016  0.00  0.00    +0.000 A 
ATOM     15  C   UNL     1       4.291   4.133  17.093  0.00  0.00    +0.000 A 
ATOM     16  C   UNL     1       4.585   4.634  18.364  0.00  0.00    +0.000 A 
ATOM     17  C   UNL     1       5.796   5.311  18.540  0.00  0.00    +0.000 A 
ATOM     18  C   UNL     1       6.636   5.624  17.456  0.00  0.00    +0.000 A 
BRANCH  13  20
ATOM     19  C   UNL     1       6.940   4.706  13.948  0.00  0.00    +0.000 C 
ATOM     20  O   UNL     1       7.038   5.559  15.090  0.00  0.00    +0.000 OA
ENDBRANCH  13  20
BRANCH  18  21
ATOM     21  O   UNL     1       7.701   6.391  17.843  0.00  0.00    +0.000 OA
ATOM     22  C   UNL     1       7.655   7.794  17.640  0.00  0.00    +0.000 C 
ENDBRANCH  18  21
ENDBRANCH   7  16
ENDBRANCH   1  11
BRANCH   6  23
ATOM     23  O   UNL     1       1.508   7.576  21.624  0.00  0.00    +0.000 OA
ATOM     24  H   UNL     1       0.851   6.870  21.722  0.00  0.00    +0.000 HD
ENDBRANCH   6  23
BRANCH   4  25
ATOM     25  O   UNL     1       1.522  10.680  18.073  0.00  0.00    +0.000 OA
BRANCH  25  26
ATOM     26  C   UNL     1       1.030  11.528  19.113  0.00  0.00    +0.000 C 
BRANCH  26  27
ATOM     27  C   UNL     1       1.984  12.678  19.301  0.00  0.00    +0.000 A 
ATOM     28  C   UNL     1       2.170  13.249  20.569  0.00  0.00    +0.000 A 
ATOM     29  C   UNL     1       3.055  14.307  20.743  0.00  0.00    +0.000 A 
ATOM     30  C   UNL     1       3.760  14.800  19.645  0.00  0.00    +0.000 A 
ATOM     31  F   UNL     1       4.613  15.819  19.813  0.00  0.00    +0.000 F 
ATOM     32  C   UNL     1       3.587  14.251  18.380  0.00  0.00    +0.000 A 
ATOM     33  C   UNL     1       2.700  13.190  18.204  0.00  0.00    +0.000 A 
ENDBRANCH  26  27
ENDBRANCH  25  26
ENDBRANCH   4  25
TORSDOF 8
ENDMDL
MODEL 9
REMARK VINA RESULT:      -8.1      3.513      6.999
REMARK  Name = 
REMARK  10 active torsions:
REMARK  status: ('A' for Active; 'I' for Inactive)
REMARK    1  A    between atoms: C_1  and  O_2
REMARK    2  A    between atoms: O_2  and  C_3
REMARK    3  A    between atoms: C_6  and  C_7
REMARK    4  A    between atoms: C_11  and  C_12
REMARK    5  A    between atoms: C_15  and  O_16
REMARK    6  A    between atoms: O_16  and  C_17
REMARK    7  A    between atoms: C_17  and  C_18
REMARK    8  A    between atoms: C_26  and  O_27
REMARK    9  A    between atoms: C_29  and  O_30
REMARK   10  A    between atoms: O_30  and  C_31
REMARK                            x       y       z     vdW  Elec       q    Type
REMARK                         _______ _______ _______ _____ _____    ______ ____
ROOT
ATOM      1  C   UNL     1       2.240   6.876  19.462  0.00  0.00    +0.000 A 
ATOM      2  C   UNL     1       2.424   7.149  18.096  0.00  0.00    +0.000 A 
ATOM      3  C   UNL     1       2.174   8.414  17.565  0.00  0.00    +0.000 A 
ATOM      4  C   UNL     1       1.685   9.429  18.382  0.00  0.00    +0.000 A 
ATOM      5  C   UNL     1       1.410   9.159  19.723  0.00  0.00    +0.000 A 
ATOM      6  C   UNL     1       1.708   7.901  20.264  0.00  0.00    +0.000 A 
ENDROOT
BRANCH   1  11
ATOM      7  C   UNL     1       3.645   4.647  19.532  0.00  0.00    +0.000 A 
ATOM      8  C   UNL     1       3.462   3.504  20.284  0.00  0.00    +0.000 A 
ATOM      9  N   UNL     1       2.419   3.759  21.116  0.00  0.00    +0.000 N 
ATOM     10  N   UNL     1       1.853   4.952  20.926  0.00  0.00    +0.000 NA
ATOM     11  C   UNL     1       2.598   5.543  19.976  0.00  0.00    +0.000 A 
ATOM     12  H   UNL     1       2.019   3.152  21.823  0.00  0.00    +0.000 HD
BRANCH   7  16
ATOM     13  C   UNL     1       6.425   5.344  16.355  0.00  0.00    +0.000 A 
ATOM     14  C   UNL     1       5.326   4.490  16.168  0.00  0.00    +0.000 A 
ATOM     15  C   UNL     1       4.434   4.230  17.211  0.00  0.00    +0.000 A 
ATOM     16  C   UNL     1       4.657   4.763  18.484  0.00  0.00    +0.000 A 
ATOM     17  C   UNL     1       5.837   5.482  18.699  0.00  0.00    +0.000 A 
ATOM     18  C   UNL     1       6.712   5.805  17.646  0.00  0.00    +0.000 A 
BRANCH  13  20
ATOM     19  C   UNL     1       7.110   4.902  14.130  0.00  0.00    +0.000 C 
ATOM     20  O   UNL     1       7.218   5.713  15.301  0.00  0.00    +0.000 OA
ENDBRANCH  13  20
BRANCH  18  21
ATOM     21  O   UNL     1       7.734   6.613  18.064  0.00  0.00    +0.000 OA
ATOM     22  C   UNL     1       7.733   7.981  17.689  0.00  0.00    +0.000 C 
ENDBRANCH  18  21
ENDBRANCH   7  16
ENDBRANCH   1  11
BRANCH   6  23
ATOM     23  O   UNL     1       1.513   7.712  21.607  0.00  0.00    +0.000 OA
ATOM     24  H   UNL     1       0.877   8.368  21.931  0.00  0.00    +0.000 HD
ENDBRANCH   6  23
BRANCH   4  25
ATOM     25  O   UNL     1       1.446  10.713  17.969  0.00  0.00    +0.000 OA
BRANCH  25  26
ATOM     26  C   UNL     1       2.569  11.591  18.077  0.00  0.00    +0.000 C 
BRANCH  26  27
ATOM     27  C   UNL     1       2.075  12.991  18.326  0.00  0.00    +0.000 A 
ATOM     28  C   UNL     1       0.729  13.225  18.649  0.00  0.00    +0.000 A 
ATOM     29  C   UNL     1       0.275  14.517  18.884  0.00  0.00    +0.000 A 
ATOM     30  C   UNL     1       1.167  15.586  18.798  0.00  0.00    +0.000 A 
ATOM     31  F   UNL     1       0.730  16.831  19.025  0.00  0.00    +0.000 F 
ATOM     32  C   UNL     1       2.503  15.375  18.477  0.00  0.00    +0.000 A 
ATOM     33  C   UNL     1       2.960  14.080  18.240  0.00  0.00    +0.000 A 
ENDBRANCH  26  27
ENDBRANCH  25  26
ENDBRANCH   4  25
TORSDOF 8
ENDMDL
