MODEL 1
REMARK VINA RESULT:      -7.8      0.000      0.000
REMARK  Name = 
REMARK  7 active torsions:
REMARK  status: ('A' for Active; 'I' for Inactive)
REMARK    1  A    between atoms: N_2  and  C_4
REMARK    2  A    between atoms: C_9  and  C_10
REMARK    3  A    between atoms: C_10  and  N_11
REMARK    4  A    between atoms: N_14  and  C_15
REMARK    5  A    between atoms: C_15  and  C_16
REMARK    6  A    between atoms: C_16  and  C_17
REMARK    7  A    between atoms: C_17  and  C_18
REMARK                            x       y       z     vdW  Elec       q    Type
REMARK                         _______ _______ _______ _____ _____    ______ ____
ROOT
ATOM      1  N   UNL     1       4.273   4.519  17.247  0.00  0.00    +0.000 NA
ATOM      2  C   UNL     1       4.883   5.346  16.198  0.00  0.00    +0.000 C 
ATOM      3  C   UNL     1       5.539   6.663  16.661  0.00  0.00    +0.000 C 
ATOM      4  N   UNL     1       6.389   6.604  17.850  0.00  0.00    +0.000 NA
ATOM      5  C   UNL     1       6.103   5.517  18.792  0.00  0.00    +0.000 C 
ATOM      6  C   UNL     1       5.260   4.311  18.315  0.00  0.00    +0.000 C 
ENDROOT
BRANCH   1   7
ATOM      7  C   UNL     1       2.963   4.997  17.740  0.00  0.00    +0.000 C 
BRANCH   7  13
ATOM      8  C   UNL     1       2.183   3.087  19.292  0.00  0.00    +0.000 A 
ATOM      9  C   UNL     1       2.048   2.506  20.566  0.00  0.00    +0.000 A 
ATOM     10  C   UNL     1       2.031   3.332  21.682  0.00  0.00    +0.000 A 
ATOM     11  C   UNL     1       2.171   4.707  21.510  0.00  0.00    +0.000 A 
ATOM     12  C   UNL     1       2.477   5.246  20.255  0.00  0.00    +0.000 A 
ATOM     13  C   UNL     1       2.556   4.438  19.109  0.00  0.00    +0.000 A 
BRANCH   8  15
ATOM     14  O   UNL     1       2.205   1.882  17.312  0.00  0.00    +0.000 OA
ATOM     15  N   UNL     1       1.507   2.360  18.215  0.00  0.00    +0.000 N 
ATOM     16  O   UNL     1       0.286   2.177  18.340  0.00  0.00    +0.000 OA
ENDBRANCH   8  15
ENDBRANCH   7  13
ENDBRANCH   1   7
BRANCH   4  17
ATOM     17  C   UNL     1       7.802   6.914  17.665  0.00  0.00    +0.000 C 
BRANCH  17  18
ATOM     18  C   UNL     1       8.285   8.126  18.483  0.00  0.00    +0.000 C 
BRANCH  18  19
ATOM     19  C   UNL     1       8.266   9.425  17.675  0.00  0.00    +0.000 C 
BRANCH  19  20
ATOM     20  C   UNL     1       8.897  10.566  18.434  0.00  0.00    +0.000 A 
ATOM     21  C   UNL     1       8.915  11.855  17.888  0.00  0.00    +0.000 A 
ATOM     22  C   UNL     1       9.491  12.917  18.590  0.00  0.00    +0.000 A 
ATOM     23  C   UNL     1      10.065  12.683  19.842  0.00  0.00    +0.000 A 
ATOM     24  C   UNL     1      10.048  11.404  20.392  0.00  0.00    +0.000 A 
ATOM     25  C   UNL     1       9.473  10.348  19.691  0.00  0.00    +0.000 A 
ENDBRANCH  19  20
ENDBRANCH  18  19
ENDBRANCH  17  18
ENDBRANCH   4  17
TORSDOF 7
ENDMDL
MODEL 2
REMARK VINA RESULT:      -7.7      1.555      2.161
REMARK  Name = 
REMARK  7 active torsions:
REMARK  status: ('A' for Active; 'I' for Inactive)
REMARK    1  A    between atoms: N_2  and  C_4
REMARK    2  A    between atoms: C_9  and  C_10
REMARK    3  A    between atoms: C_10  and  N_11
REMARK    4  A    between atoms: N_14  and  C_15
REMARK    5  A    between atoms: C_15  and  C_16
REMARK    6  A    between atoms: C_16  and  C_17
REMARK    7  A    between atoms: C_17  and  C_18
REMARK                            x       y       z     vdW  Elec       q    Type
REMARK                         _______ _______ _______ _____ _____    ______ ____
ROOT
ATOM      1  N   UNL     1       4.025   5.787  18.457  0.00  0.00    +0.000 NA
ATOM      2  C   UNL     1       5.261   5.763  19.250  0.00  0.00    +0.000 C 
ATOM      3  C   UNL     1       6.556   5.414  18.488  0.00  0.00    +0.000 C 
ATOM      4  N   UNL     1       6.768   6.068  17.196  0.00  0.00    +0.000 NA
ATOM      5  C   UNL     1       5.559   6.510  16.493  0.00  0.00    +0.000 C 
ATOM      6  C   UNL     1       4.237   6.645  17.283  0.00  0.00    +0.000 C 
ENDROOT
BRANCH   1   7
ATOM      7  C   UNL     1       3.469   4.458  18.123  0.00  0.00    +0.000 C 
BRANCH   7  13
ATOM      8  C   UNL     1       3.185   2.885  20.151  0.00  0.00    +0.000 A 
ATOM      9  C   UNL     1       2.511   2.482  21.318  0.00  0.00    +0.000 A 
ATOM     10  C   UNL     1       1.169   2.807  21.464  0.00  0.00    +0.000 A 
ATOM     11  C   UNL     1       0.536   3.540  20.464  0.00  0.00    +0.000 A 
ATOM     12  C   UNL     1       1.266   4.078  19.397  0.00  0.00    +0.000 A 
ATOM     13  C   UNL     1       2.637   3.818  19.241  0.00  0.00    +0.000 A 
BRANCH   8  15
ATOM     14  O   UNL     1       5.239   1.858  20.457  0.00  0.00    +0.000 OA
ATOM     15  N   UNL     1       4.254   1.981  19.720  0.00  0.00    +0.000 N 
ATOM     16  O   UNL     1       4.045   1.313  18.695  0.00  0.00    +0.000 OA
ENDBRANCH   8  15
ENDBRANCH   7  13
ENDBRANCH   1   7
BRANCH   4  17
ATOM     17  C   UNL     1       7.913   6.964  17.092  0.00  0.00    +0.000 C 
BRANCH  17  18
ATOM     18  C   UNL     1       7.959   8.046  18.187  0.00  0.00    +0.000 C 
BRANCH  18  19
ATOM     19  C   UNL     1       8.077   9.459  17.612  0.00  0.00    +0.000 C 
BRANCH  19  20
ATOM     20  C   UNL     1       9.107  10.279  18.348  0.00  0.00    +0.000 A 
ATOM     21  C   UNL     1       9.088  10.350  19.746  0.00  0.00    +0.000 A 
ATOM     22  C   UNL     1      10.045  11.101  20.433  0.00  0.00    +0.000 A 
ATOM     23  C   UNL     1      11.019  11.798  19.714  0.00  0.00    +0.000 A 
ATOM     24  C   UNL     1      11.045  11.729  18.324  0.00  0.00    +0.000 A 
ATOM     25  C   UNL     1      10.092  10.980  17.641  0.00  0.00    +0.000 A 
ENDBRANCH  19  20
ENDBRANCH  18  19
ENDBRANCH  17  18
ENDBRANCH   4  17
TORSDOF 7
ENDMDL
MODEL 3
REMARK VINA RESULT:      -7.7      3.714      6.703
REMARK  Name = 
REMARK  7 active torsions:
REMARK  status: ('A' for Active; 'I' for Inactive)
REMARK    1  A    between atoms: N_2  and  C_4
REMARK    2  A    between atoms: C_9  and  C_10
REMARK    3  A    between atoms: C_10  and  N_11
REMARK    4  A    between atoms: N_14  and  C_15
REMARK    5  A    between atoms: C_15  and  C_16
REMARK    6  A    between atoms: C_16  and  C_17
REMARK    7  A    between atoms: C_17  and  C_18
REMARK                            x       y       z     vdW  Elec       q    Type
REMARK                         _______ _______ _______ _____ _____    ______ ____
ROOT
ATOM      1  N   UNL     1       5.215   5.316  18.773  0.00  0.00    +0.000 NA
ATOM      2  C   UNL     1       6.643   5.634  18.647  0.00  0.00    +0.000 C 
ATOM      3  C   UNL     1       7.459   4.745  17.685  0.00  0.00    +0.000 C 
ATOM      4  N   UNL     1       6.864   4.451  16.381  0.00  0.00    +0.000 NA
ATOM      5  C   UNL     1       5.401   4.513  16.313  0.00  0.00    +0.000 C 
ATOM      6  C   UNL     1       4.627   5.253  17.428  0.00  0.00    +0.000 C 
ENDROOT
BRANCH   1   7
ATOM      7  C   UNL     1       4.907   4.133  19.607  0.00  0.00    +0.000 C 
BRANCH   7  13
ATOM      8  C   UNL     1       2.783   2.687  19.363  0.00  0.00    +0.000 A 
ATOM      9  C   UNL     1       1.481   2.327  19.757  0.00  0.00    +0.000 A 
ATOM     10  C   UNL     1       0.687   3.270  20.395  0.00  0.00    +0.000 A 
ATOM     11  C   UNL     1       1.209   4.535  20.649  0.00  0.00    +0.000 A 
ATOM     12  C   UNL     1       2.559   4.816  20.408  0.00  0.00    +0.000 A 
ATOM     13  C   UNL     1       3.410   3.872  19.811  0.00  0.00    +0.000 A 
BRANCH   8  15
ATOM     14  O   UNL     1       4.038   1.056  18.298  0.00  0.00    +0.000 OA
ATOM     15  N   UNL     1       3.265   2.012  18.157  0.00  0.00    +0.000 N 
ATOM     16  O   UNL     1       2.776   2.376  17.076  0.00  0.00    +0.000 OA
ENDBRANCH   8  15
ENDBRANCH   7  13
ENDBRANCH   1   7
BRANCH   4  17
ATOM     17  C   UNL     1       7.566   4.958  15.208  0.00  0.00    +0.000 C 
BRANCH  17  18
ATOM     18  C   UNL     1       6.658   5.173  13.984  0.00  0.00    +0.000 C 
BRANCH  18  19
ATOM     19  C   UNL     1       7.352   4.816  12.667  0.00  0.00    +0.000 C 
BRANCH  19  20
ATOM     20  C   UNL     1       6.784   3.559  12.057  0.00  0.00    +0.000 A 
ATOM     21  C   UNL     1       7.636   2.580  11.530  0.00  0.00    +0.000 A 
ATOM     22  C   UNL     1       7.116   1.410  10.972  0.00  0.00    +0.000 A 
ATOM     23  C   UNL     1       5.732   1.225  10.928  0.00  0.00    +0.000 A 
ATOM     24  C   UNL     1       4.879   2.193  11.452  0.00  0.00    +0.000 A 
ATOM     25  C   UNL     1       5.399   3.357  12.009  0.00  0.00    +0.000 A 
ENDBRANCH  19  20
ENDBRANCH  18  19
ENDBRANCH  17  18
ENDBRANCH   4  17
TORSDOF 7
ENDMDL
MODEL 4
REMARK VINA RESULT:      -7.6      1.777      2.187
REMARK  Name = 
REMARK  7 active torsions:
REMARK  status: ('A' for Active; 'I' for Inactive)
REMARK    1  A    between atoms: N_2  and  C_4
REMARK    2  A    between atoms: C_9  and  C_10
REMARK    3  A    between atoms: C_10  and  N_11
REMARK    4  A    between atoms: N_14  and  C_15
REMARK    5  A    between atoms: C_15  and  C_16
REMARK    6  A    between atoms: C_16  and  C_17
REMARK    7  A    between atoms: C_17  and  C_18
REMARK                            x       y       z     vdW  Elec       q    Type
REMARK                         _______ _______ _______ _____ _____    ______ ____
ROOT
ATOM      1  N   UNL     1       5.980   4.354  18.383  0.00  0.00    +0.000 NA
ATOM      2  C   UNL     1       7.134   4.369  17.475  0.00  0.00    +0.000 C 
ATOM      3  C   UNL     1       7.194   5.534  16.465  0.00  0.00    +0.000 C 
ATOM      4  N   UNL     1       6.902   6.874  16.974  0.00  0.00    +0.000 NA
ATOM      5  C   UNL     1       6.055   6.938  18.169  0.00  0.00    +0.000 C 
ATOM      6  C   UNL     1       5.875   5.668  19.032  0.00  0.00    +0.000 C 
ENDROOT
BRANCH   1   7
ATOM      7  C   UNL     1       4.712   3.893  17.778  0.00  0.00    +0.000 C 
BRANCH   7  13
ATOM      8  C   UNL     1       3.631   2.861  19.884  0.00  0.00    +0.000 A 
ATOM      9  C   UNL     1       2.689   2.886  20.927  0.00  0.00    +0.000 A 
ATOM     10  C   UNL     1       1.511   3.600  20.752  0.00  0.00    +0.000 A 
ATOM     11  C   UNL     1       1.307   4.289  19.559  0.00  0.00    +0.000 A 
ATOM     12  C   UNL     1       2.328   4.394  18.607  0.00  0.00    +0.000 A 
ATOM     13  C   UNL     1       3.555   3.731  18.771  0.00  0.00    +0.000 A 
BRANCH   8  15
ATOM     14  O   UNL     1       5.292   1.440  20.653  0.00  0.00    +0.000 OA
ATOM     15  N   UNL     1       4.416   1.628  19.798  0.00  0.00    +0.000 N 
ATOM     16  O   UNL     1       4.073   0.802  18.939  0.00  0.00    +0.000 OA
ENDBRANCH   8  15
ENDBRANCH   7  13
ENDBRANCH   1   7
BRANCH   4  17
ATOM     17  C   UNL     1       7.986   7.848  16.923  0.00  0.00    +0.000 C 
BRANCH  17  18
ATOM     18  C   UNL     1       8.255   8.551  18.266  0.00  0.00    +0.000 C 
BRANCH  18  19
ATOM     19  C   UNL     1       8.144  10.074  18.165  0.00  0.00    +0.000 C 
BRANCH  19  20
ATOM     20  C   UNL     1       9.375  10.762  18.701  0.00  0.00    +0.000 A 
ATOM     21  C   UNL     1       9.502  11.018  20.071  0.00  0.00    +0.000 A 
ATOM     22  C   UNL     1      10.643  11.647  20.575  0.00  0.00    +0.000 A 
ATOM     23  C   UNL     1      11.659  12.035  19.698  0.00  0.00    +0.000 A 
ATOM     24  C   UNL     1      11.540  11.781  18.334  0.00  0.00    +0.000 A 
ATOM     25  C   UNL     1      10.403  11.153  17.834  0.00  0.00    +0.000 A 
ENDBRANCH  19  20
ENDBRANCH  18  19
ENDBRANCH  17  18
ENDBRANCH   4  17
TORSDOF 7
ENDMDL
MODEL 5
REMARK VINA RESULT:      -7.6      1.750      2.206
REMARK  Name = 
REMARK  7 active torsions:
REMARK  status: ('A' for Active; 'I' for Inactive)
REMARK    1  A    between atoms: N_2  and  C_4
REMARK    2  A    between atoms: C_9  and  C_10
REMARK    3  A    between atoms: C_10  and  N_11
REMARK    4  A    between atoms: N_14  and  C_15
REMARK    5  A    between atoms: C_15  and  C_16
REMARK    6  A    between atoms: C_16  and  C_17
REMARK    7  A    between atoms: C_17  and  C_18
REMARK                            x       y       z     vdW  Elec       q    Type
REMARK                         _______ _______ _______ _____ _____    ______ ____
ROOT
ATOM      1  N   UNL     1       4.827   4.870  16.484  0.00  0.00    +0.000 NA
ATOM      2  C   UNL     1       4.561   6.166  17.122  0.00  0.00    +0.000 C 
ATOM      3  C   UNL     1       5.715   6.773  17.947  0.00  0.00    +0.000 C 
ATOM      4  N   UNL     1       7.050   6.740  17.351  0.00  0.00    +0.000 NA
ATOM      5  C   UNL     1       7.287   5.685  16.360  0.00  0.00    +0.000 C 
ATOM      6  C   UNL     1       6.075   4.972  15.716  0.00  0.00    +0.000 C 
ENDROOT
BRANCH   1   7
ATOM      7  C   UNL     1       4.788   3.705  17.394  0.00  0.00    +0.000 C 
BRANCH   7  13
ATOM      8  C   UNL     1       3.342   2.792  19.328  0.00  0.00    +0.000 A 
ATOM      9  C   UNL     1       2.174   2.809  20.112  0.00  0.00    +0.000 A 
ATOM     10  C   UNL     1       1.005   3.321  19.566  0.00  0.00    +0.000 A 
ATOM     11  C   UNL     1       1.027   3.824  18.267  0.00  0.00    +0.000 A 
ATOM     12  C   UNL     1       2.233   3.957  17.570  0.00  0.00    +0.000 A 
ATOM     13  C   UNL     1       3.447   3.501  18.109  0.00  0.00    +0.000 A 
BRANCH   8  15
ATOM     14  O   UNL     1       5.036   1.807  20.564  0.00  0.00    +0.000 OA
ATOM     15  N   UNL     1       4.254   1.683  19.613  0.00  0.00    +0.000 N 
ATOM     16  O   UNL     1       4.101   0.645  18.950  0.00  0.00    +0.000 OA
ENDBRANCH   8  15
ENDBRANCH   7  13
ENDBRANCH   1   7
BRANCH   4  17
ATOM     17  C   UNL     1       7.670   8.026  17.054  0.00  0.00    +0.000 C 
BRANCH  17  18
ATOM     18  C   UNL     1       8.378   8.669  18.261  0.00  0.00    +0.000 C 
BRANCH  18  19
ATOM     19  C   UNL     1       8.279  10.197  18.255  0.00  0.00    +0.000 C 
BRANCH  19  20
ATOM     20  C   UNL     1       9.566  10.843  18.704  0.00  0.00    +0.000 A 
ATOM     21  C   UNL     1      10.550  11.185  17.770  0.00  0.00    +0.000 A 
ATOM     22  C   UNL     1      11.740  11.792  18.178  0.00  0.00    +0.000 A 
ATOM     23  C   UNL     1      11.952  12.044  19.536  0.00  0.00    +0.000 A 
ATOM     24  C   UNL     1      10.976  11.709  20.471  0.00  0.00    +0.000 A 
ATOM     25  C   UNL     1       9.791  11.106  20.061  0.00  0.00    +0.000 A 
ENDBRANCH  19  20
ENDBRANCH  18  19
ENDBRANCH  17  18
ENDBRANCH   4  17
TORSDOF 7
ENDMDL
MODEL 6
REMARK VINA RESULT:      -7.6      1.311      1.745
REMARK  Name = 
REMARK  7 active torsions:
REMARK  status: ('A' for Active; 'I' for Inactive)
REMARK    1  A    between atoms: N_2  and  C_4
REMARK    2  A    between atoms: C_9  and  C_10
REMARK    3  A    between atoms: C_10  and  N_11
REMARK    4  A    between atoms: N_14  and  C_15
REMARK    5  A    between atoms: C_15  and  C_16
REMARK    6  A    between atoms: C_16  and  C_17
REMARK    7  A    between atoms: C_17  and  C_18
REMARK                            x       y       z     vdW  Elec       q    Type
REMARK                         _______ _______ _______ _____ _____    ______ ____
ROOT
ATOM      1  N   UNL     1       5.356   4.426  17.733  0.00  0.00    +0.000 NA
ATOM      2  C   UNL     1       4.835   5.778  17.488  0.00  0.00    +0.000 C 
ATOM      3  C   UNL     1       5.576   6.934  18.191  0.00  0.00    +0.000 C 
ATOM      4  N   UNL     1       7.038   6.914  18.147  0.00  0.00    +0.000 NA
ATOM      5  C   UNL     1       7.659   5.596  17.976  0.00  0.00    +0.000 C 
ATOM      6  C   UNL     1       6.798   4.422  17.455  0.00  0.00    +0.000 C 
ENDROOT
BRANCH   1   7
ATOM      7  C   UNL     1       5.007   3.849  19.049  0.00  0.00    +0.000 C 
BRANCH   7  13
ATOM      8  C   UNL     1       2.549   3.062  19.069  0.00  0.00    +0.000 A 
ATOM      9  C   UNL     1       1.255   3.061  19.623  0.00  0.00    +0.000 A 
ATOM     10  C   UNL     1       0.842   4.159  20.365  0.00  0.00    +0.000 A 
ATOM     11  C   UNL     1       1.725   5.218  20.559  0.00  0.00    +0.000 A 
ATOM     12  C   UNL     1       3.060   5.123  20.149  0.00  0.00    +0.000 A 
ATOM     13  C   UNL     1       3.534   4.006  19.442  0.00  0.00    +0.000 A 
BRANCH   8  15
ATOM     14  O   UNL     1       2.219   2.863  16.784  0.00  0.00    +0.000 OA
ATOM     15  N   UNL     1       2.673   2.332  17.806  0.00  0.00    +0.000 N 
ATOM     16  O   UNL     1       3.326   1.277  17.828  0.00  0.00    +0.000 OA
ENDBRANCH   8  15
ENDBRANCH   7  13
ENDBRANCH   1   7
BRANCH   4  17
ATOM     17  C   UNL     1       7.690   8.008  17.437  0.00  0.00    +0.000 C 
BRANCH  17  18
ATOM     18  C   UNL     1       8.378   9.028  18.363  0.00  0.00    +0.000 C 
BRANCH  18  19
ATOM     19  C   UNL     1       8.791  10.305  17.626  0.00  0.00    +0.000 C 
BRANCH  19  20
ATOM     20  C   UNL     1       9.800  11.103  18.413  0.00  0.00    +0.000 A 
ATOM     21  C   UNL     1       9.830  11.025  19.811  0.00  0.00    +0.000 A 
ATOM     22  C   UNL     1      10.768  11.756  20.545  0.00  0.00    +0.000 A 
ATOM     23  C   UNL     1      11.673  12.582  19.875  0.00  0.00    +0.000 A 
ATOM     24  C   UNL     1      11.651  12.662  18.485  0.00  0.00    +0.000 A 
ATOM     25  C   UNL     1      10.717  11.933  17.756  0.00  0.00    +0.000 A 
ENDBRANCH  19  20
ENDBRANCH  18  19
ENDBRANCH  17  18
ENDBRANCH   4  17
TORSDOF 7
ENDMDL
MODEL 7
REMARK VINA RESULT:      -7.5      2.090      2.645
REMARK  Name = 
REMARK  7 active torsions:
REMARK  status: ('A' for Active; 'I' for Inactive)
REMARK    1  A    between atoms: N_2  and  C_4
REMARK    2  A    between atoms: C_9  and  C_10
REMARK    3  A    between atoms: C_10  and  N_11
REMARK    4  A    between atoms: N_14  and  C_15
REMARK    5  A    between atoms: C_15  and  C_16
REMARK    6  A    between atoms: C_16  and  C_17
REMARK    7  A    between atoms: C_17  and  C_18
REMARK                            x       y       z     vdW  Elec       q    Type
REMARK                         _______ _______ _______ _____ _____    ______ ____
ROOT
ATOM      1  N   UNL     1       6.093   4.564  17.967  0.00  0.00    +0.000 NA
ATOM      2  C   UNL     1       5.586   5.664  17.137  0.00  0.00    +0.000 C 
ATOM      3  C   UNL     1       5.819   7.091  17.675  0.00  0.00    +0.000 C 
ATOM      4  N   UNL     1       7.149   7.396  18.205  0.00  0.00    +0.000 NA
ATOM      5  C   UNL     1       7.921   6.252  18.702  0.00  0.00    +0.000 C 
ATOM      6  C   UNL     1       7.505   4.824  18.281  0.00  0.00    +0.000 C 
ENDROOT
BRANCH   1   7
ATOM      7  C   UNL     1       5.273   4.247  19.157  0.00  0.00    +0.000 C 
BRANCH   7  13
ATOM      8  C   UNL     1       2.695   4.370  19.085  0.00  0.00    +0.000 A 
ATOM      9  C   UNL     1       1.452   3.951  18.578  0.00  0.00    +0.000 A 
ATOM     10  C   UNL     1       1.342   2.678  18.035  0.00  0.00    +0.000 A 
ATOM     11  C   UNL     1       2.469   1.862  17.987  0.00  0.00    +0.000 A 
ATOM     12  C   UNL     1       3.730   2.359  18.336  0.00  0.00    +0.000 A 
ATOM     13  C   UNL     1       3.893   3.660  18.839  0.00  0.00    +0.000 A 
BRANCH   8  15
ATOM     14  O   UNL     1       2.686   6.514  19.964  0.00  0.00    +0.000 OA
ATOM     15  N   UNL     1       2.613   5.303  20.210  0.00  0.00    +0.000 N 
ATOM     16  O   UNL     1       2.363   4.819  21.325  0.00  0.00    +0.000 OA
ENDBRANCH   8  15
ENDBRANCH   7  13
ENDBRANCH   1   7
BRANCH   4  17
ATOM     17  C   UNL     1       7.921   8.412  17.500  0.00  0.00    +0.000 C 
BRANCH  17  18
ATOM     18  C   UNL     1       8.648   9.399  18.432  0.00  0.00    +0.000 C 
BRANCH  18  19
ATOM     19  C   UNL     1       8.771  10.799  17.826  0.00  0.00    +0.000 C 
BRANCH  19  20
ATOM     20  C   UNL     1      10.005  11.514  18.315  0.00  0.00    +0.000 A 
ATOM     21  C   UNL     1      10.651  12.451  17.499  0.00  0.00    +0.000 A 
ATOM     22  C   UNL     1      11.789  13.124  17.949  0.00  0.00    +0.000 A 
ATOM     23  C   UNL     1      12.294  12.845  19.222  0.00  0.00    +0.000 A 
ATOM     24  C   UNL     1      11.656  11.917  20.040  0.00  0.00    +0.000 A 
ATOM     25  C   UNL     1      10.521  11.249  19.589  0.00  0.00    +0.000 A 
ENDBRANCH  19  20
ENDBRANCH  18  19
ENDBRANCH  17  18
ENDBRANCH   4  17
TORSDOF 7
ENDMDL
MODEL 8
REMARK VINA RESULT:      -7.4      1.146      1.246
REMARK  Name = 
REMARK  7 active torsions:
REMARK  status: ('A' for Active; 'I' for Inactive)
REMARK    1  A    between atoms: N_2  and  C_4
REMARK    2  A    between atoms: C_9  and  C_10
REMARK    3  A    between atoms: C_10  and  N_11
REMARK    4  A    between atoms: N_14  and  C_15
REMARK    5  A    between atoms: C_15  and  C_16
REMARK    6  A    between atoms: C_16  and  C_17
REMARK    7  A    between atoms: C_17  and  C_18
REMARK                            x       y       z     vdW  Elec       q    Type
REMARK                         _______ _______ _______ _____ _____    ______ ____
ROOT
ATOM      1  N   UNL     1       5.421   4.192  17.589  0.00  0.00    +0.000 NA
ATOM      2  C   UNL     1       6.282   4.436  16.425  0.00  0.00    +0.000 C 
ATOM      3  C   UNL     1       6.427   5.906  15.977  0.00  0.00    +0.000 C 
ATOM      4  N   UNL     1       6.655   6.903  17.023  0.00  0.00    +0.000 NA
ATOM      5  C   UNL     1       6.170   6.553  18.362  0.00  0.00    +0.000 C 
ATOM      6  C   UNL     1       5.849   5.075  18.683  0.00  0.00    +0.000 C 
ENDROOT
BRANCH   1   7
ATOM      7  C   UNL     1       3.968   4.252  17.317  0.00  0.00    +0.000 C 
BRANCH   7  13
ATOM      8  C   UNL     1       2.638   3.319  19.324  0.00  0.00    +0.000 A 
ATOM      9  C   UNL     1       2.051   3.467  20.594  0.00  0.00    +0.000 A 
ATOM     10  C   UNL     1       1.675   4.735  21.017  0.00  0.00    +0.000 A 
ATOM     11  C   UNL     1       1.910   5.825  20.183  0.00  0.00    +0.000 A 
ATOM     12  C   UNL     1       2.649   5.680  19.003  0.00  0.00    +0.000 A 
ATOM     13  C   UNL     1       3.095   4.422  18.566  0.00  0.00    +0.000 A 
BRANCH   8  15
ATOM     14  O   UNL     1       3.259   1.199  18.625  0.00  0.00    +0.000 OA
ATOM     15  N   UNL     1       2.354   2.043  18.665  0.00  0.00    +0.000 N 
ATOM     16  O   UNL     1       1.187   1.852  18.289  0.00  0.00    +0.000 OA
ENDBRANCH   8  15
ENDBRANCH   7  13
ENDBRANCH   1   7
BRANCH   4  17
ATOM     17  C   UNL     1       7.926   7.617  16.986  0.00  0.00    +0.000 C 
BRANCH  17  18
ATOM     18  C   UNL     1       8.225   8.423  18.263  0.00  0.00    +0.000 C 
BRANCH  18  19
ATOM     19  C   UNL     1       8.162   9.935  18.033  0.00  0.00    +0.000 C 
BRANCH  19  20
ATOM     20  C   UNL     1       9.334  10.646  18.661  0.00  0.00    +0.000 A 
ATOM     21  C   UNL     1      10.410  11.070  17.872  0.00  0.00    +0.000 A 
ATOM     22  C   UNL     1      11.495  11.737  18.446  0.00  0.00    +0.000 A 
ATOM     23  C   UNL     1      11.509  11.968  19.824  0.00  0.00    +0.000 A 
ATOM     24  C   UNL     1      10.441  11.552  20.615  0.00  0.00    +0.000 A 
ATOM     25  C   UNL     1       9.361  10.889  20.040  0.00  0.00    +0.000 A 
ENDBRANCH  19  20
ENDBRANCH  18  19
ENDBRANCH  17  18
ENDBRANCH   4  17
TORSDOF 7
ENDMDL
MODEL 9
REMARK VINA RESULT:      -7.4      5.266      7.675
REMARK  Name = 
REMARK  7 active torsions:
REMARK  status: ('A' for Active; 'I' for Inactive)
REMARK    1  A    between atoms: N_2  and  C_4
REMARK    2  A    between atoms: C_9  and  C_10
REMARK    3  A    between atoms: C_10  and  N_11
REMARK    4  A    between atoms: N_14  and  C_15
REMARK    5  A    between atoms: C_15  and  C_16
REMARK    6  A    between atoms: C_16  and  C_17
REMARK    7  A    between atoms: C_17  and  C_18
REMARK                            x       y       z     vdW  Elec       q    Type
REMARK                         _______ _______ _______ _____ _____    ______ ____
ROOT
ATOM      1  N   UNL     1       2.589   7.058  18.989  0.00  0.00    +0.000 NA
ATOM      2  C   UNL     1       2.783   8.120  17.994  0.00  0.00    +0.000 C 
ATOM      3  C   UNL     1       1.600   9.089  17.787  0.00  0.00    +0.000 C 
ATOM      4  N   UNL     1       0.939   9.601  18.988  0.00  0.00    +0.000 NA
ATOM      5  C   UNL     1       1.046   8.764  20.188  0.00  0.00    +0.000 C 
ATOM      6  C   UNL     1       2.135   7.668  20.246  0.00  0.00    +0.000 C 
ENDROOT
BRANCH   1   7
ATOM      7  C   UNL     1       1.744   5.928  18.543  0.00  0.00    +0.000 C 
BRANCH   7  13
ATOM      8  C   UNL     1       2.890   3.661  19.005  0.00  0.00    +0.000 A 
ATOM      9  C   UNL     1       3.237   2.605  19.867  0.00  0.00    +0.000 A 
ATOM     10  C   UNL     1       2.445   2.357  20.980  0.00  0.00    +0.000 A 
ATOM     11  C   UNL     1       1.345   3.175  21.224  0.00  0.00    +0.000 A 
ATOM     12  C   UNL     1       1.119   4.323  20.455  0.00  0.00    +0.000 A 
ATOM     13  C   UNL     1       1.929   4.639  19.352  0.00  0.00    +0.000 A 
BRANCH   8  15
ATOM     14  O   UNL     1       4.432   3.567  17.278  0.00  0.00    +0.000 OA
ATOM     15  N   UNL     1       3.243   3.446  17.601  0.00  0.00    +0.000 N 
ATOM     16  O   UNL     1       2.341   3.045  16.849  0.00  0.00    +0.000 OA
ENDBRANCH   8  15
ENDBRANCH   7  13
ENDBRANCH   1   7
BRANCH   4  17
ATOM     17  C   UNL     1       1.018  11.038  19.220  0.00  0.00    +0.000 C 
BRANCH  17  18
ATOM     18  C   UNL     1      -0.240  11.810  18.781  0.00  0.00    +0.000 C 
BRANCH  18  19
ATOM     19  C   UNL     1      -1.532  11.046  19.080  0.00  0.00    +0.000 C 
BRANCH  19  20
ATOM     20  C   UNL     1      -2.368  10.851  17.840  0.00  0.00    +0.000 A 
ATOM     21  C   UNL     1      -1.944   9.980  16.830  0.00  0.00    +0.000 A 
ATOM     22  C   UNL     1      -2.718   9.789  15.682  0.00  0.00    +0.000 A 
ATOM     23  C   UNL     1      -3.919  10.488  15.539  0.00  0.00    +0.000 A 
ATOM     24  C   UNL     1      -4.348  11.354  16.541  0.00  0.00    +0.000 A 
ATOM     25  C   UNL     1      -3.576  11.542  17.684  0.00  0.00    +0.000 A 
ENDBRANCH  19  20
ENDBRANCH  18  19
ENDBRANCH  17  18
ENDBRANCH   4  17
TORSDOF 7
ENDMDL
