MODEL 1
REMARK VINA RESULT:      -6.4      0.000      0.000
REMARK  Name = 
REMARK  7 active torsions:
REMARK  status: ('A' for Active; 'I' for Inactive)
REMARK    1  A    between atoms: C_1  and  C_2
REMARK    2  A    between atoms: C_4  and  N_5
REMARK    3  A    between atoms: N_5  and  N_6
REMARK    4  A    between atoms: N_6  and  C_7
REMARK    5  A    between atoms: N_6  and  C_8
REMARK    6  A    between atoms: C_9  and  C_10
REMARK    7  A    between atoms: C_18  and  C_19
REMARK                            x       y       z     vdW  Elec       q    Type
REMARK                         _______ _______ _______ _____ _____    ______ ____
ROOT
ATOM      1  C   UNL     1       0.523   3.294  19.430  0.00  0.00    +0.000 C 
ATOM      2  C   UNL     1       1.632   4.390  19.537  0.00  0.00    +0.000 C 
ATOM      3  C   UNL     1       1.570   5.084  18.222  0.00  0.00    +0.000 C 
ATOM      4  C   UNL     1       2.850   5.829  18.217  0.00  0.00    +0.000 C 
ATOM      5  C   UNL     1       3.933   4.718  18.633  0.00  0.00    +0.000 C 
ATOM      6  C   UNL     1       5.365   3.901  18.748  0.00  0.00    +0.000 C 
ATOM      7  N   UNL     1       6.619   4.213  18.295  0.00  0.00    +0.000 N 
ATOM      8  N   UNL     1       5.272   2.813  19.428  0.00  0.00    +0.000 NA
ATOM      9  C   UNL     1       3.948   2.711  19.629  0.00  0.00    +0.000 C 
ATOM     10  O   UNL     1       3.349   1.659  19.407  0.00  0.00    +0.000 OA
ATOM     11  C   UNL     1       3.334   4.097  20.038  0.00  0.00    +0.000 C 
ATOM     12  H   UNL     1       6.665   4.531  17.320  0.00  0.00    +0.000 HD
ATOM     13  H   UNL     1       7.288   3.460  18.441  0.00  0.00    +0.000 HD
ENDROOT
BRANCH   5  14
ATOM     14  C   UNL     1       4.864   5.836  17.898  0.00  0.00    +0.000 C 
ATOM     15  N   UNL     1       4.726   6.141  16.579  0.00  0.00    +0.000 N 
ATOM     16  O   UNL     1       5.726   6.455  18.533  0.00  0.00    +0.000 OA
ATOM     17  H   UNL     1       3.779   6.209  16.214  0.00  0.00    +0.000 HD
ATOM     18  H   UNL     1       5.324   6.922  16.312  0.00  0.00    +0.000 HD
ENDBRANCH   5  14
BRANCH   4  19
ATOM     19  N   UNL     1       2.772   7.027  19.134  0.00  0.00    +0.000 NA
ATOM     20  H   UNL     1       3.695   7.484  19.141  0.00  0.00    +0.000 HD
BRANCH  19  21
ATOM     21  N   UNL     1       1.754   8.022  18.712  0.00  0.00    +0.000 NA
ATOM     22  C   UNL     1       1.338   8.791  19.900  0.00  0.00    +0.000 C 
ATOM     23  C   UNL     1       2.267   8.962  17.702  0.00  0.00    +0.000 C 
ENDBRANCH  19  21
ENDBRANCH   4  19
BRANCH  11  24
ATOM     24  C   UNL     1       2.560   3.334  21.101  0.00  0.00    +0.000 C 
ATOM     25  N   UNL     1       1.918   2.701  21.983  0.00  0.00    +0.000 NA
ENDBRANCH  11  24
TORSDOF 4
ENDMDL
MODEL 2
REMARK VINA RESULT:      -6.2      2.101      5.504
REMARK  Name = 
REMARK  7 active torsions:
REMARK  status: ('A' for Active; 'I' for Inactive)
REMARK    1  A    between atoms: C_1  and  C_2
REMARK    2  A    between atoms: C_4  and  N_5
REMARK    3  A    between atoms: N_5  and  N_6
REMARK    4  A    between atoms: N_6  and  C_7
REMARK    5  A    between atoms: N_6  and  C_8
REMARK    6  A    between atoms: C_9  and  C_10
REMARK    7  A    between atoms: C_18  and  C_19
REMARK                            x       y       z     vdW  Elec       q    Type
REMARK                         _______ _______ _______ _____ _____    ______ ____
ROOT
ATOM      1  C   UNL     1       6.383   4.255  15.220  0.00  0.00    +0.000 C 
ATOM      2  C   UNL     1       5.888   4.349  16.699  0.00  0.00    +0.000 C 
ATOM      3  C   UNL     1       4.799   3.337  16.771  0.00  0.00    +0.000 C 
ATOM      4  C   UNL     1       4.120   3.718  18.031  0.00  0.00    +0.000 C 
ATOM      5  C   UNL     1       3.910   5.303  17.879  0.00  0.00    +0.000 C 
ATOM      6  C   UNL     1       3.258   6.814  18.042  0.00  0.00    +0.000 C 
ATOM      7  N   UNL     1       2.213   7.267  18.802  0.00  0.00    +0.000 N 
ATOM      8  N   UNL     1       3.890   7.711  17.371  0.00  0.00    +0.000 NA
ATOM      9  C   UNL     1       4.756   6.977  16.653  0.00  0.00    +0.000 C 
ATOM     10  O   UNL     1       4.886   7.148  15.441  0.00  0.00    +0.000 OA
ATOM     11  C   UNL     1       5.422   5.867  17.543  0.00  0.00    +0.000 C 
ATOM     12  H   UNL     1       1.358   6.701  18.751  0.00  0.00    +0.000 HD
ATOM     13  H   UNL     1       1.989   8.243  18.620  0.00  0.00    +0.000 HD
ENDROOT
BRANCH   5  14
ATOM     14  C   UNL     1       2.792   4.922  19.002  0.00  0.00    +0.000 C 
ATOM     15  N   UNL     1       1.661   4.229  18.693  0.00  0.00    +0.000 N 
ATOM     16  O   UNL     1       2.949   5.247  20.185  0.00  0.00    +0.000 OA
ATOM     17  H   UNL     1       1.756   3.451  18.045  0.00  0.00    +0.000 HD
ATOM     18  H   UNL     1       1.124   4.001  19.529  0.00  0.00    +0.000 HD
ENDBRANCH   5  14
BRANCH   4  19
ATOM     19  N   UNL     1       4.938   3.289  19.226  0.00  0.00    +0.000 NA
ATOM     20  H   UNL     1       4.782   3.974  19.981  0.00  0.00    +0.000 HD
BRANCH  19  21
ATOM     21  N   UNL     1       4.576   1.939  19.729  0.00  0.00    +0.000 NA
ATOM     22  C   UNL     1       3.907   2.097  21.035  0.00  0.00    +0.000 C 
ATOM     23  C   UNL     1       3.667   1.223  18.820  0.00  0.00    +0.000 C 
ENDBRANCH  19  21
ENDBRANCH   4  19
BRANCH  11  24
ATOM     24  C   UNL     1       6.736   6.264  16.889  0.00  0.00    +0.000 C 
ATOM     25  N   UNL     1       7.825   6.594  16.346  0.00  0.00    +0.000 NA
ENDBRANCH  11  24
TORSDOF 4
ENDMDL
MODEL 3
REMARK VINA RESULT:      -6.1      2.085      5.613
REMARK  Name = 
REMARK  7 active torsions:
REMARK  status: ('A' for Active; 'I' for Inactive)
REMARK    1  A    between atoms: C_1  and  C_2
REMARK    2  A    between atoms: C_4  and  N_5
REMARK    3  A    between atoms: N_5  and  N_6
REMARK    4  A    between atoms: N_6  and  C_7
REMARK    5  A    between atoms: N_6  and  C_8
REMARK    6  A    between atoms: C_9  and  C_10
REMARK    7  A    between atoms: C_18  and  C_19
REMARK                            x       y       z     vdW  Elec       q    Type
REMARK                         _______ _______ _______ _____ _____    ______ ____
ROOT
ATOM      1  C   UNL     1       6.329   4.231  15.172  0.00  0.00    +0.000 C 
ATOM      2  C   UNL     1       5.842   4.323  16.654  0.00  0.00    +0.000 C 
ATOM      3  C   UNL     1       4.735   3.330  16.723  0.00  0.00    +0.000 C 
ATOM      4  C   UNL     1       4.068   3.714  17.988  0.00  0.00    +0.000 C 
ATOM      5  C   UNL     1       3.885   5.303  17.849  0.00  0.00    +0.000 C 
ATOM      6  C   UNL     1       3.262   6.824  18.026  0.00  0.00    +0.000 C 
ATOM      7  N   UNL     1       2.228   7.291  18.794  0.00  0.00    +0.000 N 
ATOM      8  N   UNL     1       3.907   7.715  17.359  0.00  0.00    +0.000 NA
ATOM      9  C   UNL     1       4.757   6.971  16.633  0.00  0.00    +0.000 C 
ATOM     10  O   UNL     1       4.885   7.149  15.422  0.00  0.00    +0.000 OA
ATOM     11  C   UNL     1       5.407   5.842  17.511  0.00  0.00    +0.000 C 
ATOM     12  H   UNL     1       1.363   6.741  18.742  0.00  0.00    +0.000 HD
ATOM     13  H   UNL     1       2.021   8.271  18.620  0.00  0.00    +0.000 HD
ENDROOT
BRANCH   5  14
ATOM     14  C   UNL     1       2.765   4.934  18.974  0.00  0.00    +0.000 C 
ATOM     15  N   UNL     1       2.971   5.154  20.302  0.00  0.00    +0.000 N 
ATOM     16  O   UNL     1       1.676   4.449  18.645  0.00  0.00    +0.000 OA
ATOM     17  H   UNL     1       3.427   6.024  20.564  0.00  0.00    +0.000 HD
ATOM     18  H   UNL     1       2.135   4.950  20.847  0.00  0.00    +0.000 HD
ENDBRANCH   5  14
BRANCH   4  19
ATOM     19  N   UNL     1       4.882   3.261  19.177  0.00  0.00    +0.000 NA
ATOM     20  H   UNL     1       5.043   4.079  19.783  0.00  0.00    +0.000 HD
BRANCH  19  21
ATOM     21  N   UNL     1       4.213   2.204  19.977  0.00  0.00    +0.000 NA
ATOM     22  C   UNL     1       3.499   1.305  19.049  0.00  0.00    +0.000 C 
ATOM     23  C   UNL     1       5.163   1.404  20.766  0.00  0.00    +0.000 C 
ENDBRANCH  19  21
ENDBRANCH   4  19
BRANCH  11  24
ATOM     24  C   UNL     1       6.725   6.221  16.855  0.00  0.00    +0.000 C 
ATOM     25  N   UNL     1       7.818   6.535  16.311  0.00  0.00    +0.000 NA
ENDBRANCH  11  24
TORSDOF 4
ENDMDL
MODEL 4
REMARK VINA RESULT:      -5.9      2.357      4.424
REMARK  Name = 
REMARK  7 active torsions:
REMARK  status: ('A' for Active; 'I' for Inactive)
REMARK    1  A    between atoms: C_1  and  C_2
REMARK    2  A    between atoms: C_4  and  N_5
REMARK    3  A    between atoms: N_5  and  N_6
REMARK    4  A    between atoms: N_6  and  C_7
REMARK    5  A    between atoms: N_6  and  C_8
REMARK    6  A    between atoms: C_9  and  C_10
REMARK    7  A    between atoms: C_18  and  C_19
REMARK                            x       y       z     vdW  Elec       q    Type
REMARK                         _______ _______ _______ _____ _____    ______ ____
ROOT
ATOM      1  C   UNL     1       3.607   2.220  19.319  0.00  0.00    +0.000 C 
ATOM      2  C   UNL     1       3.729   3.172  18.085  0.00  0.00    +0.000 C 
ATOM      3  C   UNL     1       5.173   3.530  18.059  0.00  0.00    +0.000 C 
ATOM      4  C   UNL     1       5.174   4.697  17.146  0.00  0.00    +0.000 C 
ATOM      5  C   UNL     1       3.994   5.624  17.721  0.00  0.00    +0.000 C 
ATOM      6  C   UNL     1       3.108   6.968  18.098  0.00  0.00    +0.000 C 
ATOM      7  N   UNL     1       3.283   8.285  17.765  0.00  0.00    +0.000 N 
ATOM      8  N   UNL     1       2.049   6.700  18.776  0.00  0.00    +0.000 NA
ATOM      9  C   UNL     1       2.204   5.394  19.049  0.00  0.00    +0.000 C 
ATOM     10  O   UNL     1       2.056   4.958  20.190  0.00  0.00    +0.000 OA
ATOM     11  C   UNL     1       2.695   4.611  17.779  0.00  0.00    +0.000 C 
ATOM     12  H   UNL     1       4.234   8.647  17.899  0.00  0.00    +0.000 HD
ATOM     13  H   UNL     1       2.616   8.898  18.226  0.00  0.00    +0.000 HD
ENDROOT
BRANCH   5  14
ATOM     14  C   UNL     1       4.878   6.696  16.869  0.00  0.00    +0.000 C 
ATOM     15  N   UNL     1       6.031   7.234  17.354  0.00  0.00    +0.000 N 
ATOM     16  O   UNL     1       4.527   7.044  15.735  0.00  0.00    +0.000 OA
ATOM     17  H   UNL     1       6.660   6.611  17.855  0.00  0.00    +0.000 HD
ATOM     18  H   UNL     1       6.497   7.811  16.655  0.00  0.00    +0.000 HD
ENDBRANCH   5  14
BRANCH   4  19
ATOM     19  N   UNL     1       5.001   4.252  15.713  0.00  0.00    +0.000 NA
ATOM     20  H   UNL     1       4.597   5.037  15.182  0.00  0.00    +0.000 HD
BRANCH  19  21
ATOM     21  N   UNL     1       6.277   3.850  15.068  0.00  0.00    +0.000 NA
ATOM     22  C   UNL     1       6.066   3.817  13.608  0.00  0.00    +0.000 C 
ATOM     23  C   UNL     1       7.377   4.782  15.362  0.00  0.00    +0.000 C 
ENDBRANCH  19  21
ENDBRANCH   4  19
BRANCH  11  24
ATOM     24  C   UNL     1       1.662   3.557  18.146  0.00  0.00    +0.000 C 
ATOM     25  N   UNL     1       0.805   2.684  18.450  0.00  0.00    +0.000 NA
ENDBRANCH  11  24
TORSDOF 4
ENDMDL
MODEL 5
REMARK VINA RESULT:      -5.7      1.916      4.250
REMARK  Name = 
REMARK  7 active torsions:
REMARK  status: ('A' for Active; 'I' for Inactive)
REMARK    1  A    between atoms: C_1  and  C_2
REMARK    2  A    between atoms: C_4  and  N_5
REMARK    3  A    between atoms: N_5  and  N_6
REMARK    4  A    between atoms: N_6  and  C_7
REMARK    5  A    between atoms: N_6  and  C_8
REMARK    6  A    between atoms: C_9  and  C_10
REMARK    7  A    between atoms: C_18  and  C_19
REMARK                            x       y       z     vdW  Elec       q    Type
REMARK                         _______ _______ _______ _____ _____    ______ ____
ROOT
ATOM      1  C   UNL     1       1.611   6.080  17.587  0.00  0.00    +0.000 C 
ATOM      2  C   UNL     1       2.867   5.389  18.210  0.00  0.00    +0.000 C 
ATOM      3  C   UNL     1       3.098   4.215  17.324  0.00  0.00    +0.000 C 
ATOM      4  C   UNL     1       4.023   3.399  18.144  0.00  0.00    +0.000 C 
ATOM      5  C   UNL     1       3.308   3.354  19.582  0.00  0.00    +0.000 C 
ATOM      6  C   UNL     1       2.838   2.823  21.075  0.00  0.00    +0.000 C 
ATOM      7  N   UNL     1       3.215   1.724  21.801  0.00  0.00    +0.000 N 
ATOM      8  N   UNL     1       2.016   3.622  21.659  0.00  0.00    +0.000 NA
ATOM      9  C   UNL     1       1.744   4.513  20.692  0.00  0.00    +0.000 C 
ATOM     10  O   UNL     1       0.585   4.829  20.424  0.00  0.00    +0.000 OA
ATOM     11  C   UNL     1       3.055   4.944  19.942  0.00  0.00    +0.000 C 
ATOM     12  H   UNL     1       3.219   0.839  21.282  0.00  0.00    +0.000 HD
ATOM     13  H   UNL     1       2.677   1.616  22.658  0.00  0.00    +0.000 HD
ENDROOT
BRANCH   5  14
ATOM     14  C   UNL     1       4.293   2.058  19.656  0.00  0.00    +0.000 C 
ATOM     15  N   UNL     1       4.163   1.000  18.809  0.00  0.00    +0.000 N 
ATOM     16  O   UNL     1       5.206   2.005  20.488  0.00  0.00    +0.000 OA
ATOM     17  H   UNL     1       3.963   1.207  17.834  0.00  0.00    +0.000 HD
ATOM     18  H   UNL     1       4.916   0.325  18.937  0.00  0.00    +0.000 HD
ENDBRANCH   5  14
BRANCH   4  19
ATOM     19  N   UNL     1       5.410   3.996  18.134  0.00  0.00    +0.000 NA
ATOM     20  H   UNL     1       6.090   3.223  18.177  0.00  0.00    +0.000 HD
BRANCH  19  21
ATOM     21  N   UNL     1       5.690   4.806  16.921  0.00  0.00    +0.000 NA
ATOM     22  C   UNL     1       6.462   5.996  17.327  0.00  0.00    +0.000 C 
ATOM     23  C   UNL     1       6.466   4.065  15.913  0.00  0.00    +0.000 C 
ENDBRANCH  19  21
ENDBRANCH   4  19
BRANCH  11  24
ATOM     24  C   UNL     1       2.531   6.367  20.041  0.00  0.00    +0.000 C 
ATOM     25  N   UNL     1       2.096   7.548  20.123  0.00  0.00    +0.000 NA
ENDBRANCH  11  24
TORSDOF 4
ENDMDL
MODEL 6
REMARK VINA RESULT:      -5.7      2.921      4.555
REMARK  Name = 
REMARK  7 active torsions:
REMARK  status: ('A' for Active; 'I' for Inactive)
REMARK    1  A    between atoms: C_1  and  C_2
REMARK    2  A    between atoms: C_4  and  N_5
REMARK    3  A    between atoms: N_5  and  N_6
REMARK    4  A    between atoms: N_6  and  C_7
REMARK    5  A    between atoms: N_6  and  C_8
REMARK    6  A    between atoms: C_9  and  C_10
REMARK    7  A    between atoms: C_18  and  C_19
REMARK                            x       y       z     vdW  Elec       q    Type
REMARK                         _______ _______ _______ _____ _____    ______ ____
ROOT
ATOM      1  C   UNL     1       2.708   2.350  17.437  0.00  0.00    +0.000 C 
ATOM      2  C   UNL     1       3.671   3.418  16.825  0.00  0.00    +0.000 C 
ATOM      3  C   UNL     1       4.838   2.617  16.365  0.00  0.00    +0.000 C 
ATOM      4  C   UNL     1       5.858   3.670  16.154  0.00  0.00    +0.000 C 
ATOM      5  C   UNL     1       5.795   4.530  17.509  0.00  0.00    +0.000 C 
ATOM      6  C   UNL     1       6.261   5.493  18.770  0.00  0.00    +0.000 C 
ATOM      7  N   UNL     1       7.437   6.150  19.015  0.00  0.00    +0.000 N 
ATOM      8  N   UNL     1       5.324   5.687  19.630  0.00  0.00    +0.000 NA
ATOM      9  C   UNL     1       4.365   4.848  19.205  0.00  0.00    +0.000 C 
ATOM     10  O   UNL     1       3.801   4.079  19.982  0.00  0.00    +0.000 OA
ATOM     11  C   UNL     1       4.201   4.928  17.645  0.00  0.00    +0.000 C 
ATOM     12  H   UNL     1       8.287   5.588  18.888  0.00  0.00    +0.000 HD
ATOM     13  H   UNL     1       7.456   6.595  19.929  0.00  0.00    +0.000 HD
ENDROOT
BRANCH   5  14
ATOM     14  C   UNL     1       7.273   4.910  16.939  0.00  0.00    +0.000 C 
ATOM     15  N   UNL     1       7.518   6.075  16.278  0.00  0.00    +0.000 N 
ATOM     16  O   UNL     1       8.230   4.145  17.105  0.00  0.00    +0.000 OA
ATOM     17  H   UNL     1       7.078   6.917  16.641  0.00  0.00    +0.000 HD
ATOM     18  H   UNL     1       8.510   6.188  16.075  0.00  0.00    +0.000 HD
ENDBRANCH   5  14
BRANCH   4  19
ATOM     19  N   UNL     1       5.571   4.443  14.888  0.00  0.00    +0.000 NA
ATOM     20  H   UNL     1       5.850   5.423  15.043  0.00  0.00    +0.000 HD
BRANCH  19  21
ATOM     21  N   UNL     1       6.305   3.923  13.706  0.00  0.00    +0.000 NA
ATOM     22  C   UNL     1       5.319   3.581  12.664  0.00  0.00    +0.000 C 
ATOM     23  C   UNL     1       7.252   4.904  13.152  0.00  0.00    +0.000 C 
ENDBRANCH  19  21
ENDBRANCH   4  19
BRANCH  11  24
ATOM     24  C   UNL     1       2.702   4.945  17.899  0.00  0.00    +0.000 C 
ATOM     25  N   UNL     1       1.459   4.959  18.109  0.00  0.00    +0.000 NA
ENDBRANCH  11  24
TORSDOF 4
ENDMDL
MODEL 7
REMARK VINA RESULT:      -5.5      2.088      3.646
REMARK  Name = 
REMARK  7 active torsions:
REMARK  status: ('A' for Active; 'I' for Inactive)
REMARK    1  A    between atoms: C_1  and  C_2
REMARK    2  A    between atoms: C_4  and  N_5
REMARK    3  A    between atoms: N_5  and  N_6
REMARK    4  A    between atoms: N_6  and  C_7
REMARK    5  A    between atoms: N_6  and  C_8
REMARK    6  A    between atoms: C_9  and  C_10
REMARK    7  A    between atoms: C_18  and  C_19
REMARK                            x       y       z     vdW  Elec       q    Type
REMARK                         _______ _______ _______ _____ _____    ______ ____
ROOT
ATOM      1  C   UNL     1       1.654   7.624  17.866  0.00  0.00    +0.000 C 
ATOM      2  C   UNL     1       3.078   7.139  18.292  0.00  0.00    +0.000 C 
ATOM      3  C   UNL     1       3.742   6.821  16.998  0.00  0.00    +0.000 C 
ATOM      4  C   UNL     1       4.906   6.024  17.450  0.00  0.00    +0.000 C 
ATOM      5  C   UNL     1       4.259   4.949  18.453  0.00  0.00    +0.000 C 
ATOM      6  C   UNL     1       4.024   3.549  19.301  0.00  0.00    +0.000 C 
ATOM      7  N   UNL     1       4.791   2.419  19.405  0.00  0.00    +0.000 N 
ATOM      8  N   UNL     1       2.957   3.568  20.019  0.00  0.00    +0.000 NA
ATOM      9  C   UNL     1       2.368   4.710  19.630  0.00  0.00    +0.000 C 
ATOM     10  O   UNL     1       1.177   4.740  19.320  0.00  0.00    +0.000 OA
ATOM     11  C   UNL     1       3.416   5.875  19.525  0.00  0.00    +0.000 C 
ATOM     12  H   UNL     1       5.135   2.041  18.515  0.00  0.00    +0.000 HD
ATOM     13  H   UNL     1       4.333   1.682  19.936  0.00  0.00    +0.000 HD
ENDROOT
BRANCH   5  14
ATOM     14  C   UNL     1       5.665   4.229  18.051  0.00  0.00    +0.000 C 
ATOM     15  N   UNL     1       5.834   3.580  16.866  0.00  0.00    +0.000 N 
ATOM     16  O   UNL     1       6.635   4.265  18.818  0.00  0.00    +0.000 OA
ATOM     17  H   UNL     1       5.437   4.015  16.037  0.00  0.00    +0.000 HD
ATOM     18  H   UNL     1       6.797   3.271  16.744  0.00  0.00    +0.000 HD
ENDBRANCH   5  14
BRANCH   4  19
ATOM     19  N   UNL     1       5.960   6.919  18.058  0.00  0.00    +0.000 NA
ATOM     20  H   UNL     1       6.526   6.351  18.705  0.00  0.00    +0.000 HD
BRANCH  19  21
ATOM     21  N   UNL     1       6.864   7.529  17.049  0.00  0.00    +0.000 NA
ATOM     22  C   UNL     1       7.901   8.298  17.763  0.00  0.00    +0.000 C 
ATOM     23  C   UNL     1       7.525   6.524  16.202  0.00  0.00    +0.000 C 
ENDBRANCH  19  21
ENDBRANCH   4  19
BRANCH  11  24
ATOM     24  C   UNL     1       2.387   6.739  20.237  0.00  0.00    +0.000 C 
ATOM     25  N   UNL     1       1.533   7.454  20.828  0.00  0.00    +0.000 NA
ENDBRANCH  11  24
TORSDOF 4
ENDMDL
MODEL 8
REMARK VINA RESULT:      -5.3      2.007      4.098
REMARK  Name = 
REMARK  7 active torsions:
REMARK  status: ('A' for Active; 'I' for Inactive)
REMARK    1  A    between atoms: C_1  and  C_2
REMARK    2  A    between atoms: C_4  and  N_5
REMARK    3  A    between atoms: N_5  and  N_6
REMARK    4  A    between atoms: N_6  and  C_7
REMARK    5  A    between atoms: N_6  and  C_8
REMARK    6  A    between atoms: C_9  and  C_10
REMARK    7  A    between atoms: C_18  and  C_19
REMARK                            x       y       z     vdW  Elec       q    Type
REMARK                         _______ _______ _______ _____ _____    ______ ____
ROOT
ATOM      1  C   UNL     1       1.626   7.589  18.084  0.00  0.00    +0.000 C 
ATOM      2  C   UNL     1       2.867   6.813  18.632  0.00  0.00    +0.000 C 
ATOM      3  C   UNL     1       3.324   6.011  17.464  0.00  0.00    +0.000 C 
ATOM      4  C   UNL     1       4.228   5.031  18.110  0.00  0.00    +0.000 C 
ATOM      5  C   UNL     1       3.359   4.473  19.340  0.00  0.00    +0.000 C 
ATOM      6  C   UNL     1       2.776   3.454  20.504  0.00  0.00    +0.000 C 
ATOM      7  N   UNL     1       3.181   2.204  20.892  0.00  0.00    +0.000 N 
ATOM      8  N   UNL     1       1.811   3.964  21.184  0.00  0.00    +0.000 NA
ATOM      9  C   UNL     1       1.561   5.103  20.520  0.00  0.00    +0.000 C 
ATOM     10  O   UNL     1       0.415   5.416  20.199  0.00  0.00    +0.000 OA
ATOM     11  C   UNL     1       2.897   5.838  20.142  0.00  0.00    +0.000 C 
ATOM     12  H   UNL     1       3.340   1.539  20.126  0.00  0.00    +0.000 HD
ATOM     13  H   UNL     1       2.561   1.788  21.583  0.00  0.00    +0.000 HD
ENDROOT
BRANCH   5  14
ATOM     14  C   UNL     1       4.461   3.289  19.143  0.00  0.00    +0.000 C 
ATOM     15  N   UNL     1       4.400   2.407  18.107  0.00  0.00    +0.000 N 
ATOM     16  O   UNL     1       5.403   3.165  19.935  0.00  0.00    +0.000 OA
ATOM     17  H   UNL     1       4.149   2.779  17.195  0.00  0.00    +0.000 HD
ATOM     18  H   UNL     1       5.216   1.796  18.089  0.00  0.00    +0.000 HD
ENDBRANCH   5  14
BRANCH   4  19
ATOM     19  N   UNL     1       5.536   5.685  18.491  0.00  0.00    +0.000 NA
ATOM     20  H   UNL     1       6.000   5.086  19.190  0.00  0.00    +0.000 HD
BRANCH  19  21
ATOM     21  N   UNL     1       6.455   5.867  17.339  0.00  0.00    +0.000 NA
ATOM     22  C   UNL     1       7.424   6.926  17.684  0.00  0.00    +0.000 C 
ATOM     23  C   UNL     1       7.199   4.641  17.010  0.00  0.00    +0.000 C 
ENDBRANCH  19  21
ENDBRANCH   4  19
BRANCH  11  24
ATOM     24  C   UNL     1       2.216   7.115  20.609  0.00  0.00    +0.000 C 
ATOM     25  N   UNL     1       1.651   8.174  20.995  0.00  0.00    +0.000 NA
ENDBRANCH  11  24
TORSDOF 4
ENDMDL
MODEL 9
REMARK VINA RESULT:      -5.2      2.162      5.070
REMARK  Name = 
REMARK  7 active torsions:
REMARK  status: ('A' for Active; 'I' for Inactive)
REMARK    1  A    between atoms: C_1  and  C_2
REMARK    2  A    between atoms: C_4  and  N_5
REMARK    3  A    between atoms: N_5  and  N_6
REMARK    4  A    between atoms: N_6  and  C_7
REMARK    5  A    between atoms: N_6  and  C_8
REMARK    6  A    between atoms: C_9  and  C_10
REMARK    7  A    between atoms: C_18  and  C_19
REMARK                            x       y       z     vdW  Elec       q    Type
REMARK                         _______ _______ _______ _____ _____    ______ ____
ROOT
ATOM      1  C   UNL     1       5.645   3.142  15.529  0.00  0.00    +0.000 C 
ATOM      2  C   UNL     1       5.081   3.663  16.890  0.00  0.00    +0.000 C 
ATOM      3  C   UNL     1       3.639   3.298  16.837  0.00  0.00    +0.000 C 
ATOM      4  C   UNL     1       3.081   4.126  17.931  0.00  0.00    +0.000 C 
ATOM      5  C   UNL     1       3.683   5.587  17.641  0.00  0.00    +0.000 C 
ATOM      6  C   UNL     1       3.829   7.233  17.589  0.00  0.00    +0.000 C 
ATOM      7  N   UNL     1       3.049   8.224  18.124  0.00  0.00    +0.000 N 
ATOM      8  N   UNL     1       4.892   7.626  16.981  0.00  0.00    +0.000 NA
ATOM      9  C   UNL     1       5.376   6.480  16.476  0.00  0.00    +0.000 C 
ATOM     10  O   UNL     1       5.718   6.397  15.297  0.00  0.00    +0.000 OA
ATOM     11  C   UNL     1       5.308   5.325  17.538  0.00  0.00    +0.000 C 
ATOM     12  H   UNL     1       2.041   8.122  17.962  0.00  0.00    +0.000 HD
ATOM     13  H   UNL     1       3.349   9.154  17.842  0.00  0.00    +0.000 HD
ENDROOT
BRANCH   5  14
ATOM     14  C   UNL     1       2.393   5.934  18.574  0.00  0.00    +0.000 C 
ATOM     15  N   UNL     1       2.514   6.227  19.899  0.00  0.00    +0.000 N 
ATOM     16  O   UNL     1       1.254   5.954  18.094  0.00  0.00    +0.000 OA
ATOM     17  H   UNL     1       3.291   6.823  20.174  0.00  0.00    +0.000 HD
ATOM     18  H   UNL     1       1.621   6.507  20.302  0.00  0.00    +0.000 HD
ENDBRANCH   5  14
BRANCH   4  19
ATOM     19  N   UNL     1       3.437   3.538  19.276  0.00  0.00    +0.000 NA
ATOM     20  H   UNL     1       3.974   4.245  19.800  0.00  0.00    +0.000 HD
BRANCH  19  21
ATOM     21  N   UNL     1       2.248   3.156  20.081  0.00  0.00    +0.000 NA
ATOM     22  C   UNL     1       1.577   2.028  19.405  0.00  0.00    +0.000 C 
ATOM     23  C   UNL     1       2.600   2.741  21.448  0.00  0.00    +0.000 C 
ENDBRANCH  19  21
ENDBRANCH   4  19
BRANCH  11  24
ATOM     24  C   UNL     1       6.719   4.966  17.099  0.00  0.00    +0.000 C 
ATOM     25  N   UNL     1       7.888   4.669  16.735  0.00  0.00    +0.000 NA
ENDBRANCH  11  24
TORSDOF 4
ENDMDL
