MODEL 1
REMARK VINA RESULT:      -8.0      0.000      0.000
REMARK  Name = 
REMARK  8 active torsions:
REMARK  status: ('A' for Active; 'I' for Inactive)
REMARK    1  A    between atoms: C_2  and  C_4
REMARK    2  A    between atoms: C_4  and  C_5
REMARK    3  A    between atoms: C_4  and  N_12
REMARK    4  A    between atoms: C_5  and  C_6
REMARK    5  A    between atoms: C_13  and  C_15
REMARK    6  A    between atoms: C_15  and  N_16
REMARK    7  A    between atoms: C_15  and  C_17
REMARK    8  A    between atoms: C_17  and  C_18
REMARK                            x       y       z     vdW  Elec       q    Type
REMARK                         _______ _______ _______ _____ _____    ______ ____
ROOT
ATOM      1  N   UNL     1       4.772   4.086  18.151  0.00  0.00    +0.000 N 
ATOM      2  C   UNL     1       5.963   4.761  18.301  0.00  0.00    +0.000 C 
ATOM      3  O   UNL     1       6.440   5.012  19.406  0.00  0.00    +0.000 OA
ATOM      4  H   UNL     1       4.504   3.746  17.238  0.00  0.00    +0.000 HD
ENDROOT
BRANCH   1   5
ATOM      5  C   UNL     1       3.962   3.669  19.295  0.00  0.00    +0.000 C 
BRANCH   5   7
ATOM      6  N   UNL     1       5.095   1.704  20.216  0.00  0.00    +0.000 N 
ATOM      7  C   UNL     1       4.073   2.140  19.416  0.00  0.00    +0.000 C 
ATOM      8  O   UNL     1       3.382   1.346  18.785  0.00  0.00    +0.000 OA
ATOM      9  H   UNL     1       5.288   0.712  20.215  0.00  0.00    +0.000 HD
ATOM     10  H   UNL     1       5.872   2.335  20.411  0.00  0.00    +0.000 HD
ENDBRANCH   5   7
BRANCH   5  11
ATOM     11  C   UNL     1       2.491   4.076  19.122  0.00  0.00    +0.000 C 
BRANCH  11  12
ATOM     12  C   UNL     1       2.251   5.560  19.303  0.00  0.00    +0.000 A 
ATOM     13  C   UNL     1       1.809   6.064  20.534  0.00  0.00    +0.000 A 
ATOM     14  C   UNL     1       1.588   7.432  20.703  0.00  0.00    +0.000 A 
ATOM     15  C   UNL     1       1.809   8.311  19.645  0.00  0.00    +0.000 A 
ATOM     16  C   UNL     1       2.258   7.826  18.420  0.00  0.00    +0.000 A 
ATOM     17  C   UNL     1       2.484   6.458  18.251  0.00  0.00    +0.000 A 
ENDBRANCH  11  12
ENDBRANCH   5  11
ENDBRANCH   1   5
BRANCH   2  18
ATOM     18  C   UNL     1       6.679   5.106  16.976  0.00  0.00    +0.000 C 
BRANCH  18  19
ATOM     19  N   UNL     1       7.759   4.120  16.753  0.00  0.00    +0.000 NA
ATOM     20  H   UNL     1       7.819   3.463  17.524  0.00  0.00    +0.000 HD
ATOM     21  H   UNL     1       8.653   4.612  16.712  0.00  0.00    +0.000 HD
ENDBRANCH  18  19
BRANCH  18  22
ATOM     22  C   UNL     1       5.652   5.167  15.827  0.00  0.00    +0.000 C 
BRANCH  22  23
ATOM     23  C   UNL     1       6.199   4.784  14.471  0.00  0.00    +0.000 A 
ATOM     24  C   UNL     1       7.357   5.402  13.977  0.00  0.00    +0.000 A 
ATOM     25  C   UNL     1       7.875   5.050  12.730  0.00  0.00    +0.000 A 
ATOM     26  C   UNL     1       7.239   4.073  11.964  0.00  0.00    +0.000 A 
ATOM     27  C   UNL     1       6.085   3.457  12.443  0.00  0.00    +0.000 A 
ATOM     28  C   UNL     1       5.565   3.810  13.689  0.00  0.00    +0.000 A 
ENDBRANCH  22  23
ENDBRANCH  18  22
ENDBRANCH   2  18
TORSDOF 8
ENDMDL
MODEL 2
REMARK VINA RESULT:      -7.8      0.756      1.361
REMARK  Name = 
REMARK  8 active torsions:
REMARK  status: ('A' for Active; 'I' for Inactive)
REMARK    1  A    between atoms: C_2  and  C_4
REMARK    2  A    between atoms: C_4  and  C_5
REMARK    3  A    between atoms: C_4  and  N_12
REMARK    4  A    between atoms: C_5  and  C_6
REMARK    5  A    between atoms: C_13  and  C_15
REMARK    6  A    between atoms: C_15  and  N_16
REMARK    7  A    between atoms: C_15  and  C_17
REMARK    8  A    between atoms: C_17  and  C_18
REMARK                            x       y       z     vdW  Elec       q    Type
REMARK                         _______ _______ _______ _____ _____    ______ ____
ROOT
ATOM      1  N   UNL     1       5.517   3.876  18.517  0.00  0.00    +0.000 N 
ATOM      2  C   UNL     1       6.224   5.015  18.829  0.00  0.00    +0.000 C 
ATOM      3  O   UNL     1       5.933   5.727  19.789  0.00  0.00    +0.000 OA
ATOM      4  H   UNL     1       5.889   3.228  17.837  0.00  0.00    +0.000 HD
ENDROOT
BRANCH   1   5
ATOM      5  C   UNL     1       4.334   3.461  19.272  0.00  0.00    +0.000 C 
BRANCH   5   7
ATOM      6  N   UNL     1       5.243   1.438  20.306  0.00  0.00    +0.000 N 
ATOM      7  C   UNL     1       4.360   1.928  19.381  0.00  0.00    +0.000 C 
ATOM      8  O   UNL     1       3.730   1.173  18.648  0.00  0.00    +0.000 OA
ATOM      9  H   UNL     1       5.391   0.438  20.315  0.00  0.00    +0.000 HD
ATOM     10  H   UNL     1       6.012   2.031  20.617  0.00  0.00    +0.000 HD
ENDBRANCH   5   7
BRANCH   5  11
ATOM     11  C   UNL     1       3.038   3.916  18.583  0.00  0.00    +0.000 C 
BRANCH  11  12
ATOM     12  C   UNL     1       2.660   5.348  18.894  0.00  0.00    +0.000 A 
ATOM     13  C   UNL     1       2.147   5.691  20.153  0.00  0.00    +0.000 A 
ATOM     14  C   UNL     1       1.798   7.012  20.442  0.00  0.00    +0.000 A 
ATOM     15  C   UNL     1       1.962   8.004  19.478  0.00  0.00    +0.000 A 
ATOM     16  C   UNL     1       2.480   7.680  18.228  0.00  0.00    +0.000 A 
ATOM     17  C   UNL     1       2.834   6.360  17.938  0.00  0.00    +0.000 A 
ENDBRANCH  11  12
ENDBRANCH   5  11
ENDBRANCH   1   5
BRANCH   2  18
ATOM     18  C   UNL     1       7.449   5.279  17.925  0.00  0.00    +0.000 C 
BRANCH  18  19
ATOM     19  N   UNL     1       8.060   3.981  17.567  0.00  0.00    +0.000 NA
ATOM     20  H   UNL     1       7.350   3.266  17.436  0.00  0.00    +0.000 HD
ATOM     21  H   UNL     1       8.654   3.671  18.337  0.00  0.00    +0.000 HD
ENDBRANCH  18  19
BRANCH  18  22
ATOM     22  C   UNL     1       7.026   6.120  16.702  0.00  0.00    +0.000 C 
BRANCH  22  23
ATOM     23  C   UNL     1       6.657   5.313  15.479  0.00  0.00    +0.000 A 
ATOM     24  C   UNL     1       5.408   4.680  15.402  0.00  0.00    +0.000 A 
ATOM     25  C   UNL     1       5.055   3.938  14.273  0.00  0.00    +0.000 A 
ATOM     26  C   UNL     1       5.948   3.826  13.208  0.00  0.00    +0.000 A 
ATOM     27  C   UNL     1       7.193   4.447  13.276  0.00  0.00    +0.000 A 
ATOM     28  C   UNL     1       7.549   5.187  14.406  0.00  0.00    +0.000 A 
ENDBRANCH  22  23
ENDBRANCH  18  22
ENDBRANCH   2  18
TORSDOF 8
ENDMDL
MODEL 3
REMARK VINA RESULT:      -7.8      0.729      1.240
REMARK  Name = 
REMARK  8 active torsions:
REMARK  status: ('A' for Active; 'I' for Inactive)
REMARK    1  A    between atoms: C_2  and  C_4
REMARK    2  A    between atoms: C_4  and  C_5
REMARK    3  A    between atoms: C_4  and  N_12
REMARK    4  A    between atoms: C_5  and  C_6
REMARK    5  A    between atoms: C_13  and  C_15
REMARK    6  A    between atoms: C_15  and  N_16
REMARK    7  A    between atoms: C_15  and  C_17
REMARK    8  A    between atoms: C_17  and  C_18
REMARK                            x       y       z     vdW  Elec       q    Type
REMARK                         _______ _______ _______ _____ _____    ______ ____
ROOT
ATOM      1  N   UNL     1       4.808   4.232  18.293  0.00  0.00    +0.000 N 
ATOM      2  C   UNL     1       6.110   4.678  18.331  0.00  0.00    +0.000 C 
ATOM      3  O   UNL     1       6.737   4.789  19.383  0.00  0.00    +0.000 OA
ATOM      4  H   UNL     1       4.390   3.987  17.407  0.00  0.00    +0.000 HD
ENDROOT
BRANCH   1   5
ATOM      5  C   UNL     1       4.058   3.912  19.509  0.00  0.00    +0.000 C 
BRANCH   5   7
ATOM      6  N   UNL     1       3.479   1.599  18.957  0.00  0.00    +0.000 N 
ATOM      7  C   UNL     1       4.220   2.407  19.777  0.00  0.00    +0.000 C 
ATOM      8  O   UNL     1       4.873   1.937  20.704  0.00  0.00    +0.000 OA
ATOM      9  H   UNL     1       3.450   0.615  19.185  0.00  0.00    +0.000 HD
ATOM     10  H   UNL     1       2.674   1.994  18.472  0.00  0.00    +0.000 HD
ENDBRANCH   5   7
BRANCH   5  11
ATOM     11  C   UNL     1       2.570   4.262  19.359  0.00  0.00    +0.000 C 
BRANCH  11  12
ATOM     12  C   UNL     1       2.296   5.750  19.366  0.00  0.00    +0.000 A 
ATOM     13  C   UNL     1       1.867   6.389  20.537  0.00  0.00    +0.000 A 
ATOM     14  C   UNL     1       1.614   7.763  20.545  0.00  0.00    +0.000 A 
ATOM     15  C   UNL     1       1.793   8.512  19.384  0.00  0.00    +0.000 A 
ATOM     16  C   UNL     1       2.229   7.892  18.217  0.00  0.00    +0.000 A 
ATOM     17  C   UNL     1       2.485   6.520  18.208  0.00  0.00    +0.000 A 
ENDBRANCH  11  12
ENDBRANCH   5  11
ENDBRANCH   1   5
BRANCH   2  18
ATOM     18  C   UNL     1       6.737   4.951  16.945  0.00  0.00    +0.000 C 
BRANCH  18  19
ATOM     19  N   UNL     1       7.971   4.146  16.817  0.00  0.00    +0.000 NA
ATOM     20  H   UNL     1       8.597   4.309  17.601  0.00  0.00    +0.000 HD
ATOM     21  H   UNL     1       8.470   4.435  15.975  0.00  0.00    +0.000 HD
ENDBRANCH  18  19
BRANCH  18  22
ATOM     22  C   UNL     1       5.700   4.671  15.837  0.00  0.00    +0.000 C 
BRANCH  22  23
ATOM     23  C   UNL     1       6.280   4.540  14.448  0.00  0.00    +0.000 A 
ATOM     24  C   UNL     1       5.739   3.619  13.541  0.00  0.00    +0.000 A 
ATOM     25  C   UNL     1       6.263   3.496  12.253  0.00  0.00    +0.000 A 
ATOM     26  C   UNL     1       7.333   4.298  11.859  0.00  0.00    +0.000 A 
ATOM     27  C   UNL     1       7.882   5.213  12.754  0.00  0.00    +0.000 A 
ATOM     28  C   UNL     1       7.361   5.335  14.044  0.00  0.00    +0.000 A 
ENDBRANCH  22  23
ENDBRANCH  18  22
ENDBRANCH   2  18
TORSDOF 8
ENDMDL
MODEL 4
REMARK VINA RESULT:      -7.7      5.099      6.742
REMARK  Name = 
REMARK  8 active torsions:
REMARK  status: ('A' for Active; 'I' for Inactive)
REMARK    1  A    between atoms: C_2  and  C_4
REMARK    2  A    between atoms: C_4  and  C_5
REMARK    3  A    between atoms: C_4  and  N_12
REMARK    4  A    between atoms: C_5  and  C_6
REMARK    5  A    between atoms: C_13  and  C_15
REMARK    6  A    between atoms: C_15  and  N_16
REMARK    7  A    between atoms: C_15  and  C_17
REMARK    8  A    between atoms: C_17  and  C_18
REMARK                            x       y       z     vdW  Elec       q    Type
REMARK                         _______ _______ _______ _____ _____    ______ ____
ROOT
ATOM      1  N   UNL     1       6.942   7.559  17.155  0.00  0.00    +0.000 N 
ATOM      2  C   UNL     1       7.934   7.901  18.047  0.00  0.00    +0.000 C 
ATOM      3  O   UNL     1       8.403   7.095  18.848  0.00  0.00    +0.000 OA
ATOM      4  H   UNL     1       6.710   8.191  16.401  0.00  0.00    +0.000 HD
ENDROOT
BRANCH   1   5
ATOM      5  C   UNL     1       6.336   6.228  17.135  0.00  0.00    +0.000 C 
BRANCH   5   7
ATOM      6  N   UNL     1       7.882   4.330  17.120  0.00  0.00    +0.000 N 
ATOM      7  C   UNL     1       7.279   5.295  16.358  0.00  0.00    +0.000 C 
ATOM      8  O   UNL     1       7.566   5.435  15.173  0.00  0.00    +0.000 OA
ATOM      9  H   UNL     1       8.609   3.783  16.679  0.00  0.00    +0.000 HD
ATOM     10  H   UNL     1       7.939   4.462  18.129  0.00  0.00    +0.000 HD
ENDBRANCH   5   7
BRANCH   5  11
ATOM     11  C   UNL     1       4.952   6.249  16.469  0.00  0.00    +0.000 C 
BRANCH  11  12
ATOM     12  C   UNL     1       3.945   5.340  17.141  0.00  0.00    +0.000 A 
ATOM     13  C   UNL     1       3.939   3.964  16.874  0.00  0.00    +0.000 A 
ATOM     14  C   UNL     1       3.011   3.124  17.493  0.00  0.00    +0.000 A 
ATOM     15  C   UNL     1       2.083   3.650  18.390  0.00  0.00    +0.000 A 
ATOM     16  C   UNL     1       2.084   5.013  18.672  0.00  0.00    +0.000 A 
ATOM     17  C   UNL     1       3.014   5.854  18.057  0.00  0.00    +0.000 A 
ENDBRANCH  11  12
ENDBRANCH   5  11
ENDBRANCH   1   5
BRANCH   2  18
ATOM     18  C   UNL     1       8.456   9.349  17.905  0.00  0.00    +0.000 C 
BRANCH  18  19
ATOM     19  N   UNL     1       7.332  10.217  17.488  0.00  0.00    +0.000 NA
ATOM     20  H   UNL     1       7.266  10.269  16.476  0.00  0.00    +0.000 HD
ATOM     21  H   UNL     1       7.505  11.166  17.823  0.00  0.00    +0.000 HD
ENDBRANCH  18  19
BRANCH  18  22
ATOM     22  C   UNL     1       9.125   9.796  19.221  0.00  0.00    +0.000 C 
BRANCH  22  23
ATOM     23  C   UNL     1      10.102  10.939  19.075  0.00  0.00    +0.000 A 
ATOM     24  C   UNL     1      10.569  11.617  20.210  0.00  0.00    +0.000 A 
ATOM     25  C   UNL     1      11.478  12.670  20.086  0.00  0.00    +0.000 A 
ATOM     26  C   UNL     1      11.930  13.053  18.824  0.00  0.00    +0.000 A 
ATOM     27  C   UNL     1      11.468  12.390  17.690  0.00  0.00    +0.000 A 
ATOM     28  C   UNL     1      10.557  11.339  17.811  0.00  0.00    +0.000 A 
ENDBRANCH  22  23
ENDBRANCH  18  22
ENDBRANCH   2  18
TORSDOF 8
ENDMDL
MODEL 5
REMARK VINA RESULT:      -7.6      1.418      6.961
REMARK  Name = 
REMARK  8 active torsions:
REMARK  status: ('A' for Active; 'I' for Inactive)
REMARK    1  A    between atoms: C_2  and  C_4
REMARK    2  A    between atoms: C_4  and  C_5
REMARK    3  A    between atoms: C_4  and  N_12
REMARK    4  A    between atoms: C_5  and  C_6
REMARK    5  A    between atoms: C_13  and  C_15
REMARK    6  A    between atoms: C_15  and  N_16
REMARK    7  A    between atoms: C_15  and  C_17
REMARK    8  A    between atoms: C_17  and  C_18
REMARK                            x       y       z     vdW  Elec       q    Type
REMARK                         _______ _______ _______ _____ _____    ______ ____
ROOT
ATOM      1  N   UNL     1       4.582   4.930  18.063  0.00  0.00    +0.000 N 
ATOM      2  C   UNL     1       3.342   4.388  17.809  0.00  0.00    +0.000 C 
ATOM      3  O   UNL     1       3.142   3.611  16.877  0.00  0.00    +0.000 OA
ATOM      4  H   UNL     1       4.744   5.417  18.932  0.00  0.00    +0.000 HD
ENDROOT
BRANCH   1   5
ATOM      5  C   UNL     1       5.739   4.664  17.207  0.00  0.00    +0.000 C 
BRANCH   5   7
ATOM      6  N   UNL     1       8.112   4.165  17.540  0.00  0.00    +0.000 N 
ATOM      7  C   UNL     1       6.999   4.752  18.083  0.00  0.00    +0.000 C 
ATOM      8  O   UNL     1       7.020   5.213  19.219  0.00  0.00    +0.000 OA
ATOM      9  H   UNL     1       8.924   4.081  18.136  0.00  0.00    +0.000 HD
ATOM     10  H   UNL     1       7.994   3.471  16.803  0.00  0.00    +0.000 HD
ENDBRANCH   5   7
BRANCH   5  11
ATOM     11  C   UNL     1       5.830   5.675  16.054  0.00  0.00    +0.000 C 
BRANCH  11  12
ATOM     12  C   UNL     1       6.183   5.044  14.725  0.00  0.00    +0.000 A 
ATOM     13  C   UNL     1       7.358   5.408  14.054  0.00  0.00    +0.000 A 
ATOM     14  C   UNL     1       7.686   4.826  12.827  0.00  0.00    +0.000 A 
ATOM     15  C   UNL     1       6.844   3.870  12.261  0.00  0.00    +0.000 A 
ATOM     16  C   UNL     1       5.680   3.491  12.921  0.00  0.00    +0.000 A 
ATOM     17  C   UNL     1       5.352   4.070  14.150  0.00  0.00    +0.000 A 
ENDBRANCH  11  12
ENDBRANCH   5  11
ENDBRANCH   1   5
BRANCH   2  18
ATOM     18  C   UNL     1       2.249   4.775  18.831  0.00  0.00    +0.000 C 
BRANCH  18  19
ATOM     19  N   UNL     1       1.844   3.560  19.572  0.00  0.00    +0.000 NA
ATOM     20  H   UNL     1       0.918   3.669  19.973  0.00  0.00    +0.000 HD
ATOM     21  H   UNL     1       2.489   3.417  20.351  0.00  0.00    +0.000 HD
ENDBRANCH  18  19
BRANCH  18  22
ATOM     22  C   UNL     1       2.762   5.910  19.741  0.00  0.00    +0.000 C 
BRANCH  22  23
ATOM     23  C   UNL     1       2.208   7.278  19.416  0.00  0.00    +0.000 A 
ATOM     24  C   UNL     1       1.532   8.017  20.398  0.00  0.00    +0.000 A 
ATOM     25  C   UNL     1       1.023   9.284  20.111  0.00  0.00    +0.000 A 
ATOM     26  C   UNL     1       1.188   9.827  18.837  0.00  0.00    +0.000 A 
ATOM     27  C   UNL     1       1.854   9.100  17.853  0.00  0.00    +0.000 A 
ATOM     28  C   UNL     1       2.361   7.831  18.138  0.00  0.00    +0.000 A 
ENDBRANCH  22  23
ENDBRANCH  18  22
ENDBRANCH   2  18
TORSDOF 8
ENDMDL
MODEL 6
REMARK VINA RESULT:      -7.6      1.539      7.011
REMARK  Name = 
REMARK  8 active torsions:
REMARK  status: ('A' for Active; 'I' for Inactive)
REMARK    1  A    between atoms: C_2  and  C_4
REMARK    2  A    between atoms: C_4  and  C_5
REMARK    3  A    between atoms: C_4  and  N_12
REMARK    4  A    between atoms: C_5  and  C_6
REMARK    5  A    between atoms: C_13  and  C_15
REMARK    6  A    between atoms: C_15  and  N_16
REMARK    7  A    between atoms: C_15  and  C_17
REMARK    8  A    between atoms: C_17  and  C_18
REMARK                            x       y       z     vdW  Elec       q    Type
REMARK                         _______ _______ _______ _____ _____    ______ ____
ROOT
ATOM      1  N   UNL     1       4.828   4.922  17.798  0.00  0.00    +0.000 N 
ATOM      2  C   UNL     1       3.636   4.241  17.694  0.00  0.00    +0.000 C 
ATOM      3  O   UNL     1       3.453   3.363  16.853  0.00  0.00    +0.000 OA
ATOM      4  H   UNL     1       5.001   5.505  18.605  0.00  0.00    +0.000 HD
ENDROOT
BRANCH   1   5
ATOM      5  C   UNL     1       5.943   4.690  16.879  0.00  0.00    +0.000 C 
BRANCH   5   7
ATOM      6  N   UNL     1       7.353   6.164  18.230  0.00  0.00    +0.000 N 
ATOM      7  C   UNL     1       7.248   4.926  17.655  0.00  0.00    +0.000 C 
ATOM      8  O   UNL     1       8.182   4.131  17.694  0.00  0.00    +0.000 OA
ATOM      9  H   UNL     1       8.247   6.410  18.634  0.00  0.00    +0.000 HD
ATOM     10  H   UNL     1       6.771   6.923  17.877  0.00  0.00    +0.000 HD
ENDBRANCH   5   7
BRANCH   5  11
ATOM     11  C   UNL     1       5.876   5.629  15.665  0.00  0.00    +0.000 C 
BRANCH  11  12
ATOM     12  C   UNL     1       6.250   4.957  14.361  0.00  0.00    +0.000 A 
ATOM     13  C   UNL     1       5.409   3.992  13.792  0.00  0.00    +0.000 A 
ATOM     14  C   UNL     1       5.753   3.371  12.588  0.00  0.00    +0.000 A 
ATOM     15  C   UNL     1       6.938   3.713  11.940  0.00  0.00    +0.000 A 
ATOM     16  C   UNL     1       7.777   4.678  12.489  0.00  0.00    +0.000 A 
ATOM     17  C   UNL     1       7.433   5.302  13.690  0.00  0.00    +0.000 A 
ENDBRANCH  11  12
ENDBRANCH   5  11
ENDBRANCH   1   5
BRANCH   2  18
ATOM     18  C   UNL     1       2.585   4.617  18.763  0.00  0.00    +0.000 C 
BRANCH  18  19
ATOM     19  N   UNL     1       2.249   3.405  19.541  0.00  0.00    +0.000 NA
ATOM     20  H   UNL     1       2.212   2.585  18.943  0.00  0.00    +0.000 HD
ATOM     21  H   UNL     1       1.318   3.518  19.945  0.00  0.00    +0.000 HD
ENDBRANCH  18  19
BRANCH  18  22
ATOM     22  C   UNL     1       3.112   5.780  19.629  0.00  0.00    +0.000 C 
BRANCH  22  23
ATOM     23  C   UNL     1       2.428   7.106  19.388  0.00  0.00    +0.000 A 
ATOM     24  C   UNL     1       2.454   7.692  18.115  0.00  0.00    +0.000 A 
ATOM     25  C   UNL     1       1.819   8.913  17.880  0.00  0.00    +0.000 A 
ATOM     26  C   UNL     1       1.148   9.558  18.919  0.00  0.00    +0.000 A 
ATOM     27  C   UNL     1       1.120   8.986  20.189  0.00  0.00    +0.000 A 
ATOM     28  C   UNL     1       1.757   7.767  20.425  0.00  0.00    +0.000 A 
ENDBRANCH  22  23
ENDBRANCH  18  22
ENDBRANCH   2  18
TORSDOF 8
ENDMDL
MODEL 7
REMARK VINA RESULT:      -7.5      1.441      7.015
REMARK  Name = 
REMARK  8 active torsions:
REMARK  status: ('A' for Active; 'I' for Inactive)
REMARK    1  A    between atoms: C_2  and  C_4
REMARK    2  A    between atoms: C_4  and  C_5
REMARK    3  A    between atoms: C_4  and  N_12
REMARK    4  A    between atoms: C_5  and  C_6
REMARK    5  A    between atoms: C_13  and  C_15
REMARK    6  A    between atoms: C_15  and  N_16
REMARK    7  A    between atoms: C_15  and  C_17
REMARK    8  A    between atoms: C_17  and  C_18
REMARK                            x       y       z     vdW  Elec       q    Type
REMARK                         _______ _______ _______ _____ _____    ______ ____
ROOT
ATOM      1  N   UNL     1       4.656   5.046  17.995  0.00  0.00    +0.000 N 
ATOM      2  C   UNL     1       3.440   4.435  17.785  0.00  0.00    +0.000 C 
ATOM      3  O   UNL     1       3.270   3.596  16.902  0.00  0.00    +0.000 OA
ATOM      4  H   UNL     1       4.801   5.592  18.832  0.00  0.00    +0.000 HD
ENDROOT
BRANCH   1   5
ATOM      5  C   UNL     1       5.818   4.783  17.145  0.00  0.00    +0.000 C 
BRANCH   5   7
ATOM      6  N   UNL     1       8.134   4.165  17.637  0.00  0.00    +0.000 N 
ATOM      7  C   UNL     1       7.078   4.952  18.009  0.00  0.00    +0.000 C 
ATOM      8  O   UNL     1       7.136   5.652  19.015  0.00  0.00    +0.000 OA
ATOM      9  H   UNL     1       8.933   4.144  18.256  0.00  0.00    +0.000 HD
ATOM     10  H   UNL     1       7.956   3.336  17.070  0.00  0.00    +0.000 HD
ENDBRANCH   5   7
BRANCH   5  11
ATOM     11  C   UNL     1       5.869   5.745  15.948  0.00  0.00    +0.000 C 
BRANCH  11  12
ATOM     12  C   UNL     1       6.202   5.061  14.639  0.00  0.00    +0.000 A 
ATOM     13  C   UNL     1       7.385   5.372  13.955  0.00  0.00    +0.000 A 
ATOM     14  C   UNL     1       7.694   4.742  12.748  0.00  0.00    +0.000 A 
ATOM     15  C   UNL     1       6.826   3.791  12.214  0.00  0.00    +0.000 A 
ATOM     16  C   UNL     1       5.653   3.465  12.889  0.00  0.00    +0.000 A 
ATOM     17  C   UNL     1       5.345   4.091  14.098  0.00  0.00    +0.000 A 
ENDBRANCH  11  12
ENDBRANCH   5  11
ENDBRANCH   1   5
BRANCH   2  18
ATOM     18  C   UNL     1       2.338   4.833  18.792  0.00  0.00    +0.000 C 
BRANCH  18  19
ATOM     19  N   UNL     1       1.912   3.622  19.528  0.00  0.00    +0.000 NA
ATOM     20  H   UNL     1       2.442   3.509  20.386  0.00  0.00    +0.000 HD
ATOM     21  H   UNL     1       2.103   2.800  18.952  0.00  0.00    +0.000 HD
ENDBRANCH  18  19
BRANCH  18  22
ATOM     22  C   UNL     1       2.849   5.963  19.709  0.00  0.00    +0.000 C 
BRANCH  22  23
ATOM     23  C   UNL     1       2.225   7.315  19.452  0.00  0.00    +0.000 A 
ATOM     24  C   UNL     1       2.315   7.903  18.182  0.00  0.00    +0.000 A 
ATOM     25  C   UNL     1       1.736   9.148  17.931  0.00  0.00    +0.000 A 
ATOM     26  C   UNL     1       1.058   9.816  18.950  0.00  0.00    +0.000 A 
ATOM     27  C   UNL     1       0.967   9.243  20.217  0.00  0.00    +0.000 A 
ATOM     28  C   UNL     1       1.548   7.999  20.469  0.00  0.00    +0.000 A 
ENDBRANCH  22  23
ENDBRANCH  18  22
ENDBRANCH   2  18
TORSDOF 8
ENDMDL
MODEL 8
REMARK VINA RESULT:      -7.4      1.783      7.123
REMARK  Name = 
REMARK  8 active torsions:
REMARK  status: ('A' for Active; 'I' for Inactive)
REMARK    1  A    between atoms: C_2  and  C_4
REMARK    2  A    between atoms: C_4  and  C_5
REMARK    3  A    between atoms: C_4  and  N_12
REMARK    4  A    between atoms: C_5  and  C_6
REMARK    5  A    between atoms: C_13  and  C_15
REMARK    6  A    between atoms: C_15  and  N_16
REMARK    7  A    between atoms: C_15  and  C_17
REMARK    8  A    between atoms: C_17  and  C_18
REMARK                            x       y       z     vdW  Elec       q    Type
REMARK                         _______ _______ _______ _____ _____    ______ ____
ROOT
ATOM      1  N   UNL     1       5.134   5.479  17.154  0.00  0.00    +0.000 N 
ATOM      2  C   UNL     1       4.148   4.604  17.551  0.00  0.00    +0.000 C 
ATOM      3  O   UNL     1       4.353   3.398  17.682  0.00  0.00    +0.000 OA
ATOM      4  H   UNL     1       4.978   6.474  17.229  0.00  0.00    +0.000 HD
ENDROOT
BRANCH   1   5
ATOM      5  C   UNL     1       6.482   5.028  16.805  0.00  0.00    +0.000 C 
BRANCH   5   7
ATOM      6  N   UNL     1       7.632   6.674  18.205  0.00  0.00    +0.000 N 
ATOM      7  C   UNL     1       7.404   5.340  17.996  0.00  0.00    +0.000 C 
ATOM      8  O   UNL     1       7.982   4.489  18.663  0.00  0.00    +0.000 OA
ATOM      9  H   UNL     1       8.336   6.919  18.888  0.00  0.00    +0.000 HD
ATOM     10  H   UNL     1       7.472   7.328  17.439  0.00  0.00    +0.000 HD
ENDBRANCH   5   7
BRANCH   5  11
ATOM     11  C   UNL     1       7.001   5.732  15.542  0.00  0.00    +0.000 C 
BRANCH  11  12
ATOM     12  C   UNL     1       6.773   4.938  14.273  0.00  0.00    +0.000 A 
ATOM     13  C   UNL     1       5.700   4.043  14.177  0.00  0.00    +0.000 A 
ATOM     14  C   UNL     1       5.488   3.310  13.007  0.00  0.00    +0.000 A 
ATOM     15  C   UNL     1       6.344   3.469  11.919  0.00  0.00    +0.000 A 
ATOM     16  C   UNL     1       7.408   4.363  11.997  0.00  0.00    +0.000 A 
ATOM     17  C   UNL     1       7.619   5.099  13.165  0.00  0.00    +0.000 A 
ENDBRANCH  11  12
ENDBRANCH   5  11
ENDBRANCH   1   5
BRANCH   2  18
ATOM     18  C   UNL     1       2.795   5.270  17.888  0.00  0.00    +0.000 C 
BRANCH  18  19
ATOM     19  N   UNL     1       1.756   4.219  17.956  0.00  0.00    +0.000 NA
ATOM     20  H   UNL     1       1.439   4.079  18.911  0.00  0.00    +0.000 HD
ATOM     21  H   UNL     1       2.159   3.333  17.646  0.00  0.00    +0.000 HD
ENDBRANCH  18  19
BRANCH  18  22
ATOM     22  C   UNL     1       2.926   6.093  19.186  0.00  0.00    +0.000 C 
BRANCH  22  23
ATOM     23  C   UNL     1       2.268   7.453  19.140  0.00  0.00    +0.000 A 
ATOM     24  C   UNL     1       1.634   7.969  20.279  0.00  0.00    +0.000 A 
ATOM     25  C   UNL     1       1.030   9.227  20.249  0.00  0.00    +0.000 A 
ATOM     26  C   UNL     1       1.057   9.983  19.078  0.00  0.00    +0.000 A 
ATOM     27  C   UNL     1       1.679   9.477  17.939  0.00  0.00    +0.000 A 
ATOM     28  C   UNL     1       2.281   8.218  17.967  0.00  0.00    +0.000 A 
ENDBRANCH  22  23
ENDBRANCH  18  22
ENDBRANCH   2  18
TORSDOF 8
ENDMDL
MODEL 9
REMARK VINA RESULT:      -7.4      2.442      3.760
REMARK  Name = 
REMARK  8 active torsions:
REMARK  status: ('A' for Active; 'I' for Inactive)
REMARK    1  A    between atoms: C_2  and  C_4
REMARK    2  A    between atoms: C_4  and  C_5
REMARK    3  A    between atoms: C_4  and  N_12
REMARK    4  A    between atoms: C_5  and  C_6
REMARK    5  A    between atoms: C_13  and  C_15
REMARK    6  A    between atoms: C_15  and  N_16
REMARK    7  A    between atoms: C_15  and  C_17
REMARK    8  A    between atoms: C_17  and  C_18
REMARK                            x       y       z     vdW  Elec       q    Type
REMARK                         _______ _______ _______ _____ _____    ______ ____
ROOT
ATOM      1  N   UNL     1       6.196   5.030  17.376  0.00  0.00    +0.000 N 
ATOM      2  C   UNL     1       6.902   5.363  16.241  0.00  0.00    +0.000 C 
ATOM      3  O   UNL     1       7.464   6.449  16.112  0.00  0.00    +0.000 OA
ATOM      4  H   UNL     1       5.902   4.074  17.517  0.00  0.00    +0.000 HD
ENDROOT
BRANCH   1   5
ATOM      5  C   UNL     1       6.017   5.967  18.486  0.00  0.00    +0.000 C 
BRANCH   5   7
ATOM      6  N   UNL     1       8.265   6.829  18.921  0.00  0.00    +0.000 N 
ATOM      7  C   UNL     1       7.302   5.946  19.329  0.00  0.00    +0.000 C 
ATOM      8  O   UNL     1       7.519   5.150  20.237  0.00  0.00    +0.000 OA
ATOM      9  H   UNL     1       9.173   6.755  19.360  0.00  0.00    +0.000 HD
ATOM     10  H   UNL     1       8.231   7.192  17.969  0.00  0.00    +0.000 HD
ENDBRANCH   5   7
BRANCH   5  11
ATOM     11  C   UNL     1       4.811   5.583  19.357  0.00  0.00    +0.000 C 
BRANCH  11  12
ATOM     12  C   UNL     1       4.009   4.426  18.800  0.00  0.00    +0.000 A 
ATOM     13  C   UNL     1       2.943   4.657  17.921  0.00  0.00    +0.000 A 
ATOM     14  C   UNL     1       2.202   3.590  17.406  0.00  0.00    +0.000 A 
ATOM     15  C   UNL     1       2.523   2.281  17.762  0.00  0.00    +0.000 A 
ATOM     16  C   UNL     1       3.586   2.037  18.626  0.00  0.00    +0.000 A 
ATOM     17  C   UNL     1       4.330   3.102  19.139  0.00  0.00    +0.000 A 
ENDBRANCH  11  12
ENDBRANCH   5  11
ENDBRANCH   1   5
BRANCH   2  18
ATOM     18  C   UNL     1       6.991   4.237  15.186  0.00  0.00    +0.000 C 
BRANCH  18  19
ATOM     19  N   UNL     1       6.086   3.139  15.590  0.00  0.00    +0.000 NA
ATOM     20  H   UNL     1       5.139   3.479  15.732  0.00  0.00    +0.000 HD
ATOM     21  H   UNL     1       6.402   2.761  16.484  0.00  0.00    +0.000 HD
ENDBRANCH  18  19
BRANCH  18  22
ATOM     22  C   UNL     1       6.684   4.807  13.786  0.00  0.00    +0.000 C 
BRANCH  22  23
ATOM     23  C   UNL     1       6.268   3.776  12.763  0.00  0.00    +0.000 A 
ATOM     24  C   UNL     1       7.227   2.939  12.174  0.00  0.00    +0.000 A 
ATOM     25  C   UNL     1       6.853   1.978  11.233  0.00  0.00    +0.000 A 
ATOM     26  C   UNL     1       5.512   1.843  10.874  0.00  0.00    +0.000 A 
ATOM     27  C   UNL     1       4.552   2.673  11.449  0.00  0.00    +0.000 A 
ATOM     28  C   UNL     1       4.926   3.636  12.388  0.00  0.00    +0.000 A 
ENDBRANCH  22  23
ENDBRANCH  18  22
ENDBRANCH   2  18
TORSDOF 8
ENDMDL
