MODEL 1
REMARK VINA RESULT:      -8.3      0.000      0.000
REMARK  Name = 
REMARK  5 active torsions:
REMARK  status: ('A' for Active; 'I' for Inactive)
REMARK    1  A    between atoms: C_1  and  O_2
REMARK    2  A    between atoms: O_2  and  C_3
REMARK    3  A    between atoms: N_16  and  C_17
REMARK    4  A    between atoms: C_30  and  O_31
REMARK    5  A    between atoms: O_31  and  C_32
REMARK                            x       y       z     vdW  Elec       q    Type
REMARK                         _______ _______ _______ _____ _____    ______ ____
ROOT
ATOM      1  C   UNL     1       6.397   4.876  16.096  0.00  0.00    +0.000 A 
ATOM      2  C   UNL     1       5.706   3.674  16.353  0.00  0.00    +0.000 A 
ATOM      3  C   UNL     1       4.512   3.631  17.065  0.00  0.00    +0.000 A 
ATOM      4  N   UNL     1       3.876   2.467  17.207  0.00  0.00    +0.000 NA
ATOM      5  C   UNL     1       2.725   2.500  17.897  0.00  0.00    +0.000 A 
ATOM      6  N   UNL     1       2.159   3.580  18.447  0.00  0.00    +0.000 NA
ATOM      7  C   UNL     1       2.804   4.748  18.291  0.00  0.00    +0.000 A 
ATOM      8  N   UNL     1       2.270   5.871  18.900  0.00  0.00    +0.000 N 
ATOM      9  C   UNL     1       1.501   5.693  20.130  0.00  0.00    +0.000 C 
ATOM     10  C   UNL     1       1.841   6.879  21.042  0.00  0.00    +0.000 C 
ATOM     11  N   UNL     1       1.575   8.173  20.382  0.00  0.00    +0.000 N 
ATOM     12  C   UNL     1       1.051   9.179  21.173  0.00  0.00    +0.000 C 
ATOM     13  O   UNL     1       0.806   8.959  22.362  0.00  0.00    +0.000 OA
ATOM     14  N   UNL     1       0.783  10.369  20.542  0.00  0.00    +0.000 N 
ATOM     15  C   UNL     1       2.208   8.315  19.050  0.00  0.00    +0.000 C 
ATOM     16  C   UNL     1       1.919   7.087  18.151  0.00  0.00    +0.000 C 
ATOM     17  C   UNL     1       4.029   4.820  17.612  0.00  0.00    +0.000 A 
ATOM     18  C   UNL     1       4.810   5.988  17.491  0.00  0.00    +0.000 A 
ATOM     19  C   UNL     1       5.961   6.046  16.715  0.00  0.00    +0.000 A 
ATOM     20  H   UNL     1       0.713  10.345  19.540  0.00  0.00    +0.000 HD
ENDROOT
BRANCH  14  21
ATOM     21  C   UNL     1       0.220  11.512  21.167  0.00  0.00    +0.000 A 
ATOM     22  C   UNL     1       0.810  12.792  21.097  0.00  0.00    +0.000 A 
ATOM     23  C   UNL     1       0.279  13.878  21.798  0.00  0.00    +0.000 A 
ATOM     24  C   UNL     1      -0.855  13.664  22.542  0.00  0.00    +0.000 A 
ATOM     25  C   UNL     1      -1.465  12.431  22.585  0.00  0.00    +0.000 A 
ATOM     26  C   UNL     1      -0.961  11.341  21.901  0.00  0.00    +0.000 A 
ATOM     27  O   UNL     1      -2.569  12.432  23.380  0.00  0.00    +0.000 OA
ATOM     28  C   UNL     1      -2.547  13.789  23.873  0.00  0.00    +0.000 C 
ATOM     29  O   UNL     1      -1.494  14.590  23.305  0.00  0.00    +0.000 OA
ENDBRANCH  14  21
BRANCH   1  31
ATOM     30  C   UNL     1       7.214   4.861  13.879  0.00  0.00    +0.000 C 
ATOM     31  O   UNL     1       7.492   4.913  15.279  0.00  0.00    +0.000 OA
ENDBRANCH   1  31
BRANCH  19  32
ATOM     32  O   UNL     1       6.454   7.317  16.674  0.00  0.00    +0.000 OA
ATOM     33  C   UNL     1       7.566   7.670  17.477  0.00  0.00    +0.000 C 
ENDBRANCH  19  32
TORSDOF 3
ENDMDL
MODEL 2
REMARK VINA RESULT:      -8.2      3.544     10.397
REMARK  Name = 
REMARK  5 active torsions:
REMARK  status: ('A' for Active; 'I' for Inactive)
REMARK    1  A    between atoms: C_1  and  O_2
REMARK    2  A    between atoms: O_2  and  C_3
REMARK    3  A    between atoms: N_16  and  C_17
REMARK    4  A    between atoms: C_30  and  O_31
REMARK    5  A    between atoms: O_31  and  C_32
REMARK                            x       y       z     vdW  Elec       q    Type
REMARK                         _______ _______ _______ _____ _____    ______ ____
ROOT
ATOM      1  C   UNL     1      -4.575  11.765  17.808  0.00  0.00    +0.000 A 
ATOM      2  C   UNL     1      -4.422  12.406  19.055  0.00  0.00    +0.000 A 
ATOM      3  C   UNL     1      -3.271  12.287  19.826  0.00  0.00    +0.000 A 
ATOM      4  N   UNL     1      -3.167  12.980  20.961  0.00  0.00    +0.000 NA
ATOM      5  C   UNL     1      -2.025  12.824  21.649  0.00  0.00    +0.000 A 
ATOM      6  N   UNL     1      -0.990  12.050  21.307  0.00  0.00    +0.000 NA
ATOM      7  C   UNL     1      -1.101  11.361  20.158  0.00  0.00    +0.000 A 
ATOM      8  N   UNL     1      -0.070  10.507  19.809  0.00  0.00    +0.000 N 
ATOM      9  C   UNL     1       0.714   9.895  20.880  0.00  0.00    +0.000 C 
ATOM     10  C   UNL     1       1.030   8.461  20.435  0.00  0.00    +0.000 C 
ATOM     11  N   UNL     1       1.720   8.431  19.129  0.00  0.00    +0.000 N 
ATOM     12  C   UNL     1       2.720   7.488  18.976  0.00  0.00    +0.000 C 
ATOM     13  O   UNL     1       3.010   6.743  19.915  0.00  0.00    +0.000 OA
ATOM     14  N   UNL     1       3.373   7.487  17.768  0.00  0.00    +0.000 N 
ATOM     15  C   UNL     1       1.029   9.189  18.061  0.00  0.00    +0.000 C 
ATOM     16  C   UNL     1       0.653  10.616  18.533  0.00  0.00    +0.000 C 
ATOM     17  C   UNL     1      -2.264  11.430  19.377  0.00  0.00    +0.000 A 
ATOM     18  C   UNL     1      -2.493  10.667  18.213  0.00  0.00    +0.000 A 
ATOM     19  C   UNL     1      -3.609  10.845  17.404  0.00  0.00    +0.000 A 
ATOM     20  H   UNL     1       3.288   8.316  17.207  0.00  0.00    +0.000 HD
ENDROOT
BRANCH  14  21
ATOM     21  C   UNL     1       4.441   6.621  17.421  0.00  0.00    +0.000 A 
ATOM     22  C   UNL     1       5.183   5.895  18.378  0.00  0.00    +0.000 A 
ATOM     23  C   UNL     1       6.286   5.121  18.010  0.00  0.00    +0.000 A 
ATOM     24  C   UNL     1       6.614   5.069  16.678  0.00  0.00    +0.000 A 
ATOM     25  C   UNL     1       5.875   5.738  15.729  0.00  0.00    +0.000 A 
ATOM     26  C   UNL     1       4.779   6.510  16.065  0.00  0.00    +0.000 A 
ATOM     27  O   UNL     1       6.368   5.559  14.474  0.00  0.00    +0.000 OA
ATOM     28  C   UNL     1       7.533   4.751  14.753  0.00  0.00    +0.000 C 
ATOM     29  O   UNL     1       7.664   4.394  16.141  0.00  0.00    +0.000 OA
ENDBRANCH  14  21
BRANCH   1  31
ATOM     30  C   UNL     1      -6.390  13.192  17.308  0.00  0.00    +0.000 C 
ATOM     31  O   UNL     1      -5.654  12.006  17.005  0.00  0.00    +0.000 OA
ENDBRANCH   1  31
BRANCH  19  32
ATOM     32  O   UNL     1      -3.526  10.069  16.286  0.00  0.00    +0.000 OA
ATOM     33  C   UNL     1      -2.981  10.604  15.093  0.00  0.00    +0.000 C 
ENDBRANCH  19  32
TORSDOF 3
ENDMDL
MODEL 3
REMARK VINA RESULT:      -8.1      0.632      1.312
REMARK  Name = 
REMARK  5 active torsions:
REMARK  status: ('A' for Active; 'I' for Inactive)
REMARK    1  A    between atoms: C_1  and  O_2
REMARK    2  A    between atoms: O_2  and  C_3
REMARK    3  A    between atoms: N_16  and  C_17
REMARK    4  A    between atoms: C_30  and  O_31
REMARK    5  A    between atoms: O_31  and  C_32
REMARK                            x       y       z     vdW  Elec       q    Type
REMARK                         _______ _______ _______ _____ _____    ______ ____
ROOT
ATOM      1  C   UNL     1       6.398   4.949  16.049  0.00  0.00    +0.000 A 
ATOM      2  C   UNL     1       5.708   3.739  16.267  0.00  0.00    +0.000 A 
ATOM      3  C   UNL     1       4.516   3.671  16.980  0.00  0.00    +0.000 A 
ATOM      4  N   UNL     1       3.880   2.503  17.085  0.00  0.00    +0.000 NA
ATOM      5  C   UNL     1       2.731   2.512  17.778  0.00  0.00    +0.000 A 
ATOM      6  N   UNL     1       2.165   3.573  18.364  0.00  0.00    +0.000 NA
ATOM      7  C   UNL     1       2.810   4.746  18.246  0.00  0.00    +0.000 A 
ATOM      8  N   UNL     1       2.277   5.848  18.893  0.00  0.00    +0.000 N 
ATOM      9  C   UNL     1       1.511   5.628  20.118  0.00  0.00    +0.000 C 
ATOM     10  C   UNL     1       1.852   6.784  21.068  0.00  0.00    +0.000 C 
ATOM     11  N   UNL     1       1.584   8.099  20.452  0.00  0.00    +0.000 N 
ATOM     12  C   UNL     1       1.061   9.078  21.278  0.00  0.00    +0.000 C 
ATOM     13  O   UNL     1       0.819   8.819  22.459  0.00  0.00    +0.000 OA
ATOM     14  N   UNL     1       0.791  10.288  20.688  0.00  0.00    +0.000 N 
ATOM     15  C   UNL     1       2.214   8.286  19.125  0.00  0.00    +0.000 C 
ATOM     16  C   UNL     1       1.923   7.088  18.187  0.00  0.00    +0.000 C 
ATOM     17  C   UNL     1       4.033   4.842  17.568  0.00  0.00    +0.000 A 
ATOM     18  C   UNL     1       4.813   6.013  17.484  0.00  0.00    +0.000 A 
ATOM     19  C   UNL     1       5.963   6.097  16.708  0.00  0.00    +0.000 A 
ATOM     20  H   UNL     1       0.720  10.297  19.686  0.00  0.00    +0.000 HD
ENDROOT
BRANCH  14  21
ATOM     21  C   UNL     1       0.229  11.409  21.351  0.00  0.00    +0.000 A 
ATOM     22  C   UNL     1      -0.871  11.309  22.229  0.00  0.00    +0.000 A 
ATOM     23  C   UNL     1      -1.456  12.445  22.796  0.00  0.00    +0.000 A 
ATOM     24  C   UNL     1      -0.909  13.665  22.488  0.00  0.00    +0.000 A 
ATOM     25  C   UNL     1       0.190  13.774  21.666  0.00  0.00    +0.000 A 
ATOM     26  C   UNL     1       0.788  12.668  21.094  0.00  0.00    +0.000 A 
ATOM     27  O   UNL     1       0.570  15.068  21.487  0.00  0.00    +0.000 OA
ATOM     28  C   UNL     1      -0.450  15.758  22.242  0.00  0.00    +0.000 C 
ATOM     29  O   UNL     1      -1.358  14.872  22.922  0.00  0.00    +0.000 OA
ENDBRANCH  14  21
BRANCH   1  31
ATOM     30  C   UNL     1       7.228   4.825  13.841  0.00  0.00    +0.000 C 
ATOM     31  O   UNL     1       7.492   5.014  15.231  0.00  0.00    +0.000 OA
ENDBRANCH   1  31
BRANCH  19  32
ATOM     32  O   UNL     1       6.456   7.369  16.707  0.00  0.00    +0.000 OA
ATOM     33  C   UNL     1       7.568   7.697  17.521  0.00  0.00    +0.000 C 
ENDBRANCH  19  32
TORSDOF 3
ENDMDL
MODEL 4
REMARK VINA RESULT:      -8.1      2.569      3.782
REMARK  Name = 
REMARK  5 active torsions:
REMARK  status: ('A' for Active; 'I' for Inactive)
REMARK    1  A    between atoms: C_1  and  O_2
REMARK    2  A    between atoms: O_2  and  C_3
REMARK    3  A    between atoms: N_16  and  C_17
REMARK    4  A    between atoms: C_30  and  O_31
REMARK    5  A    between atoms: O_31  and  C_32
REMARK                            x       y       z     vdW  Elec       q    Type
REMARK                         _______ _______ _______ _____ _____    ______ ____
ROOT
ATOM      1  C   UNL     1       2.771   2.814  18.408  0.00  0.00    +0.000 A 
ATOM      2  C   UNL     1       3.663   3.316  17.439  0.00  0.00    +0.000 A 
ATOM      3  C   UNL     1       3.874   4.677  17.243  0.00  0.00    +0.000 A 
ATOM      4  N   UNL     1       4.787   5.079  16.358  0.00  0.00    +0.000 NA
ATOM      5  C   UNL     1       4.945   6.405  16.227  0.00  0.00    +0.000 A 
ATOM      6  N   UNL     1       4.281   7.354  16.897  0.00  0.00    +0.000 NA
ATOM      7  C   UNL     1       3.368   6.939  17.792  0.00  0.00    +0.000 A 
ATOM      8  N   UNL     1       2.626   7.900  18.456  0.00  0.00    +0.000 N 
ATOM      9  C   UNL     1       2.364   9.166  17.775  0.00  0.00    +0.000 C 
ATOM     10  C   UNL     1       0.934   9.581  18.144  0.00  0.00    +0.000 C 
ATOM     11  N   UNL     1       0.747   9.667  19.606  0.00  0.00    +0.000 N 
ATOM     12  C   UNL     1      -0.048  10.699  20.072  0.00  0.00    +0.000 C 
ATOM     13  O   UNL     1      -0.538  11.503  19.276  0.00  0.00    +0.000 OA
ATOM     14  N   UNL     1      -0.193  10.784  21.435  0.00  0.00    +0.000 N 
ATOM     15  C   UNL     1       1.164   8.452  20.343  0.00  0.00    +0.000 C 
ATOM     16  C   UNL     1       2.584   7.995  19.923  0.00  0.00    +0.000 C 
ATOM     17  C   UNL     1       3.104   5.575  17.985  0.00  0.00    +0.000 A 
ATOM     18  C   UNL     1       2.099   5.066  18.833  0.00  0.00    +0.000 A 
ATOM     19  C   UNL     1       1.943   3.709  19.085  0.00  0.00    +0.000 A 
ATOM     20  H   UNL     1       0.485  10.297  21.994  0.00  0.00    +0.000 HD
ENDROOT
BRANCH  14  21
ATOM     21  C   UNL     1      -0.941  11.781  22.113  0.00  0.00    +0.000 A 
ATOM     22  C   UNL     1      -0.492  13.111  22.260  0.00  0.00    +0.000 A 
ATOM     23  C   UNL     1      -1.211  14.045  23.010  0.00  0.00    +0.000 A 
ATOM     24  C   UNL     1      -2.388  13.631  23.583  0.00  0.00    +0.000 A 
ATOM     25  C   UNL     1      -2.860  12.349  23.413  0.00  0.00    +0.000 A 
ATOM     26  C   UNL     1      -2.169  11.407  22.676  0.00  0.00    +0.000 A 
ATOM     27  O   UNL     1      -4.036  12.144  24.065  0.00  0.00    +0.000 OA
ATOM     28  C   UNL     1      -4.216  13.425  24.708  0.00  0.00    +0.000 C 
ATOM     29  O   UNL     1      -3.203  14.388  24.364  0.00  0.00    +0.000 OA
ENDBRANCH  14  21
BRANCH   1  31
ATOM     30  C   UNL     1       3.929   0.810  18.881  0.00  0.00    +0.000 C 
ATOM     31  O   UNL     1       2.682   1.477  18.678  0.00  0.00    +0.000 OA
ENDBRANCH   1  31
BRANCH  19  32
ATOM     32  O   UNL     1       0.981   3.498  20.028  0.00  0.00    +0.000 OA
ATOM     33  C   UNL     1       1.348   3.089  21.333  0.00  0.00    +0.000 C 
ENDBRANCH  19  32
TORSDOF 3
ENDMDL
MODEL 5
REMARK VINA RESULT:      -8.0      2.799     10.702
REMARK  Name = 
REMARK  5 active torsions:
REMARK  status: ('A' for Active; 'I' for Inactive)
REMARK    1  A    between atoms: C_1  and  O_2
REMARK    2  A    between atoms: O_2  and  C_3
REMARK    3  A    between atoms: N_16  and  C_17
REMARK    4  A    between atoms: C_30  and  O_31
REMARK    5  A    between atoms: O_31  and  C_32
REMARK                            x       y       z     vdW  Elec       q    Type
REMARK                         _______ _______ _______ _____ _____    ______ ____
ROOT
ATOM      1  C   UNL     1      -4.592  13.280  19.952  0.00  0.00    +0.000 A 
ATOM      2  C   UNL     1      -4.135  13.784  21.187  0.00  0.00    +0.000 A 
ATOM      3  C   UNL     1      -2.919  13.410  21.748  0.00  0.00    +0.000 A 
ATOM      4  N   UNL     1      -2.516  13.982  22.884  0.00  0.00    +0.000 NA
ATOM      5  C   UNL     1      -1.329  13.580  23.364  0.00  0.00    +0.000 A 
ATOM      6  N   UNL     1      -0.517  12.671  22.815  0.00  0.00    +0.000 NA
ATOM      7  C   UNL     1      -0.927  12.105  21.667  0.00  0.00    +0.000 A 
ATOM      8  N   UNL     1      -0.134  11.119  21.108  0.00  0.00    +0.000 N 
ATOM      9  C   UNL     1       0.683  10.299  22.001  0.00  0.00    +0.000 C 
ATOM     10  C   UNL     1       0.662   8.872  21.437  0.00  0.00    +0.000 C 
ATOM     11  N   UNL     1       1.124   8.829  20.035  0.00  0.00    +0.000 N 
ATOM     12  C   UNL     1       1.901   7.744  19.669  0.00  0.00    +0.000 C 
ATOM     13  O   UNL     1       2.194   6.889  20.508  0.00  0.00    +0.000 OA
ATOM     14  N   UNL     1       2.347   7.729  18.371  0.00  0.00    +0.000 N 
ATOM     15  C   UNL     1       0.425   9.776  19.137  0.00  0.00    +0.000 C 
ATOM     16  C   UNL     1       0.390  11.205  19.737  0.00  0.00    +0.000 C 
ATOM     17  C   UNL     1      -2.166  12.433  21.095  0.00  0.00    +0.000 A 
ATOM     18  C   UNL     1      -2.706  11.815  19.948  0.00  0.00    +0.000 A 
ATOM     19  C   UNL     1      -3.883  12.244  19.347  0.00  0.00    +0.000 A 
ATOM     20  H   UNL     1       2.328   8.603  17.875  0.00  0.00    +0.000 HD
ENDROOT
BRANCH  14  21
ATOM     21  C   UNL     1       3.175   6.724  17.807  0.00  0.00    +0.000 A 
ATOM     22  C   UNL     1       2.846   5.352  17.839  0.00  0.00    +0.000 A 
ATOM     23  C   UNL     1       3.725   4.380  17.354  0.00  0.00    +0.000 A 
ATOM     24  C   UNL     1       4.916   4.807  16.821  0.00  0.00    +0.000 A 
ATOM     25  C   UNL     1       5.232   6.144  16.745  0.00  0.00    +0.000 A 
ATOM     26  C   UNL     1       4.381   7.125  17.216  0.00  0.00    +0.000 A 
ATOM     27  O   UNL     1       6.456   6.352  16.188  0.00  0.00    +0.000 OA
ATOM     28  C   UNL     1       6.892   4.991  15.979  0.00  0.00    +0.000 C 
ATOM     29  O   UNL     1       5.900   4.009  16.329  0.00  0.00    +0.000 OA
ENDBRANCH  14  21
BRANCH   1  31
ATOM     30  C   UNL     1      -6.859  13.894  20.207  0.00  0.00    +0.000 C 
ATOM     31  O   UNL     1      -5.721  13.764  19.353  0.00  0.00    +0.000 OA
ENDBRANCH   1  31
BRANCH  19  32
ATOM     32  O   UNL     1      -4.115  11.557  18.192  0.00  0.00    +0.000 OA
ATOM     33  C   UNL     1      -3.293  10.457  17.846  0.00  0.00    +0.000 C 
ENDBRANCH  19  32
TORSDOF 3
ENDMDL
MODEL 6
REMARK VINA RESULT:      -8.0      2.654      4.082
REMARK  Name = 
REMARK  5 active torsions:
REMARK  status: ('A' for Active; 'I' for Inactive)
REMARK    1  A    between atoms: C_1  and  O_2
REMARK    2  A    between atoms: O_2  and  C_3
REMARK    3  A    between atoms: N_16  and  C_17
REMARK    4  A    between atoms: C_30  and  O_31
REMARK    5  A    between atoms: O_31  and  C_32
REMARK                            x       y       z     vdW  Elec       q    Type
REMARK                         _______ _______ _______ _____ _____    ______ ____
ROOT
ATOM      1  C   UNL     1       2.542   3.047  18.700  0.00  0.00    +0.000 A 
ATOM      2  C   UNL     1       3.388   3.586  17.710  0.00  0.00    +0.000 A 
ATOM      3  C   UNL     1       3.552   4.954  17.523  0.00  0.00    +0.000 A 
ATOM      4  N   UNL     1       4.425   5.393  16.615  0.00  0.00    +0.000 NA
ATOM      5  C   UNL     1       4.539   6.724  16.495  0.00  0.00    +0.000 A 
ATOM      6  N   UNL     1       3.869   7.646  17.196  0.00  0.00    +0.000 NA
ATOM      7  C   UNL     1       2.998   7.194  18.114  0.00  0.00    +0.000 A 
ATOM      8  N   UNL     1       2.249   8.125  18.812  0.00  0.00    +0.000 N 
ATOM      9  C   UNL     1       1.929   9.391  18.155  0.00  0.00    +0.000 C 
ATOM     10  C   UNL     1       0.500   9.759  18.573  0.00  0.00    +0.000 C 
ATOM     11  N   UNL     1       0.357   9.823  20.041  0.00  0.00    +0.000 N 
ATOM     12  C   UNL     1      -0.453  10.826  20.544  0.00  0.00    +0.000 C 
ATOM     13  O   UNL     1      -0.991  11.624  19.773  0.00  0.00    +0.000 OA
ATOM     14  N   UNL     1      -0.557  10.893  21.912  0.00  0.00    +0.000 N 
ATOM     15  C   UNL     1       0.833   8.614  20.750  0.00  0.00    +0.000 C 
ATOM     16  C   UNL     1       2.251   8.204  20.281  0.00  0.00    +0.000 C 
ATOM     17  C   UNL     1       2.781   5.821  18.300  0.00  0.00    +0.000 A 
ATOM     18  C   UNL     1       1.818   5.274  19.173  0.00  0.00    +0.000 A 
ATOM     19  C   UNL     1       1.710   3.909  19.413  0.00  0.00    +0.000 A 
ATOM     20  H   UNL     1       0.153  10.420  22.443  0.00  0.00    +0.000 HD
ENDROOT
BRANCH  14  21
ATOM     21  C   UNL     1      -1.312  11.860  22.624  0.00  0.00    +0.000 A 
ATOM     22  C   UNL     1      -2.571  11.579  23.197  0.00  0.00    +0.000 A 
ATOM     23  C   UNL     1      -3.330  12.577  23.815  0.00  0.00    +0.000 A 
ATOM     24  C   UNL     1      -2.797  13.842  23.867  0.00  0.00    +0.000 A 
ATOM     25  C   UNL     1      -1.553  14.120  23.349  0.00  0.00    +0.000 A 
ATOM     26  C   UNL     1      -0.782  13.152  22.735  0.00  0.00    +0.000 A 
ATOM     27  O   UNL     1      -1.215  15.430  23.500  0.00  0.00    +0.000 OA
ATOM     28  C   UNL     1      -2.413  15.949  24.118  0.00  0.00    +0.000 C 
ATOM     29  O   UNL     1      -3.398  14.938  24.401  0.00  0.00    +0.000 OA
ENDBRANCH  14  21
BRANCH   1  31
ATOM     30  C   UNL     1       3.738   1.013  18.790  0.00  0.00    +0.000 C 
ATOM     31  O   UNL     1       2.501   1.705  18.957  0.00  0.00    +0.000 OA
ENDBRANCH   1  31
BRANCH  19  32
ATOM     32  O   UNL     1       0.785   3.660  20.383  0.00  0.00    +0.000 OA
ATOM     33  C   UNL     1       1.163   2.969  21.561  0.00  0.00    +0.000 C 
ENDBRANCH  19  32
TORSDOF 3
ENDMDL
MODEL 7
REMARK VINA RESULT:      -7.9      3.511     10.848
REMARK  Name = 
REMARK  5 active torsions:
REMARK  status: ('A' for Active; 'I' for Inactive)
REMARK    1  A    between atoms: C_1  and  O_2
REMARK    2  A    between atoms: O_2  and  C_3
REMARK    3  A    between atoms: N_16  and  C_17
REMARK    4  A    between atoms: C_30  and  O_31
REMARK    5  A    between atoms: O_31  and  C_32
REMARK                            x       y       z     vdW  Elec       q    Type
REMARK                         _______ _______ _______ _____ _____    ______ ____
ROOT
ATOM      1  C   UNL     1      -5.663  13.073  19.141  0.00  0.00    +0.000 A 
ATOM      2  C   UNL     1      -5.239  13.878  20.218  0.00  0.00    +0.000 A 
ATOM      3  C   UNL     1      -3.969  13.781  20.775  0.00  0.00    +0.000 A 
ATOM      4  N   UNL     1      -3.611  14.625  21.744  0.00  0.00    +0.000 NA
ATOM      5  C   UNL     1      -2.367  14.481  22.228  0.00  0.00    +0.000 A 
ATOM      6  N   UNL     1      -1.460  13.582  21.832  0.00  0.00    +0.000 NA
ATOM      7  C   UNL     1      -1.827  12.741  20.850  0.00  0.00    +0.000 A 
ATOM      8  N   UNL     1      -0.928  11.763  20.462  0.00  0.00    +0.000 N 
ATOM      9  C   UNL     1       0.015  11.255  21.456  0.00  0.00    +0.000 C 
ATOM     10  C   UNL     1       0.164   9.750  21.199  0.00  0.00    +0.000 C 
ATOM     11  N   UNL     1       0.586   9.469  19.812  0.00  0.00    +0.000 N 
ATOM     12  C   UNL     1       1.487   8.434  19.633  0.00  0.00    +0.000 C 
ATOM     13  O   UNL     1       1.914   7.817  20.612  0.00  0.00    +0.000 OA
ATOM     14  N   UNL     1       1.892   8.200  18.342  0.00  0.00    +0.000 N 
ATOM     15  C   UNL     1      -0.258  10.113  18.779  0.00  0.00    +0.000 C 
ATOM     16  C   UNL     1      -0.462  11.621  19.075  0.00  0.00    +0.000 C 
ATOM     17  C   UNL     1      -3.114  12.787  20.294  0.00  0.00    +0.000 A 
ATOM     18  C   UNL     1      -3.603  11.880  19.331  0.00  0.00    +0.000 A 
ATOM     19  C   UNL     1      -4.843  12.027  18.722  0.00  0.00    +0.000 A 
ATOM     20  H   UNL     1       1.743   8.940  17.679  0.00  0.00    +0.000 HD
ENDROOT
BRANCH  14  21
ATOM     21  C   UNL     1       2.827   7.207  17.951  0.00  0.00    +0.000 A 
ATOM     22  C   UNL     1       2.610   5.827  18.152  0.00  0.00    +0.000 A 
ATOM     23  C   UNL     1       3.589   4.881  17.836  0.00  0.00    +0.000 A 
ATOM     24  C   UNL     1       4.767   5.339  17.300  0.00  0.00    +0.000 A 
ATOM     25  C   UNL     1       4.976   6.678  17.059  0.00  0.00    +0.000 A 
ATOM     26  C   UNL     1       4.025   7.633  17.361  0.00  0.00    +0.000 A 
ATOM     27  O   UNL     1       6.206   6.918  16.530  0.00  0.00    +0.000 OA
ATOM     28  C   UNL     1       6.763   5.585  16.521  0.00  0.00    +0.000 C 
ATOM     29  O   UNL     1       5.837   4.573  16.958  0.00  0.00    +0.000 OA
ENDBRANCH  14  21
BRANCH   1  31
ATOM     30  C   UNL     1      -6.975  14.504  17.795  0.00  0.00    +0.000 C 
ATOM     31  O   UNL     1      -6.864  13.279  18.520  0.00  0.00    +0.000 OA
ENDBRANCH   1  31
BRANCH  19  32
ATOM     32  O   UNL     1      -5.018  11.088  17.748  0.00  0.00    +0.000 OA
ATOM     33  C   UNL     1      -4.204  11.111  16.589  0.00  0.00    +0.000 C 
ENDBRANCH  19  32
TORSDOF 3
ENDMDL
MODEL 8
REMARK VINA RESULT:      -7.8      3.685     10.901
REMARK  Name = 
REMARK  5 active torsions:
REMARK  status: ('A' for Active; 'I' for Inactive)
REMARK    1  A    between atoms: C_1  and  O_2
REMARK    2  A    between atoms: O_2  and  C_3
REMARK    3  A    between atoms: N_16  and  C_17
REMARK    4  A    between atoms: C_30  and  O_31
REMARK    5  A    between atoms: O_31  and  C_32
REMARK                            x       y       z     vdW  Elec       q    Type
REMARK                         _______ _______ _______ _____ _____    ______ ____
ROOT
ATOM      1  C   UNL     1      -5.844  13.352  19.325  0.00  0.00    +0.000 A 
ATOM      2  C   UNL     1      -5.402  14.175  20.381  0.00  0.00    +0.000 A 
ATOM      3  C   UNL     1      -4.126  14.081  20.924  0.00  0.00    +0.000 A 
ATOM      4  N   UNL     1      -3.751  14.941  21.872  0.00  0.00    +0.000 NA
ATOM      5  C   UNL     1      -2.503  14.799  22.344  0.00  0.00    +0.000 A 
ATOM      6  N   UNL     1      -1.605  13.888  21.954  0.00  0.00    +0.000 NA
ATOM      7  C   UNL     1      -1.989  13.031  20.992  0.00  0.00    +0.000 A 
ATOM      8  N   UNL     1      -1.100  12.041  20.611  0.00  0.00    +0.000 N 
ATOM      9  C   UNL     1      -0.147  11.547  21.603  0.00  0.00    +0.000 C 
ATOM     10  C   UNL     1      -0.010  10.036  21.372  0.00  0.00    +0.000 C 
ATOM     11  N   UNL     1       0.393   9.727  19.986  0.00  0.00    +0.000 N 
ATOM     12  C   UNL     1       1.286   8.684  19.815  0.00  0.00    +0.000 C 
ATOM     13  O   UNL     1       1.722   8.083  20.800  0.00  0.00    +0.000 OA
ATOM     14  N   UNL     1       1.674   8.423  18.524  0.00  0.00    +0.000 N 
ATOM     15  C   UNL     1      -0.460  10.356  18.952  0.00  0.00    +0.000 C 
ATOM     16  C   UNL     1      -0.652  11.870  19.221  0.00  0.00    +0.000 C 
ATOM     17  C   UNL     1      -3.282  13.074  20.451  0.00  0.00    +0.000 A 
ATOM     18  C   UNL     1      -3.788  12.152  19.512  0.00  0.00    +0.000 A 
ATOM     19  C   UNL     1      -5.035  12.294  18.915  0.00  0.00    +0.000 A 
ATOM     20  H   UNL     1       1.522   9.152  17.850  0.00  0.00    +0.000 HD
ENDROOT
BRANCH  14  21
ATOM     21  C   UNL     1       2.599   7.418  18.140  0.00  0.00    +0.000 A 
ATOM     22  C   UNL     1       3.807   7.703  17.468  0.00  0.00    +0.000 A 
ATOM     23  C   UNL     1       4.652   6.683  17.024  0.00  0.00    +0.000 A 
ATOM     24  C   UNL     1       4.279   5.387  17.284  0.00  0.00    +0.000 A 
ATOM     25  C   UNL     1       3.125   5.096  17.975  0.00  0.00    +0.000 A 
ATOM     26  C   UNL     1       2.272   6.085  18.425  0.00  0.00    +0.000 A 
ATOM     27  O   UNL     1       2.939   3.756  18.122  0.00  0.00    +0.000 OA
ATOM     28  C   UNL     1       4.077   3.243  17.395  0.00  0.00    +0.000 C 
ATOM     29  O   UNL     1       4.958   4.272  16.908  0.00  0.00    +0.000 OA
ENDBRANCH  14  21
BRANCH   1  31
ATOM     30  C   UNL     1      -7.026  14.419  17.579  0.00  0.00    +0.000 C 
ATOM     31  O   UNL     1      -7.051  13.553  18.715  0.00  0.00    +0.000 OA
ENDBRANCH   1  31
BRANCH  19  32
ATOM     32  O   UNL     1      -5.227  11.339  17.961  0.00  0.00    +0.000 OA
ATOM     33  C   UNL     1      -4.454  11.358  16.775  0.00  0.00    +0.000 C 
ENDBRANCH  19  32
TORSDOF 3
ENDMDL
MODEL 9
REMARK VINA RESULT:      -7.7      3.695     10.300
REMARK  Name = 
REMARK  5 active torsions:
REMARK  status: ('A' for Active; 'I' for Inactive)
REMARK    1  A    between atoms: C_1  and  O_2
REMARK    2  A    between atoms: O_2  and  C_3
REMARK    3  A    between atoms: N_16  and  C_17
REMARK    4  A    between atoms: C_30  and  O_31
REMARK    5  A    between atoms: O_31  and  C_32
REMARK                            x       y       z     vdW  Elec       q    Type
REMARK                         _______ _______ _______ _____ _____    ______ ____
ROOT
ATOM      1  C   UNL     1      -4.638  11.681  17.683  0.00  0.00    +0.000 A 
ATOM      2  C   UNL     1      -4.526  12.274  18.957  0.00  0.00    +0.000 A 
ATOM      3  C   UNL     1      -3.382  12.164  19.740  0.00  0.00    +0.000 A 
ATOM      4  N   UNL     1      -3.319  12.812  20.905  0.00  0.00    +0.000 NA
ATOM      5  C   UNL     1      -2.182  12.669  21.604  0.00  0.00    +0.000 A 
ATOM      6  N   UNL     1      -1.115  11.948  21.245  0.00  0.00    +0.000 NA
ATOM      7  C   UNL     1      -1.184  11.306  20.067  0.00  0.00    +0.000 A 
ATOM      8  N   UNL     1      -0.117  10.505  19.699  0.00  0.00    +0.000 N 
ATOM      9  C   UNL     1       0.675   9.878  20.755  0.00  0.00    +0.000 C 
ATOM     10  C   UNL     1       1.050   8.477  20.255  0.00  0.00    +0.000 C 
ATOM     11  N   UNL     1       1.758   8.527  18.960  0.00  0.00    +0.000 N 
ATOM     12  C   UNL     1       2.795   7.628  18.783  0.00  0.00    +0.000 C 
ATOM     13  O   UNL     1       3.100   6.856  19.695  0.00  0.00    +0.000 OA
ATOM     14  N   UNL     1       3.463   7.702  17.586  0.00  0.00    +0.000 N 
ATOM     15  C   UNL     1       1.055   9.304  17.914  0.00  0.00    +0.000 C 
ATOM     16  C   UNL     1       0.619  10.695  18.440  0.00  0.00    +0.000 C 
ATOM     17  C   UNL     1      -2.338  11.364  19.272  0.00  0.00    +0.000 A 
ATOM     18  C   UNL     1      -2.522  10.643  18.074  0.00  0.00    +0.000 A 
ATOM     19  C   UNL     1      -3.633  10.815  17.256  0.00  0.00    +0.000 A 
ATOM     20  H   UNL     1       3.355   8.551  17.059  0.00  0.00    +0.000 HD
ENDROOT
BRANCH  14  21
ATOM     21  C   UNL     1       4.569   6.891  17.219  0.00  0.00    +0.000 A 
ATOM     22  C   UNL     1       4.778   6.430  15.902  0.00  0.00    +0.000 A 
ATOM     23  C   UNL     1       5.826   5.560  15.593  0.00  0.00    +0.000 A 
ATOM     24  C   UNL     1       6.665   5.184  16.613  0.00  0.00    +0.000 A 
ATOM     25  C   UNL     1       6.497   5.658  17.894  0.00  0.00    +0.000 A 
ATOM     26  C   UNL     1       5.470   6.520  18.226  0.00  0.00    +0.000 A 
ATOM     27  O   UNL     1       7.429   5.162  18.751  0.00  0.00    +0.000 OA
ATOM     28  C   UNL     1       8.162   4.278  17.874  0.00  0.00    +0.000 C 
ATOM     29  O   UNL     1       7.715   4.328  16.506  0.00  0.00    +0.000 OA
ENDBRANCH  14  21
BRANCH   1  31
ATOM     30  C   UNL     1      -6.820  12.566  17.501  0.00  0.00    +0.000 C 
ATOM     31  O   UNL     1      -5.714  11.916  16.874  0.00  0.00    +0.000 OA
ENDBRANCH   1  31
BRANCH  19  32
ATOM     32  O   UNL     1      -3.505  10.090  16.108  0.00  0.00    +0.000 OA
ATOM     33  C   UNL     1      -3.055  10.719  14.921  0.00  0.00    +0.000 C 
ENDBRANCH  19  32
TORSDOF 3
ENDMDL
