MODEL 1
REMARK VINA RESULT:      -5.5      0.000      0.000
REMARK  Name = 
REMARK  2 active torsions:
REMARK  status: ('A' for Active; 'I' for Inactive)
REMARK    1  A    between atoms: C_5  and  C_6
REMARK    2  A    between atoms: C_6  and  C_7
REMARK                            x       y       z     vdW  Elec       q    Type
REMARK                         _______ _______ _______ _____ _____    ______ ____
ROOT
ATOM      1  C   UNL     1       5.298   4.668  18.960  0.00  0.00    +0.000 C 
ENDROOT
BRANCH   1   6
ATOM      2  C   UNL     1       5.536   5.001  15.178  0.00  0.00    +0.000 A 
ATOM      3  C   UNL     1       6.900   4.811  15.032  0.00  0.00    +0.000 A 
ATOM      4  N   UNL     1       7.740   4.597  16.066  0.00  0.00    +0.000 NA
ATOM      5  C   UNL     1       7.192   4.558  17.302  0.00  0.00    +0.000 A 
ATOM      6  C   UNL     1       5.833   4.722  17.556  0.00  0.00    +0.000 A 
ATOM      7  C   UNL     1       4.997   4.955  16.460  0.00  0.00    +0.000 A 
ENDBRANCH   1   6
BRANCH   1   8
ATOM      8  C   UNL     1       4.215   3.630  19.131  0.00  0.00    +0.000 C 
ATOM      9  N   UNL     1       3.024   3.954  19.570  0.00  0.00    +0.000 NA
ATOM     10  C   UNL     1       2.290   2.655  19.602  0.00  0.00    +0.000 C 
ATOM     11  C   UNL     1       3.120   1.678  18.764  0.00  0.00    +0.000 C 
ATOM     12  N   UNL     1       4.420   2.304  18.828  0.00  0.00    +0.000 N 
ATOM     13  H   UNL     1       5.066   2.103  18.074  0.00  0.00    +0.000 HD
ENDBRANCH   1   8
TORSDOF 2
ENDMDL
MODEL 2
REMARK VINA RESULT:      -5.5      2.137      5.253
REMARK  Name = 
REMARK  2 active torsions:
REMARK  status: ('A' for Active; 'I' for Inactive)
REMARK    1  A    between atoms: C_5  and  C_6
REMARK    2  A    between atoms: C_6  and  C_7
REMARK                            x       y       z     vdW  Elec       q    Type
REMARK                         _______ _______ _______ _____ _____    ______ ____
ROOT
ATOM      1  C   UNL     1       3.939   2.831  18.231  0.00  0.00    +0.000 C 
ENDROOT
BRANCH   1   6
ATOM      2  C   UNL     1       0.829   3.165  20.398  0.00  0.00    +0.000 A 
ATOM      3  C   UNL     1       1.396   2.879  21.629  0.00  0.00    +0.000 A 
ATOM      4  N   UNL     1       2.699   2.576  21.801  0.00  0.00    +0.000 NA
ATOM      5  C   UNL     1       3.477   2.572  20.694  0.00  0.00    +0.000 A 
ATOM      6  C   UNL     1       3.012   2.859  19.415  0.00  0.00    +0.000 A 
ATOM      7  C   UNL     1       1.652   3.155  19.276  0.00  0.00    +0.000 A 
ENDBRANCH   1   6
BRANCH   1   8
ATOM      8  C   UNL     1       4.846   4.037  18.173  0.00  0.00    +0.000 C 
ATOM      9  N   UNL     1       4.440   5.171  17.657  0.00  0.00    +0.000 NA
ATOM     10  C   UNL     1       5.628   6.065  17.784  0.00  0.00    +0.000 C 
ATOM     11  C   UNL     1       6.573   5.378  18.775  0.00  0.00    +0.000 C 
ATOM     12  N   UNL     1       6.131   4.008  18.664  0.00  0.00    +0.000 N 
ATOM     13  H   UNL     1       6.303   3.402  19.458  0.00  0.00    +0.000 HD
ENDBRANCH   1   8
TORSDOF 2
ENDMDL
MODEL 3
REMARK VINA RESULT:      -5.5      1.110      1.472
REMARK  Name = 
REMARK  2 active torsions:
REMARK  status: ('A' for Active; 'I' for Inactive)
REMARK    1  A    between atoms: C_5  and  C_6
REMARK    2  A    between atoms: C_6  and  C_7
REMARK                            x       y       z     vdW  Elec       q    Type
REMARK                         _______ _______ _______ _____ _____    ______ ____
ROOT
ATOM      1  C   UNL     1       4.551   5.483  18.037  0.00  0.00    +0.000 C 
ENDROOT
BRANCH   1   6
ATOM      2  C   UNL     1       5.879   4.085  14.757  0.00  0.00    +0.000 A 
ATOM      3  C   UNL     1       7.054   4.813  14.675  0.00  0.00    +0.000 A 
ATOM      4  N   UNL     1       7.435   5.725  15.593  0.00  0.00    +0.000 NA
ATOM      5  C   UNL     1       6.611   5.910  16.649  0.00  0.00    +0.000 A 
ATOM      6  C   UNL     1       5.416   5.221  16.836  0.00  0.00    +0.000 A 
ATOM      7  C   UNL     1       5.050   4.294  15.854  0.00  0.00    +0.000 A 
ENDBRANCH   1   6
BRANCH   1   8
ATOM      8  C   UNL     1       4.201   4.222  18.789  0.00  0.00    +0.000 C 
ATOM      9  N   UNL     1       5.121   3.507  19.387  0.00  0.00    +0.000 NA
ATOM     10  C   UNL     1       4.360   2.368  19.980  0.00  0.00    +0.000 C 
ATOM     11  C   UNL     1       2.885   2.780  19.945  0.00  0.00    +0.000 C 
ATOM     12  N   UNL     1       2.905   3.769  18.893  0.00  0.00    +0.000 N 
ATOM     13  H   UNL     1       2.176   4.473  18.907  0.00  0.00    +0.000 HD
ENDBRANCH   1   8
TORSDOF 2
ENDMDL
MODEL 4
REMARK VINA RESULT:      -5.4      1.844      4.686
REMARK  Name = 
REMARK  2 active torsions:
REMARK  status: ('A' for Active; 'I' for Inactive)
REMARK    1  A    between atoms: C_5  and  C_6
REMARK    2  A    between atoms: C_6  and  C_7
REMARK                            x       y       z     vdW  Elec       q    Type
REMARK                         _______ _______ _______ _____ _____    ______ ____
ROOT
ATOM      1  C   UNL     1       4.912   3.810  16.566  0.00  0.00    +0.000 C 
ENDROOT
BRANCH   1   6
ATOM      2  C   UNL     1       1.539   4.088  18.306  0.00  0.00    +0.000 A 
ATOM      3  C   UNL     1       1.468   2.812  18.838  0.00  0.00    +0.000 A 
ATOM      4  N   UNL     1       2.422   1.874  18.663  0.00  0.00    +0.000 NA
ATOM      5  C   UNL     1       3.503   2.230  17.933  0.00  0.00    +0.000 A 
ATOM      6  C   UNL     1       3.681   3.489  17.368  0.00  0.00    +0.000 A 
ATOM      7  C   UNL     1       2.664   4.429  17.560  0.00  0.00    +0.000 A 
ENDBRANCH   1   6
BRANCH   1   8
ATOM      8  C   UNL     1       5.883   4.689  17.316  0.00  0.00    +0.000 C 
ATOM      9  N   UNL     1       6.228   5.868  16.860  0.00  0.00    +0.000 NA
ATOM     10  C   UNL     1       7.193   6.376  17.878  0.00  0.00    +0.000 C 
ATOM     11  C   UNL     1       7.016   5.486  19.112  0.00  0.00    +0.000 C 
ATOM     12  N   UNL     1       6.443   4.304  18.513  0.00  0.00    +0.000 N 
ATOM     13  H   UNL     1       5.879   3.711  19.111  0.00  0.00    +0.000 HD
ENDBRANCH   1   8
TORSDOF 2
ENDMDL
MODEL 5
REMARK VINA RESULT:      -5.4      1.790      4.693
REMARK  Name = 
REMARK  2 active torsions:
REMARK  status: ('A' for Active; 'I' for Inactive)
REMARK    1  A    between atoms: C_5  and  C_6
REMARK    2  A    between atoms: C_6  and  C_7
REMARK                            x       y       z     vdW  Elec       q    Type
REMARK                         _______ _______ _______ _____ _____    ______ ____
ROOT
ATOM      1  C   UNL     1       4.503   5.351  19.404  0.00  0.00    +0.000 C 
ENDROOT
BRANCH   1   6
ATOM      2  C   UNL     1       1.342   3.915  17.848  0.00  0.00    +0.000 A 
ATOM      3  C   UNL     1       1.286   2.719  18.544  0.00  0.00    +0.000 A 
ATOM      4  N   UNL     1       2.199   2.345  19.463  0.00  0.00    +0.000 NA
ATOM      5  C   UNL     1       3.209   3.211  19.709  0.00  0.00    +0.000 A 
ATOM      6  C   UNL     1       3.350   4.443  19.078  0.00  0.00    +0.000 A 
ATOM      7  C   UNL     1       2.390   4.788  18.121  0.00  0.00    +0.000 A 
ENDBRANCH   1   6
BRANCH   1   8
ATOM      8  C   UNL     1       5.639   5.228  18.417  0.00  0.00    +0.000 C 
ATOM      9  N   UNL     1       5.788   6.086  17.438  0.00  0.00    +0.000 NA
ATOM     10  C   UNL     1       6.996   5.593  16.713  0.00  0.00    +0.000 C 
ATOM     11  C   UNL     1       7.682   4.600  17.656  0.00  0.00    +0.000 C 
ATOM     12  N   UNL     1       6.574   4.221  18.502  0.00  0.00    +0.000 N 
ATOM     13  H   UNL     1       6.797   3.883  19.430  0.00  0.00    +0.000 HD
ENDBRANCH   1   8
TORSDOF 2
ENDMDL
MODEL 6
REMARK VINA RESULT:      -5.4      1.827      5.065
REMARK  Name = 
REMARK  2 active torsions:
REMARK  status: ('A' for Active; 'I' for Inactive)
REMARK    1  A    between atoms: C_5  and  C_6
REMARK    2  A    between atoms: C_6  and  C_7
REMARK                            x       y       z     vdW  Elec       q    Type
REMARK                         _______ _______ _______ _____ _____    ______ ____
ROOT
ATOM      1  C   UNL     1       3.092   3.494  17.238  0.00  0.00    +0.000 C 
ENDROOT
BRANCH   1   6
ATOM      2  C   UNL     1       0.968   3.775  20.382  0.00  0.00    +0.000 A 
ATOM      3  C   UNL     1       1.838   3.183  21.281  0.00  0.00    +0.000 A 
ATOM      4  N   UNL     1       3.048   2.693  20.940  0.00  0.00    +0.000 NA
ATOM      5  C   UNL     1       3.411   2.811  19.642  0.00  0.00    +0.000 A 
ATOM      6  C   UNL     1       2.619   3.402  18.662  0.00  0.00    +0.000 A 
ATOM      7  C   UNL     1       1.367   3.886  19.054  0.00  0.00    +0.000 A 
ENDBRANCH   1   6
BRANCH   1   8
ATOM      8  C   UNL     1       4.376   4.276  17.100  0.00  0.00    +0.000 C 
ATOM      9  N   UNL     1       4.406   5.574  17.271  0.00  0.00    +0.000 NA
ATOM     10  C   UNL     1       5.834   5.933  17.031  0.00  0.00    +0.000 C 
ATOM     11  C   UNL     1       6.618   4.619  17.093  0.00  0.00    +0.000 C 
ATOM     12  N   UNL     1       5.573   3.667  16.799  0.00  0.00    +0.000 N 
ATOM     13  H   UNL     1       5.702   2.721  17.139  0.00  0.00    +0.000 HD
ENDBRANCH   1   8
TORSDOF 2
ENDMDL
MODEL 7
REMARK VINA RESULT:      -5.4      0.811      1.371
REMARK  Name = 
REMARK  2 active torsions:
REMARK  status: ('A' for Active; 'I' for Inactive)
REMARK    1  A    between atoms: C_5  and  C_6
REMARK    2  A    between atoms: C_6  and  C_7
REMARK                            x       y       z     vdW  Elec       q    Type
REMARK                         _______ _______ _______ _____ _____    ______ ____
ROOT
ATOM      1  C   UNL     1       5.461   5.429  18.958  0.00  0.00    +0.000 C 
ENDROOT
BRANCH   1   6
ATOM      2  C   UNL     1       5.614   5.146  15.167  0.00  0.00    +0.000 A 
ATOM      3  C   UNL     1       6.927   4.724  15.038  0.00  0.00    +0.000 A 
ATOM      4  N   UNL     1       7.760   4.540  16.083  0.00  0.00    +0.000 NA
ATOM      5  C   UNL     1       7.256   4.775  17.315  0.00  0.00    +0.000 A 
ATOM      6  C   UNL     1       5.948   5.186  17.557  0.00  0.00    +0.000 A 
ATOM      7  C   UNL     1       5.120   5.379  16.446  0.00  0.00    +0.000 A 
ENDBRANCH   1   6
BRANCH   1   8
ATOM      8  C   UNL     1       4.500   4.366  19.434  0.00  0.00    +0.000 C 
ATOM      9  N   UNL     1       4.870   3.114  19.545  0.00  0.00    +0.000 NA
ATOM     10  C   UNL     1       3.637   2.419  20.019  0.00  0.00    +0.000 C 
ATOM     11  C   UNL     1       2.691   3.519  20.509  0.00  0.00    +0.000 C 
ATOM     12  N   UNL     1       3.201   4.657  19.781  0.00  0.00    +0.000 N 
ATOM     13  H   UNL     1       3.029   5.574  20.178  0.00  0.00    +0.000 HD
ENDBRANCH   1   8
TORSDOF 2
ENDMDL
MODEL 8
REMARK VINA RESULT:      -5.4      1.746      2.506
REMARK  Name = 
REMARK  2 active torsions:
REMARK  status: ('A' for Active; 'I' for Inactive)
REMARK    1  A    between atoms: C_5  and  C_6
REMARK    2  A    between atoms: C_6  and  C_7
REMARK                            x       y       z     vdW  Elec       q    Type
REMARK                         _______ _______ _______ _____ _____    ______ ____
ROOT
ATOM      1  C   UNL     1       2.654   5.492  17.994  0.00  0.00    +0.000 C 
ENDROOT
BRANCH   1   6
ATOM      2  C   UNL     1       6.142   5.148  16.513  0.00  0.00    +0.000 A 
ATOM      3  C   UNL     1       6.795   4.635  17.622  0.00  0.00    +0.000 A 
ATOM      4  N   UNL     1       6.191   4.407  18.807  0.00  0.00    +0.000 NA
ATOM      5  C   UNL     1       4.871   4.693  18.885  0.00  0.00    +0.000 A 
ATOM      6  C   UNL     1       4.119   5.197  17.828  0.00  0.00    +0.000 A 
ATOM      7  C   UNL     1       4.785   5.432  16.621  0.00  0.00    +0.000 A 
ENDBRANCH   1   6
BRANCH   1   8
ATOM      8  C   UNL     1       1.884   4.322  18.557  0.00  0.00    +0.000 C 
ATOM      9  N   UNL     1       1.642   3.255  17.837  0.00  0.00    +0.000 NA
ATOM     10  C   UNL     1       0.859   2.375  18.755  0.00  0.00    +0.000 C 
ATOM     11  C   UNL     1       1.054   2.949  20.161  0.00  0.00    +0.000 C 
ATOM     12  N   UNL     1       1.410   4.314  19.849  0.00  0.00    +0.000 N 
ATOM     13  H   UNL     1       1.956   4.817  20.539  0.00  0.00    +0.000 HD
ENDBRANCH   1   8
TORSDOF 2
ENDMDL
MODEL 9
REMARK VINA RESULT:      -5.3      1.875      4.859
REMARK  Name = 
REMARK  2 active torsions:
REMARK  status: ('A' for Active; 'I' for Inactive)
REMARK    1  A    between atoms: C_5  and  C_6
REMARK    2  A    between atoms: C_6  and  C_7
REMARK                            x       y       z     vdW  Elec       q    Type
REMARK                         _______ _______ _______ _____ _____    ______ ____
ROOT
ATOM      1  C   UNL     1       4.185   5.296  19.505  0.00  0.00    +0.000 C 
ENDROOT
BRANCH   1   6
ATOM      2  C   UNL     1       1.065   3.168  19.973  0.00  0.00    +0.000 A 
ATOM      3  C   UNL     1       0.963   2.655  18.690  0.00  0.00    +0.000 A 
ATOM      4  N   UNL     1       1.819   2.958  17.692  0.00  0.00    +0.000 NA
ATOM      5  C   UNL     1       2.832   3.803  17.992  0.00  0.00    +0.000 A 
ATOM      6  C   UNL     1       3.034   4.362  19.250  0.00  0.00    +0.000 A 
ATOM      7  C   UNL     1       2.118   4.033  20.254  0.00  0.00    +0.000 A 
ENDBRANCH   1   6
BRANCH   1   8
ATOM      8  C   UNL     1       5.276   5.172  18.470  0.00  0.00    +0.000 C 
ATOM      9  N   UNL     1       5.349   5.996  17.454  0.00  0.00    +0.000 NA
ATOM     10  C   UNL     1       6.537   5.516  16.689  0.00  0.00    +0.000 C 
ATOM     11  C   UNL     1       7.302   4.584  17.634  0.00  0.00    +0.000 C 
ATOM     12  N   UNL     1       6.249   4.202  18.546  0.00  0.00    +0.000 N 
ATOM     13  H   UNL     1       6.528   3.907  19.475  0.00  0.00    +0.000 HD
ENDBRANCH   1   8
TORSDOF 2
ENDMDL
