MODEL 1
REMARK VINA RESULT:      -7.4      0.000      0.000
REMARK  Name = 
REMARK  9 active torsions:
REMARK  status: ('A' for Active; 'I' for Inactive)
REMARK    1  A    between atoms: C_1  and  O_2
REMARK    2  A    between atoms: O_2  and  C_3
REMARK    3  A    between atoms: C_3  and  C_4
REMARK    4  A    between atoms: C_4  and  N_5
REMARK    5  A    between atoms: C_11  and  C_12
REMARK    6  A    between atoms: N_14  and  C_15
REMARK    7  A    between atoms: C_15  and  C_16
REMARK    8  A    between atoms: C_16  and  C_17
REMARK    9  A    between atoms: C_17  and  N_18
REMARK                            x       y       z     vdW  Elec       q    Type
REMARK                         _______ _______ _______ _____ _____    ______ ____
ROOT
ATOM      1  N   UNL     1       3.908   3.892  18.433  0.00  0.00    +0.000 N 
ATOM      2  C   UNL     1       3.808   3.558  17.033  0.00  0.00    +0.000 C 
ATOM      3  C   UNL     1       5.004   4.245  16.458  0.00  0.00    +0.000 A 
ATOM      4  C   UNL     1       5.400   4.272  15.131  0.00  0.00    +0.000 A 
ATOM      5  C   UNL     1       6.533   5.012  14.807  0.00  0.00    +0.000 A 
ATOM      6  C   UNL     1       7.242   5.713  15.801  0.00  0.00    +0.000 A 
ATOM      7  C   UNL     1       6.848   5.695  17.161  0.00  0.00    +0.000 A 
ATOM      8  C   UNL     1       5.723   4.932  17.457  0.00  0.00    +0.000 A 
ATOM      9  C   UNL     1       5.000   4.681  18.719  0.00  0.00    +0.000 C 
ATOM     10  O   UNL     1       5.301   5.116  19.814  0.00  0.00    +0.000 OA
ENDROOT
BRANCH   7  11
ATOM     11  C   UNL     1       7.663   6.533  18.101  0.00  0.00    +0.000 C 
ATOM     12  O   UNL     1       8.177   6.009  19.085  0.00  0.00    +0.000 OA
ATOM     13  N   UNL     1       7.823   7.870  17.833  0.00  0.00    +0.000 N 
ATOM     14  H   UNL     1       7.424   8.274  16.991  0.00  0.00    +0.000 HD
BRANCH  13  15
ATOM     15  C   UNL     1       8.659   8.760  18.608  0.00  0.00    +0.000 C 
BRANCH  15  16
ATOM     16  C   UNL     1       8.697  10.165  18.012  0.00  0.00    +0.000 C 
BRANCH  16  17
ATOM     17  C   UNL     1       9.280  11.156  19.019  0.00  0.00    +0.000 C 
BRANCH  17  18
ATOM     18  N   UNL     1      10.199  12.106  18.416  0.00  0.00    +0.000 N 
ATOM     19  C   UNL     1      11.521  11.735  17.975  0.00  0.00    +0.000 C 
ATOM     20  C   UNL     1      12.137  13.066  17.582  0.00  0.00    +0.000 C 
ATOM     21  C   UNL     1      10.948  13.879  17.084  0.00  0.00    +0.000 C 
ATOM     22  C   UNL     1       9.798  13.326  17.889  0.00  0.00    +0.000 C 
ATOM     23  O   UNL     1       8.697  13.842  17.993  0.00  0.00    +0.000 OA
ENDBRANCH  17  18
ENDBRANCH  16  17
ENDBRANCH  15  16
ENDBRANCH  13  15
ENDBRANCH   7  11
BRANCH   1  24
ATOM     24  C   UNL     1       2.876   3.587  19.413  0.00  0.00    +0.000 C 
BRANCH  24  25
ATOM     25  C   UNL     1       1.605   2.987  18.818  0.00  0.00    +0.000 C 
BRANCH  25  27
ATOM     26  C   UNL     1       1.184   2.955  21.135  0.00  0.00    +0.000 C 
ATOM     27  O   UNL     1       0.618   2.829  19.839  0.00  0.00    +0.000 OA
ENDBRANCH  25  27
ENDBRANCH  24  25
ENDBRANCH   1  24
TORSDOF 8
ENDMDL
MODEL 2
REMARK VINA RESULT:      -7.3      5.750      8.867
REMARK  Name = 
REMARK  9 active torsions:
REMARK  status: ('A' for Active; 'I' for Inactive)
REMARK    1  A    between atoms: C_1  and  O_2
REMARK    2  A    between atoms: O_2  and  C_3
REMARK    3  A    between atoms: C_3  and  C_4
REMARK    4  A    between atoms: C_4  and  N_5
REMARK    5  A    between atoms: C_11  and  C_12
REMARK    6  A    between atoms: N_14  and  C_15
REMARK    7  A    between atoms: C_15  and  C_16
REMARK    8  A    between atoms: C_16  and  C_17
REMARK    9  A    between atoms: C_17  and  N_18
REMARK                            x       y       z     vdW  Elec       q    Type
REMARK                         _______ _______ _______ _____ _____    ______ ____
ROOT
ATOM      1  N   UNL     1       4.321   5.538  17.114  0.00  0.00    +0.000 N 
ATOM      2  C   UNL     1       4.154   4.245  17.733  0.00  0.00    +0.000 C 
ATOM      3  C   UNL     1       3.225   4.553  18.862  0.00  0.00    +0.000 A 
ATOM      4  C   UNL     1       2.731   3.671  19.807  0.00  0.00    +0.000 A 
ATOM      5  C   UNL     1       1.904   4.182  20.804  0.00  0.00    +0.000 A 
ATOM      6  C   UNL     1       1.594   5.555  20.844  0.00  0.00    +0.000 A 
ATOM      7  C   UNL     1       2.093   6.469  19.885  0.00  0.00    +0.000 A 
ATOM      8  C   UNL     1       2.901   5.925  18.891  0.00  0.00    +0.000 A 
ATOM      9  C   UNL     1       3.613   6.533  17.751  0.00  0.00    +0.000 C 
ATOM     10  O   UNL     1       3.599   7.709  17.444  0.00  0.00    +0.000 OA
ENDROOT
BRANCH   7  11
ATOM     11  C   UNL     1       1.727   7.909  20.084  0.00  0.00    +0.000 C 
ATOM     12  O   UNL     1       1.704   8.375  21.220  0.00  0.00    +0.000 OA
ATOM     13  N   UNL     1       1.435   8.680  18.986  0.00  0.00    +0.000 N 
ATOM     14  H   UNL     1       1.501   8.286  18.053  0.00  0.00    +0.000 HD
BRANCH  13  15
ATOM     15  C   UNL     1       1.161  10.099  19.038  0.00  0.00    +0.000 C 
BRANCH  15  16
ATOM     16  C   UNL     1      -0.338  10.388  19.047  0.00  0.00    +0.000 C 
BRANCH  16  17
ATOM     17  C   UNL     1      -0.953  10.054  17.688  0.00  0.00    +0.000 C 
BRANCH  17  18
ATOM     18  N   UNL     1      -2.321  10.527  17.552  0.00  0.00    +0.000 N 
ATOM     19  C   UNL     1      -2.884  11.536  18.413  0.00  0.00    +0.000 C 
ATOM     20  C   UNL     1      -4.343  11.568  17.996  0.00  0.00    +0.000 C 
ATOM     21  C   UNL     1      -4.300  11.220  16.514  0.00  0.00    +0.000 C 
ATOM     22  C   UNL     1      -3.083  10.335  16.407  0.00  0.00    +0.000 C 
ATOM     23  O   UNL     1      -2.802   9.634  15.450  0.00  0.00    +0.000 OA
ENDBRANCH  17  18
ENDBRANCH  16  17
ENDBRANCH  15  16
ENDBRANCH  13  15
ENDBRANCH   7  11
BRANCH   1  24
ATOM     24  C   UNL     1       5.274   5.806  16.047  0.00  0.00    +0.000 C 
BRANCH  24  25
ATOM     25  C   UNL     1       6.730   5.541  16.425  0.00  0.00    +0.000 C 
BRANCH  25  27
ATOM     26  C   UNL     1       6.966   4.787  14.206  0.00  0.00    +0.000 C 
ATOM     27  O   UNL     1       7.545   5.552  15.252  0.00  0.00    +0.000 OA
ENDBRANCH  25  27
ENDBRANCH  24  25
ENDBRANCH   1  24
TORSDOF 8
ENDMDL
MODEL 3
REMARK VINA RESULT:      -7.3      5.269      7.176
REMARK  Name = 
REMARK  9 active torsions:
REMARK  status: ('A' for Active; 'I' for Inactive)
REMARK    1  A    between atoms: C_1  and  O_2
REMARK    2  A    between atoms: O_2  and  C_3
REMARK    3  A    between atoms: C_3  and  C_4
REMARK    4  A    between atoms: C_4  and  N_5
REMARK    5  A    between atoms: C_11  and  C_12
REMARK    6  A    between atoms: N_14  and  C_15
REMARK    7  A    between atoms: C_15  and  C_16
REMARK    8  A    between atoms: C_16  and  C_17
REMARK    9  A    between atoms: C_17  and  N_18
REMARK                            x       y       z     vdW  Elec       q    Type
REMARK                         _______ _______ _______ _____ _____    ______ ____
ROOT
ATOM      1  N   UNL     1       4.475   4.094  17.210  0.00  0.00    +0.000 N 
ATOM      2  C   UNL     1       4.096   2.963  18.021  0.00  0.00    +0.000 C 
ATOM      3  C   UNL     1       3.158   3.582  19.007  0.00  0.00    +0.000 A 
ATOM      4  C   UNL     1       2.494   2.950  20.045  0.00  0.00    +0.000 A 
ATOM      5  C   UNL     1       1.694   3.731  20.874  0.00  0.00    +0.000 A 
ATOM      6  C   UNL     1       1.577   5.118  20.661  0.00  0.00    +0.000 A 
ATOM      7  C   UNL     1       2.251   5.777  19.605  0.00  0.00    +0.000 A 
ATOM      8  C   UNL     1       3.028   4.967  18.782  0.00  0.00    +0.000 A 
ATOM      9  C   UNL     1       3.880   5.269  17.614  0.00  0.00    +0.000 C 
ATOM     10  O   UNL     1       4.047   6.364  17.115  0.00  0.00    +0.000 OA
ENDROOT
BRANCH   7  11
ATOM     11  C   UNL     1       2.079   7.265  19.531  0.00  0.00    +0.000 C 
ATOM     12  O   UNL     1       2.015   7.917  20.569  0.00  0.00    +0.000 OA
ATOM     13  N   UNL     1       2.008   7.866  18.300  0.00  0.00    +0.000 N 
ATOM     14  H   UNL     1       2.106   7.313  17.453  0.00  0.00    +0.000 HD
BRANCH  13  15
ATOM     15  C   UNL     1       1.938   9.297  18.096  0.00  0.00    +0.000 C 
BRANCH  15  16
ATOM     16  C   UNL     1       0.511   9.762  17.817  0.00  0.00    +0.000 C 
BRANCH  16  17
ATOM     17  C   UNL     1      -0.089  10.415  19.061  0.00  0.00    +0.000 C 
BRANCH  17  18
ATOM     18  N   UNL     1       0.586  11.646  19.439  0.00  0.00    +0.000 N 
ATOM     19  C   UNL     1       0.468  12.863  18.676  0.00  0.00    +0.000 C 
ATOM     20  C   UNL     1       1.457  13.792  19.355  0.00  0.00    +0.000 C 
ATOM     21  C   UNL     1       1.428  13.344  20.811  0.00  0.00    +0.000 C 
ATOM     22  C   UNL     1       1.098  11.876  20.710  0.00  0.00    +0.000 C 
ATOM     23  O   UNL     1       1.207  11.063  21.612  0.00  0.00    +0.000 OA
ENDBRANCH  17  18
ENDBRANCH  16  17
ENDBRANCH  15  16
ENDBRANCH  13  15
ENDBRANCH   7  11
BRANCH   1  24
ATOM     24  C   UNL     1       5.513   4.046  16.191  0.00  0.00    +0.000 C 
BRANCH  24  25
ATOM     25  C   UNL     1       6.871   4.570  16.653  0.00  0.00    +0.000 C 
BRANCH  25  27
ATOM     26  C   UNL     1       7.078   4.997  14.347  0.00  0.00    +0.000 C 
ATOM     27  O   UNL     1       7.428   5.425  15.654  0.00  0.00    +0.000 OA
ENDBRANCH  25  27
ENDBRANCH  24  25
ENDBRANCH   1  24
TORSDOF 8
ENDMDL
MODEL 4
REMARK VINA RESULT:      -7.3      3.896      6.445
REMARK  Name = 
REMARK  9 active torsions:
REMARK  status: ('A' for Active; 'I' for Inactive)
REMARK    1  A    between atoms: C_1  and  O_2
REMARK    2  A    between atoms: O_2  and  C_3
REMARK    3  A    between atoms: C_3  and  C_4
REMARK    4  A    between atoms: C_4  and  N_5
REMARK    5  A    between atoms: C_11  and  C_12
REMARK    6  A    between atoms: N_14  and  C_15
REMARK    7  A    between atoms: C_15  and  C_16
REMARK    8  A    between atoms: C_16  and  C_17
REMARK    9  A    between atoms: C_17  and  N_18
REMARK                            x       y       z     vdW  Elec       q    Type
REMARK                         _______ _______ _______ _____ _____    ______ ____
ROOT
ATOM      1  N   UNL     1       1.970   7.202  19.962  0.00  0.00    +0.000 N 
ATOM      2  C   UNL     1       1.627   6.427  21.130  0.00  0.00    +0.000 C 
ATOM      3  C   UNL     1       1.941   5.034  20.687  0.00  0.00    +0.000 A 
ATOM      4  C   UNL     1       1.788   3.867  21.415  0.00  0.00    +0.000 A 
ATOM      5  C   UNL     1       2.106   2.665  20.790  0.00  0.00    +0.000 A 
ATOM      6  C   UNL     1       2.561   2.647  19.458  0.00  0.00    +0.000 A 
ATOM      7  C   UNL     1       2.722   3.832  18.701  0.00  0.00    +0.000 A 
ATOM      8  C   UNL     1       2.413   5.019  19.358  0.00  0.00    +0.000 A 
ATOM      9  C   UNL     1       2.429   6.428  18.919  0.00  0.00    +0.000 C 
ATOM     10  O   UNL     1       2.764   6.831  17.823  0.00  0.00    +0.000 OA
ENDROOT
BRANCH   7  11
ATOM     11  C   UNL     1       3.160   3.659  17.277  0.00  0.00    +0.000 C 
ATOM     12  O   UNL     1       2.458   3.013  16.504  0.00  0.00    +0.000 OA
ATOM     13  N   UNL     1       4.335   4.237  16.867  0.00  0.00    +0.000 N 
ATOM     14  H   UNL     1       4.879   4.802  17.512  0.00  0.00    +0.000 HD
BRANCH  13  15
ATOM     15  C   UNL     1       4.817   4.222  15.504  0.00  0.00    +0.000 C 
BRANCH  15  16
ATOM     16  C   UNL     1       6.319   3.956  15.435  0.00  0.00    +0.000 C 
BRANCH  16  17
ATOM     17  C   UNL     1       7.099   5.257  15.613  0.00  0.00    +0.000 C 
BRANCH  17  18
ATOM     18  N   UNL     1       7.331   5.595  17.007  0.00  0.00    +0.000 N 
ATOM     19  C   UNL     1       7.749   4.621  17.984  0.00  0.00    +0.000 C 
ATOM     20  C   UNL     1       7.696   5.397  19.287  0.00  0.00    +0.000 C 
ATOM     21  C   UNL     1       8.038   6.822  18.871  0.00  0.00    +0.000 C 
ATOM     22  C   UNL     1       7.520   6.896  17.455  0.00  0.00    +0.000 C 
ATOM     23  O   UNL     1       7.364   7.921  16.814  0.00  0.00    +0.000 OA
ENDBRANCH  17  18
ENDBRANCH  16  17
ENDBRANCH  15  16
ENDBRANCH  13  15
ENDBRANCH   7  11
BRANCH   1  24
ATOM     24  C   UNL     1       1.692   8.625  19.826  0.00  0.00    +0.000 C 
BRANCH  24  25
ATOM     25  C   UNL     1       0.717   9.175  20.864  0.00  0.00    +0.000 C 
BRANCH  25  27
ATOM     26  C   UNL     1      -0.470  10.375  19.222  0.00  0.00    +0.000 C 
ATOM     27  O   UNL     1       0.238  10.455  20.449  0.00  0.00    +0.000 OA
ENDBRANCH  25  27
ENDBRANCH  24  25
ENDBRANCH   1  24
TORSDOF 8
ENDMDL
MODEL 5
REMARK VINA RESULT:      -7.2      1.262      1.422
REMARK  Name = 
REMARK  9 active torsions:
REMARK  status: ('A' for Active; 'I' for Inactive)
REMARK    1  A    between atoms: C_1  and  O_2
REMARK    2  A    between atoms: O_2  and  C_3
REMARK    3  A    between atoms: C_3  and  C_4
REMARK    4  A    between atoms: C_4  and  N_5
REMARK    5  A    between atoms: C_11  and  C_12
REMARK    6  A    between atoms: N_14  and  C_15
REMARK    7  A    between atoms: C_15  and  C_16
REMARK    8  A    between atoms: C_16  and  C_17
REMARK    9  A    between atoms: C_17  and  N_18
REMARK                            x       y       z     vdW  Elec       q    Type
REMARK                         _______ _______ _______ _____ _____    ______ ____
ROOT
ATOM      1  N   UNL     1       3.190   4.306  18.360  0.00  0.00    +0.000 N 
ATOM      2  C   UNL     1       3.204   3.770  17.019  0.00  0.00    +0.000 C 
ATOM      3  C   UNL     1       4.594   4.087  16.569  0.00  0.00    +0.000 A 
ATOM      4  C   UNL     1       5.160   3.807  15.337  0.00  0.00    +0.000 A 
ATOM      5  C   UNL     1       6.468   4.230  15.112  0.00  0.00    +0.000 A 
ATOM      6  C   UNL     1       7.179   4.924  16.110  0.00  0.00    +0.000 A 
ATOM      7  C   UNL     1       6.612   5.217  17.373  0.00  0.00    +0.000 A 
ATOM      8  C   UNL     1       5.311   4.766  17.574  0.00  0.00    +0.000 A 
ATOM      9  C   UNL     1       4.386   4.886  18.718  0.00  0.00    +0.000 C 
ATOM     10  O   UNL     1       4.629   5.427  19.780  0.00  0.00    +0.000 OA
ENDROOT
BRANCH   7  11
ATOM     11  C   UNL     1       7.464   6.012  18.317  0.00  0.00    +0.000 C 
ATOM     12  O   UNL     1       7.923   5.470  19.319  0.00  0.00    +0.000 OA
ATOM     13  N   UNL     1       7.720   7.330  18.033  0.00  0.00    +0.000 N 
ATOM     14  H   UNL     1       7.366   7.748  17.178  0.00  0.00    +0.000 HD
BRANCH  13  15
ATOM     15  C   UNL     1       8.600   8.174  18.812  0.00  0.00    +0.000 C 
BRANCH  15  16
ATOM     16  C   UNL     1       8.606   9.612  18.301  0.00  0.00    +0.000 C 
BRANCH  16  17
ATOM     17  C   UNL     1       9.659  10.436  19.041  0.00  0.00    +0.000 C 
BRANCH  17  18
ATOM     18  N   UNL     1       9.601  11.853  18.721  0.00  0.00    +0.000 N 
ATOM     19  C   UNL     1       8.551  12.425  17.915  0.00  0.00    +0.000 C 
ATOM     20  C   UNL     1       9.006  13.861  17.729  0.00  0.00    +0.000 C 
ATOM     21  C   UNL     1       9.760  14.169  19.017  0.00  0.00    +0.000 C 
ATOM     22  C   UNL     1      10.308  12.822  19.420  0.00  0.00    +0.000 C 
ATOM     23  O   UNL     1      11.172  12.635  20.259  0.00  0.00    +0.000 OA
ENDBRANCH  17  18
ENDBRANCH  16  17
ENDBRANCH  15  16
ENDBRANCH  13  15
ENDBRANCH   7  11
BRANCH   1  24
ATOM     24  C   UNL     1       1.993   4.392  19.183  0.00  0.00    +0.000 C 
BRANCH  24  25
ATOM     25  C   UNL     1       1.206   3.087  19.284  0.00  0.00    +0.000 C 
BRANCH  25  27
ATOM     26  C   UNL     1       1.897   2.977  21.533  0.00  0.00    +0.000 C 
ATOM     27  O   UNL     1       1.759   2.265  20.313  0.00  0.00    +0.000 OA
ENDBRANCH  25  27
ENDBRANCH  24  25
ENDBRANCH   1  24
TORSDOF 8
ENDMDL
MODEL 6
REMARK VINA RESULT:      -7.1      2.422      4.248
REMARK  Name = 
REMARK  9 active torsions:
REMARK  status: ('A' for Active; 'I' for Inactive)
REMARK    1  A    between atoms: C_1  and  O_2
REMARK    2  A    between atoms: O_2  and  C_3
REMARK    3  A    between atoms: C_3  and  C_4
REMARK    4  A    between atoms: C_4  and  N_5
REMARK    5  A    between atoms: C_11  and  C_12
REMARK    6  A    between atoms: N_14  and  C_15
REMARK    7  A    between atoms: C_15  and  C_16
REMARK    8  A    between atoms: C_16  and  C_17
REMARK    9  A    between atoms: C_17  and  N_18
REMARK                            x       y       z     vdW  Elec       q    Type
REMARK                         _______ _______ _______ _____ _____    ______ ____
ROOT
ATOM      1  N   UNL     1       6.143   4.374  14.550  0.00  0.00    +0.000 N 
ATOM      2  C   UNL     1       5.015   3.587  14.984  0.00  0.00    +0.000 C 
ATOM      3  C   UNL     1       4.986   3.860  16.453  0.00  0.00    +0.000 A 
ATOM      4  C   UNL     1       4.101   3.345  17.385  0.00  0.00    +0.000 A 
ATOM      5  C   UNL     1       4.282   3.703  18.718  0.00  0.00    +0.000 A 
ATOM      6  C   UNL     1       5.337   4.554  19.097  0.00  0.00    +0.000 A 
ATOM      7  C   UNL     1       6.249   5.087  18.155  0.00  0.00    +0.000 A 
ATOM      8  C   UNL     1       6.033   4.727  16.828  0.00  0.00    +0.000 A 
ATOM      9  C   UNL     1       6.756   5.048  15.583  0.00  0.00    +0.000 C 
ATOM     10  O   UNL     1       7.737   5.761  15.490  0.00  0.00    +0.000 OA
ENDROOT
BRANCH   7  11
ATOM     11  C   UNL     1       7.358   5.933  18.706  0.00  0.00    +0.000 C 
ATOM     12  O   UNL     1       8.081   5.481  19.590  0.00  0.00    +0.000 OA
ATOM     13  N   UNL     1       7.546   7.196  18.201  0.00  0.00    +0.000 N 
ATOM     14  H   UNL     1       6.963   7.534  17.441  0.00  0.00    +0.000 HD
BRANCH  13  15
ATOM     15  C   UNL     1       8.633   8.070  18.581  0.00  0.00    +0.000 C 
BRANCH  15  16
ATOM     16  C   UNL     1       8.413   9.498  18.086  0.00  0.00    +0.000 C 
BRANCH  16  17
ATOM     17  C   UNL     1       8.958  10.503  19.099  0.00  0.00    +0.000 C 
BRANCH  17  18
ATOM     18  N   UNL     1       9.868  11.470  18.508  0.00  0.00    +0.000 N 
ATOM     19  C   UNL     1      11.275  11.208  18.334  0.00  0.00    +0.000 C 
ATOM     20  C   UNL     1      11.814  12.540  17.845  0.00  0.00    +0.000 C 
ATOM     21  C   UNL     1      10.652  13.129  17.056  0.00  0.00    +0.000 C 
ATOM     22  C   UNL     1       9.443  12.553  17.748  0.00  0.00    +0.000 C 
ATOM     23  O   UNL     1       8.296  12.940  17.605  0.00  0.00    +0.000 OA
ENDBRANCH  17  18
ENDBRANCH  16  17
ENDBRANCH  15  16
ENDBRANCH  13  15
ENDBRANCH   7  11
BRANCH   1  24
ATOM     24  C   UNL     1       6.694   4.324  13.203  0.00  0.00    +0.000 C 
BRANCH  24  25
ATOM     25  C   UNL     1       5.970   3.361  12.265  0.00  0.00    +0.000 C 
BRANCH  25  27
ATOM     26  C   UNL     1       6.280   1.280  11.208  0.00  0.00    +0.000 C 
ATOM     27  O   UNL     1       6.910   2.465  11.671  0.00  0.00    +0.000 OA
ENDBRANCH  25  27
ENDBRANCH  24  25
ENDBRANCH   1  24
TORSDOF 8
ENDMDL
MODEL 7
REMARK VINA RESULT:      -7.1      5.585      8.496
REMARK  Name = 
REMARK  9 active torsions:
REMARK  status: ('A' for Active; 'I' for Inactive)
REMARK    1  A    between atoms: C_1  and  O_2
REMARK    2  A    between atoms: O_2  and  C_3
REMARK    3  A    between atoms: C_3  and  C_4
REMARK    4  A    between atoms: C_4  and  N_5
REMARK    5  A    between atoms: C_11  and  C_12
REMARK    6  A    between atoms: N_14  and  C_15
REMARK    7  A    between atoms: C_15  and  C_16
REMARK    8  A    between atoms: C_16  and  C_17
REMARK    9  A    between atoms: C_17  and  N_18
REMARK                            x       y       z     vdW  Elec       q    Type
REMARK                         _______ _______ _______ _____ _____    ______ ____
ROOT
ATOM      1  N   UNL     1       5.149   4.904  17.860  0.00  0.00    +0.000 N 
ATOM      2  C   UNL     1       4.825   3.693  18.575  0.00  0.00    +0.000 C 
ATOM      3  C   UNL     1       3.651   4.117  19.398  0.00  0.00    +0.000 A 
ATOM      4  C   UNL     1       2.934   3.346  20.297  0.00  0.00    +0.000 A 
ATOM      5  C   UNL     1       1.895   3.957  20.993  0.00  0.00    +0.000 A 
ATOM      6  C   UNL     1       1.598   5.318  20.788  0.00  0.00    +0.000 A 
ATOM      7  C   UNL     1       2.323   6.118  19.873  0.00  0.00    +0.000 A 
ATOM      8  C   UNL     1       3.343   5.475  19.179  0.00  0.00    +0.000 A 
ATOM      9  C   UNL     1       4.317   5.954  18.179  0.00  0.00    +0.000 C 
ATOM     10  O   UNL     1       4.388   7.084  17.736  0.00  0.00    +0.000 OA
ENDROOT
BRANCH   7  11
ATOM     11  C   UNL     1       1.933   7.565  19.799  0.00  0.00    +0.000 C 
ATOM     12  O   UNL     1       1.649   8.168  20.831  0.00  0.00    +0.000 OA
ATOM     13  N   UNL     1       1.912   8.186  18.576  0.00  0.00    +0.000 N 
ATOM     14  H   UNL     1       2.191   7.681  17.740  0.00  0.00    +0.000 HD
BRANCH  13  15
ATOM     15  C   UNL     1       1.646   9.595  18.383  0.00  0.00    +0.000 C 
BRANCH  15  16
ATOM     16  C   UNL     1       0.272   9.834  17.761  0.00  0.00    +0.000 C 
BRANCH  16  17
ATOM     17  C   UNL     1      -0.553  10.776  18.635  0.00  0.00    +0.000 C 
BRANCH  17  18
ATOM     18  N   UNL     1      -1.871  11.052  18.088  0.00  0.00    +0.000 N 
ATOM     19  C   UNL     1      -2.394  10.361  16.936  0.00  0.00    +0.000 C 
ATOM     20  C   UNL     1      -3.694  11.093  16.658  0.00  0.00    +0.000 C 
ATOM     21  C   UNL     1      -4.161  11.533  18.040  0.00  0.00    +0.000 C 
ATOM     22  C   UNL     1      -2.867  11.714  18.794  0.00  0.00    +0.000 C 
ATOM     23  O   UNL     1      -2.747  12.287  19.864  0.00  0.00    +0.000 OA
ENDBRANCH  17  18
ENDBRANCH  16  17
ENDBRANCH  15  16
ENDBRANCH  13  15
ENDBRANCH   7  11
BRANCH   1  24
ATOM     24  C   UNL     1       6.335   5.061  17.031  0.00  0.00    +0.000 C 
BRANCH  24  25
ATOM     25  C   UNL     1       7.602   4.454  17.628  0.00  0.00    +0.000 C 
BRANCH  25  27
ATOM     26  C   UNL     1       7.909   6.589  18.571  0.00  0.00    +0.000 C 
ATOM     27  O   UNL     1       7.993   5.189  18.789  0.00  0.00    +0.000 OA
ENDBRANCH  25  27
ENDBRANCH  24  25
ENDBRANCH   1  24
TORSDOF 8
ENDMDL
MODEL 8
REMARK VINA RESULT:      -7.0      5.350      8.168
REMARK  Name = 
REMARK  9 active torsions:
REMARK  status: ('A' for Active; 'I' for Inactive)
REMARK    1  A    between atoms: C_1  and  O_2
REMARK    2  A    between atoms: O_2  and  C_3
REMARK    3  A    between atoms: C_3  and  C_4
REMARK    4  A    between atoms: C_4  and  N_5
REMARK    5  A    between atoms: C_11  and  C_12
REMARK    6  A    between atoms: N_14  and  C_15
REMARK    7  A    between atoms: C_15  and  C_16
REMARK    8  A    between atoms: C_16  and  C_17
REMARK    9  A    between atoms: C_17  and  N_18
REMARK                            x       y       z     vdW  Elec       q    Type
REMARK                         _______ _______ _______ _____ _____    ______ ____
ROOT
ATOM      1  N   UNL     1       4.867   4.831  17.541  0.00  0.00    +0.000 N 
ATOM      2  C   UNL     1       4.405   3.553  18.026  0.00  0.00    +0.000 C 
ATOM      3  C   UNL     1       3.275   3.946  18.923  0.00  0.00    +0.000 A 
ATOM      4  C   UNL     1       2.468   3.107  19.672  0.00  0.00    +0.000 A 
ATOM      5  C   UNL     1       1.493   3.691  20.476  0.00  0.00    +0.000 A 
ATOM      6  C   UNL     1       1.346   5.090  20.524  0.00  0.00    +0.000 A 
ATOM      7  C   UNL     1       2.165   5.960  19.764  0.00  0.00    +0.000 A 
ATOM      8  C   UNL     1       3.117   5.346  18.957  0.00  0.00    +0.000 A 
ATOM      9  C   UNL     1       4.149   5.890  18.053  0.00  0.00    +0.000 C 
ATOM     10  O   UNL     1       4.348   7.067  17.821  0.00  0.00    +0.000 OA
ENDROOT
BRANCH   7  11
ATOM     11  C   UNL     1       1.935   7.429  19.957  0.00  0.00    +0.000 C 
ATOM     12  O   UNL     1       2.014   8.185  18.992  0.00  0.00    +0.000 OA
ATOM     13  N   UNL     1       1.629   7.896  21.211  0.00  0.00    +0.000 N 
ATOM     14  H   UNL     1       1.527   7.249  21.987  0.00  0.00    +0.000 HD
BRANCH  13  15
ATOM     15  C   UNL     1       1.294   9.271  21.508  0.00  0.00    +0.000 C 
BRANCH  15  16
ATOM     16  C   UNL     1      -0.081   9.651  20.965  0.00  0.00    +0.000 C 
BRANCH  16  17
ATOM     17  C   UNL     1       0.004  10.940  20.149  0.00  0.00    +0.000 C 
BRANCH  17  18
ATOM     18  N   UNL     1      -0.989  11.010  19.091  0.00  0.00    +0.000 N 
ATOM     19  C   UNL     1      -1.043  10.057  18.010  0.00  0.00    +0.000 C 
ATOM     20  C   UNL     1      -2.112  10.631  17.099  0.00  0.00    +0.000 C 
ATOM     21  C   UNL     1      -3.066  11.329  18.060  0.00  0.00    +0.000 C 
ATOM     22  C   UNL     1      -2.162  11.747  19.193  0.00  0.00    +0.000 C 
ATOM     23  O   UNL     1      -2.451  12.543  20.070  0.00  0.00    +0.000 OA
ENDBRANCH  17  18
ENDBRANCH  16  17
ENDBRANCH  15  16
ENDBRANCH  13  15
ENDBRANCH   7  11
BRANCH   1  24
ATOM     24  C   UNL     1       6.072   5.006  16.745  0.00  0.00    +0.000 C 
BRANCH  24  25
ATOM     25  C   UNL     1       7.360   4.611  17.462  0.00  0.00    +0.000 C 
BRANCH  25  27
ATOM     26  C   UNL     1       7.791   6.807  18.195  0.00  0.00    +0.000 C 
ATOM     27  O   UNL     1       7.569   5.462  18.590  0.00  0.00    +0.000 OA
ENDBRANCH  25  27
ENDBRANCH  24  25
ENDBRANCH   1  24
TORSDOF 8
ENDMDL
MODEL 9
REMARK VINA RESULT:      -7.0      1.133      1.454
REMARK  Name = 
REMARK  9 active torsions:
REMARK  status: ('A' for Active; 'I' for Inactive)
REMARK    1  A    between atoms: C_1  and  O_2
REMARK    2  A    between atoms: O_2  and  C_3
REMARK    3  A    between atoms: C_3  and  C_4
REMARK    4  A    between atoms: C_4  and  N_5
REMARK    5  A    between atoms: C_11  and  C_12
REMARK    6  A    between atoms: N_14  and  C_15
REMARK    7  A    between atoms: C_15  and  C_16
REMARK    8  A    between atoms: C_16  and  C_17
REMARK    9  A    between atoms: C_17  and  N_18
REMARK                            x       y       z     vdW  Elec       q    Type
REMARK                         _______ _______ _______ _____ _____    ______ ____
ROOT
ATOM      1  N   UNL     1       4.064   3.736  18.485  0.00  0.00    +0.000 N 
ATOM      2  C   UNL     1       4.017   3.335  17.100  0.00  0.00    +0.000 C 
ATOM      3  C   UNL     1       5.193   4.055  16.523  0.00  0.00    +0.000 A 
ATOM      4  C   UNL     1       5.621   4.042  15.206  0.00  0.00    +0.000 A 
ATOM      5  C   UNL     1       6.725   4.823  14.875  0.00  0.00    +0.000 A 
ATOM      6  C   UNL     1       7.371   5.604  15.852  0.00  0.00    +0.000 A 
ATOM      7  C   UNL     1       6.943   5.628  17.201  0.00  0.00    +0.000 A 
ATOM      8  C   UNL     1       5.850   4.823  17.506  0.00  0.00    +0.000 A 
ATOM      9  C   UNL     1       5.107   4.593  18.760  0.00  0.00    +0.000 C 
ATOM     10  O   UNL     1       5.356   5.092  19.840  0.00  0.00    +0.000 OA
ENDROOT
BRANCH   7  11
ATOM     11  C   UNL     1       7.689   6.548  18.121  0.00  0.00    +0.000 C 
ATOM     12  O   UNL     1       8.143   6.111  19.175  0.00  0.00    +0.000 OA
ATOM     13  N   UNL     1       7.857   7.861  17.757  0.00  0.00    +0.000 N 
ATOM     14  H   UNL     1       7.510   8.192  16.862  0.00  0.00    +0.000 HD
BRANCH  13  15
ATOM     15  C   UNL     1       8.635   8.821  18.509  0.00  0.00    +0.000 C 
BRANCH  15  16
ATOM     16  C   UNL     1       8.355  10.253  18.062  0.00  0.00    +0.000 C 
BRANCH  16  17
ATOM     17  C   UNL     1       9.632  11.090  18.126  0.00  0.00    +0.000 C 
BRANCH  17  18
ATOM     18  N   UNL     1       9.648  12.019  19.244  0.00  0.00    +0.000 N 
ATOM     19  C   UNL     1      10.218  11.683  20.525  0.00  0.00    +0.000 C 
ATOM     20  C   UNL     1       9.855  12.879  21.386  0.00  0.00    +0.000 C 
ATOM     21  C   UNL     1       9.852  14.042  20.403  0.00  0.00    +0.000 C 
ATOM     22  C   UNL     1       9.456  13.387  19.102  0.00  0.00    +0.000 C 
ATOM     23  O   UNL     1       9.096  13.975  18.096  0.00  0.00    +0.000 OA
ENDBRANCH  17  18
ENDBRANCH  16  17
ENDBRANCH  15  16
ENDBRANCH  13  15
ENDBRANCH   7  11
BRANCH   1  24
ATOM     24  C   UNL     1       3.023   3.424  19.453  0.00  0.00    +0.000 C 
BRANCH  24  25
ATOM     25  C   UNL     1       1.784   4.310  19.349  0.00  0.00    +0.000 C 
BRANCH  25  27
ATOM     26  C   UNL     1       0.825   2.232  18.795  0.00  0.00    +0.000 C 
ATOM     27  O   UNL     1       0.767   3.638  18.605  0.00  0.00    +0.000 OA
ENDBRANCH  25  27
ENDBRANCH  24  25
ENDBRANCH   1  24
TORSDOF 8
ENDMDL
