MODEL 1
REMARK VINA RESULT:      -7.8      0.000      0.000
REMARK  Name = 
REMARK  9 active torsions:
REMARK  status: ('A' for Active; 'I' for Inactive)
REMARK    1  A    between atoms: C_1  and  C_2
REMARK    2  A    between atoms: C_2  and  C_3
REMARK    3  A    between atoms: C_2  and  C_4
REMARK    4  A    between atoms: N_6  and  C_7
REMARK    5  A    between atoms: C_7  and  C_8
REMARK    6  A    between atoms: C_17  and  C_18
REMARK    7  A    between atoms: C_18  and  O_19
REMARK    8  A    between atoms: C_18  and  C_20
REMARK    9  A    between atoms: C_18  and  C_24
REMARK                            x       y       z     vdW  Elec       q    Type
REMARK                         _______ _______ _______ _____ _____    ______ ____
ROOT
ATOM      1  C   UNL     1       7.135   6.445  17.269  0.00  0.00    +0.000 C 
ATOM      2  O   UNL     1       7.817   7.034  16.416  0.00  0.00    +0.000 OA
ATOM      3  N   UNL     1       5.868   5.933  16.921  0.00  0.00    +0.000 N 
ATOM      4  C   UNL     1       5.218   5.049  17.783  0.00  0.00    +0.000 A 
ATOM      5  N   UNL     1       5.772   4.400  18.784  0.00  0.00    +0.000 NA
ATOM      6  C   UNL     1       4.839   3.711  19.511  0.00  0.00    +0.000 A 
ATOM      7  C   UNL     1       3.543   3.783  19.038  0.00  0.00    +0.000 A 
ATOM      8  S   UNL     1       3.532   4.776  17.629  0.00  0.00    +0.000 S 
ENDROOT
BRANCH   1  10
ATOM      9  C   UNL     1       8.485   5.064  18.958  0.00  0.00    +0.000 C 
ATOM     10  C   UNL     1       7.660   6.328  18.721  0.00  0.00    +0.000 C 
ATOM     11  C   UNL     1       8.491   7.546  19.141  0.00  0.00    +0.000 C 
ENDBRANCH   1  10
BRANCH   3  12
ATOM     12  C   UNL     1       5.362   6.245  15.575  0.00  0.00    +0.000 C 
BRANCH  12  13
ATOM     13  C   UNL     1       5.865   5.271  14.524  0.00  0.00    +0.000 A 
ATOM     14  C   UNL     1       5.063   4.215  14.100  0.00  0.00    +0.000 A 
ATOM     15  C   UNL     1       5.517   3.393  13.069  0.00  0.00    +0.000 A 
ATOM     16  C   UNL     1       6.759   3.641  12.497  0.00  0.00    +0.000 A 
ATOM     17  C   UNL     1       7.506   4.694  12.990  0.00  0.00    +0.000 A 
ATOM     18  N   UNL     1       7.090   5.512  13.983  0.00  0.00    +0.000 NA
ENDBRANCH  12  13
ENDBRANCH   3  12
BRANCH   7  19
ATOM     19  C   UNL     1       2.304   3.103  19.617  0.00  0.00    +0.000 C 
BRANCH  19  20
ATOM     20  C   UNL     1       1.657   4.025  20.689  0.00  0.00    +0.000 C 
ATOM     21  F   UNL     1       2.521   4.957  21.167  0.00  0.00    +0.000 F 
ATOM     22  F   UNL     1       0.552   4.688  20.305  0.00  0.00    +0.000 F 
ATOM     23  F   UNL     1       1.299   3.280  21.773  0.00  0.00    +0.000 F 
ENDBRANCH  19  20
BRANCH  19  24
ATOM     24  C   UNL     1       1.284   2.779  18.502  0.00  0.00    +0.000 C 
ATOM     25  F   UNL     1       1.794   1.920  17.576  0.00  0.00    +0.000 F 
ATOM     26  F   UNL     1       0.184   2.162  19.003  0.00  0.00    +0.000 F 
ATOM     27  F   UNL     1       0.844   3.843  17.799  0.00  0.00    +0.000 F 
ENDBRANCH  19  24
BRANCH  19  28
ATOM     28  O   UNL     1       2.771   1.868  20.244  0.00  0.00    +0.000 OA
ATOM     29  H   UNL     1       2.690   1.986  21.211  0.00  0.00    +0.000 HD
ENDBRANCH  19  28
ENDBRANCH   7  19
TORSDOF 7
ENDMDL
MODEL 2
REMARK VINA RESULT:      -7.8      0.937      2.150
REMARK  Name = 
REMARK  9 active torsions:
REMARK  status: ('A' for Active; 'I' for Inactive)
REMARK    1  A    between atoms: C_1  and  C_2
REMARK    2  A    between atoms: C_2  and  C_3
REMARK    3  A    between atoms: C_2  and  C_4
REMARK    4  A    between atoms: N_6  and  C_7
REMARK    5  A    between atoms: C_7  and  C_8
REMARK    6  A    between atoms: C_17  and  C_18
REMARK    7  A    between atoms: C_18  and  O_19
REMARK    8  A    between atoms: C_18  and  C_20
REMARK    9  A    between atoms: C_18  and  C_24
REMARK                            x       y       z     vdW  Elec       q    Type
REMARK                         _______ _______ _______ _____ _____    ______ ____
ROOT
ATOM      1  C   UNL     1       7.106   6.258  17.199  0.00  0.00    +0.000 C 
ATOM      2  O   UNL     1       7.834   6.760  16.329  0.00  0.00    +0.000 OA
ATOM      3  N   UNL     1       5.794   5.856  16.869  0.00  0.00    +0.000 N 
ATOM      4  C   UNL     1       5.071   5.059  17.755  0.00  0.00    +0.000 A 
ATOM      5  N   UNL     1       5.569   4.386  18.770  0.00  0.00    +0.000 NA
ATOM      6  C   UNL     1       4.581   3.805  19.518  0.00  0.00    +0.000 A 
ATOM      7  C   UNL     1       3.294   3.984  19.048  0.00  0.00    +0.000 A 
ATOM      8  S   UNL     1       3.366   4.938  17.614  0.00  0.00    +0.000 S 
ENDROOT
BRANCH   1  10
ATOM      9  C   UNL     1       8.460   4.868  18.878  0.00  0.00    +0.000 C 
ATOM     10  C   UNL     1       7.626   6.129  18.651  0.00  0.00    +0.000 C 
ATOM     11  C   UNL     1       8.447   7.348  19.087  0.00  0.00    +0.000 C 
ENDBRANCH   1  10
BRANCH   3  12
ATOM     12  C   UNL     1       5.312   6.181  15.517  0.00  0.00    +0.000 C 
BRANCH  12  13
ATOM     13  C   UNL     1       5.837   5.219  14.466  0.00  0.00    +0.000 A 
ATOM     14  C   UNL     1       5.051   4.156  14.027  0.00  0.00    +0.000 A 
ATOM     15  C   UNL     1       5.525   3.346  12.996  0.00  0.00    +0.000 A 
ATOM     16  C   UNL     1       6.770   3.611  12.438  0.00  0.00    +0.000 A 
ATOM     17  C   UNL     1       7.500   4.669  12.945  0.00  0.00    +0.000 A 
ATOM     18  N   UNL     1       7.065   5.477  13.939  0.00  0.00    +0.000 NA
ENDBRANCH  12  13
ENDBRANCH   3  12
BRANCH   7  19
ATOM     19  C   UNL     1       2.001   3.436  19.649  0.00  0.00    +0.000 C 
BRANCH  19  20
ATOM     20  C   UNL     1       1.630   2.097  18.953  0.00  0.00    +0.000 C 
ATOM     21  F   UNL     1       2.344   1.882  17.818  0.00  0.00    +0.000 F 
ATOM     22  F   UNL     1       1.761   0.988  19.703  0.00  0.00    +0.000 F 
ATOM     23  F   UNL     1       0.327   2.137  18.554  0.00  0.00    +0.000 F 
ENDBRANCH  19  20
BRANCH  19  24
ATOM     24  C   UNL     1       2.149   3.227  21.173  0.00  0.00    +0.000 C 
ATOM     25  F   UNL     1       2.393   4.395  21.829  0.00  0.00    +0.000 F 
ATOM     26  F   UNL     1       1.006   2.736  21.717  0.00  0.00    +0.000 F 
ATOM     27  F   UNL     1       3.143   2.393  21.544  0.00  0.00    +0.000 F 
ENDBRANCH  19  24
BRANCH  19  28
ATOM     28  O   UNL     1       0.969   4.436  19.379  0.00  0.00    +0.000 OA
ATOM     29  H   UNL     1       1.357   5.093  18.768  0.00  0.00    +0.000 HD
ENDBRANCH  19  28
ENDBRANCH   7  19
TORSDOF 7
ENDMDL
MODEL 3
REMARK VINA RESULT:      -7.7      0.720      1.103
REMARK  Name = 
REMARK  9 active torsions:
REMARK  status: ('A' for Active; 'I' for Inactive)
REMARK    1  A    between atoms: C_1  and  C_2
REMARK    2  A    between atoms: C_2  and  C_3
REMARK    3  A    between atoms: C_2  and  C_4
REMARK    4  A    between atoms: N_6  and  C_7
REMARK    5  A    between atoms: C_7  and  C_8
REMARK    6  A    between atoms: C_17  and  C_18
REMARK    7  A    between atoms: C_18  and  O_19
REMARK    8  A    between atoms: C_18  and  C_20
REMARK    9  A    between atoms: C_18  and  C_24
REMARK                            x       y       z     vdW  Elec       q    Type
REMARK                         _______ _______ _______ _____ _____    ______ ____
ROOT
ATOM      1  C   UNL     1       7.095   6.315  17.220  0.00  0.00    +0.000 C 
ATOM      2  O   UNL     1       7.753   6.943  16.376  0.00  0.00    +0.000 OA
ATOM      3  N   UNL     1       5.844   5.767  16.865  0.00  0.00    +0.000 N 
ATOM      4  C   UNL     1       5.227   4.846  17.711  0.00  0.00    +0.000 A 
ATOM      5  N   UNL     1       5.806   4.197  18.698  0.00  0.00    +0.000 NA
ATOM      6  C   UNL     1       4.899   3.464  19.415  0.00  0.00    +0.000 A 
ATOM      7  C   UNL     1       3.600   3.500  18.947  0.00  0.00    +0.000 A 
ATOM      8  S   UNL     1       3.551   4.519  17.557  0.00  0.00    +0.000 S 
ENDROOT
BRANCH   1  10
ATOM      9  C   UNL     1       8.488   4.943  18.881  0.00  0.00    +0.000 C 
ATOM     10  C   UNL     1       7.628   6.188  18.667  0.00  0.00    +0.000 C 
ATOM     11  C   UNL     1       8.427   7.421  19.105  0.00  0.00    +0.000 C 
ENDBRANCH   1  10
BRANCH   3  12
ATOM     12  C   UNL     1       5.324   6.088  15.526  0.00  0.00    +0.000 C 
BRANCH  12  13
ATOM     13  C   UNL     1       5.894   5.183  14.449  0.00  0.00    +0.000 A 
ATOM     14  C   UNL     1       5.155   4.102  13.972  0.00  0.00    +0.000 A 
ATOM     15  C   UNL     1       5.667   3.346  12.919  0.00  0.00    +0.000 A 
ATOM     16  C   UNL     1       6.903   3.680  12.377  0.00  0.00    +0.000 A 
ATOM     17  C   UNL     1       7.585   4.752  12.921  0.00  0.00    +0.000 A 
ATOM     18  N   UNL     1       7.112   5.509  13.937  0.00  0.00    +0.000 NA
ENDBRANCH  12  13
ENDBRANCH   3  12
BRANCH   7  19
ATOM     19  C   UNL     1       2.386   2.769  19.516  0.00  0.00    +0.000 C 
BRANCH  19  20
ATOM     20  C   UNL     1       2.431   2.815  21.069  0.00  0.00    +0.000 C 
ATOM     21  F   UNL     1       2.622   4.071  21.549  0.00  0.00    +0.000 F 
ATOM     22  F   UNL     1       1.354   2.322  21.704  0.00  0.00    +0.000 F 
ATOM     23  F   UNL     1       3.501   2.096  21.514  0.00  0.00    +0.000 F 
ENDBRANCH  19  20
BRANCH  19  24
ATOM     24  C   UNL     1       1.073   3.398  18.998  0.00  0.00    +0.000 C 
ATOM     25  F   UNL     1      -0.008   2.611  19.254  0.00  0.00    +0.000 F 
ATOM     26  F   UNL     1       0.816   4.580  19.615  0.00  0.00    +0.000 F 
ATOM     27  F   UNL     1       1.035   3.638  17.672  0.00  0.00    +0.000 F 
ENDBRANCH  19  24
BRANCH  19  28
ATOM     28  O   UNL     1       2.492   1.384  19.059  0.00  0.00    +0.000 OA
ATOM     29  H   UNL     1       3.406   1.089  19.242  0.00  0.00    +0.000 HD
ENDBRANCH  19  28
ENDBRANCH   7  19
TORSDOF 7
ENDMDL
MODEL 4
REMARK VINA RESULT:      -7.6      0.697      1.023
REMARK  Name = 
REMARK  9 active torsions:
REMARK  status: ('A' for Active; 'I' for Inactive)
REMARK    1  A    between atoms: C_1  and  C_2
REMARK    2  A    between atoms: C_2  and  C_3
REMARK    3  A    between atoms: C_2  and  C_4
REMARK    4  A    between atoms: N_6  and  C_7
REMARK    5  A    between atoms: C_7  and  C_8
REMARK    6  A    between atoms: C_17  and  C_18
REMARK    7  A    between atoms: C_18  and  O_19
REMARK    8  A    between atoms: C_18  and  C_20
REMARK    9  A    between atoms: C_18  and  C_24
REMARK                            x       y       z     vdW  Elec       q    Type
REMARK                         _______ _______ _______ _____ _____    ______ ____
ROOT
ATOM      1  C   UNL     1       7.065   6.277  17.221  0.00  0.00    +0.000 C 
ATOM      2  O   UNL     1       7.720   6.903  16.374  0.00  0.00    +0.000 OA
ATOM      3  N   UNL     1       5.807   5.740  16.877  0.00  0.00    +0.000 N 
ATOM      4  C   UNL     1       5.191   4.821  17.725  0.00  0.00    +0.000 A 
ATOM      5  N   UNL     1       5.774   4.163  18.705  0.00  0.00    +0.000 NA
ATOM      6  C   UNL     1       4.868   3.434  19.427  0.00  0.00    +0.000 A 
ATOM      7  C   UNL     1       3.565   3.483  18.971  0.00  0.00    +0.000 A 
ATOM      8  S   UNL     1       3.511   4.507  17.586  0.00  0.00    +0.000 S 
ENDROOT
BRANCH   1  10
ATOM      9  C   UNL     1       8.482   4.900  18.858  0.00  0.00    +0.000 C 
ATOM     10  C   UNL     1       7.611   6.141  18.664  0.00  0.00    +0.000 C 
ATOM     11  C   UNL     1       8.404   7.375  19.106  0.00  0.00    +0.000 C 
ENDBRANCH   1  10
BRANCH   3  12
ATOM     12  C   UNL     1       5.277   6.070  15.544  0.00  0.00    +0.000 C 
BRANCH  12  13
ATOM     13  C   UNL     1       5.827   5.162  14.458  0.00  0.00    +0.000 A 
ATOM     14  C   UNL     1       5.067   4.101  13.974  0.00  0.00    +0.000 A 
ATOM     15  C   UNL     1       5.563   3.343  12.914  0.00  0.00    +0.000 A 
ATOM     16  C   UNL     1       6.805   3.657  12.374  0.00  0.00    +0.000 A 
ATOM     17  C   UNL     1       7.509   4.710  12.926  0.00  0.00    +0.000 A 
ATOM     18  N   UNL     1       7.051   5.468  13.949  0.00  0.00    +0.000 NA
ENDBRANCH  12  13
ENDBRANCH   3  12
BRANCH   7  19
ATOM     19  C   UNL     1       2.351   2.758  19.549  0.00  0.00    +0.000 C 
BRANCH  19  20
ATOM     20  C   UNL     1       2.386   2.840  21.101  0.00  0.00    +0.000 C 
ATOM     21  F   UNL     1       3.385   2.095  21.641  0.00  0.00    +0.000 F 
ATOM     22  F   UNL     1       2.503   4.073  21.623  0.00  0.00    +0.000 F 
ATOM     23  F   UNL     1       1.235   2.315  21.610  0.00  0.00    +0.000 F 
ENDBRANCH  19  20
BRANCH  19  24
ATOM     24  C   UNL     1       1.038   3.371  19.010  0.00  0.00    +0.000 C 
ATOM     25  F   UNL     1       1.163   3.794  17.722  0.00  0.00    +0.000 F 
ATOM     26  F   UNL     1       0.036   2.455  18.996  0.00  0.00    +0.000 F 
ATOM     27  F   UNL     1       0.579   4.437  19.694  0.00  0.00    +0.000 F 
ENDBRANCH  19  24
BRANCH  19  28
ATOM     28  O   UNL     1       2.466   1.365  19.124  0.00  0.00    +0.000 OA
ATOM     29  H   UNL     1       1.586   0.955  19.237  0.00  0.00    +0.000 HD
ENDBRANCH  19  28
ENDBRANCH   7  19
TORSDOF 7
ENDMDL
MODEL 5
REMARK VINA RESULT:      -7.2      1.473      2.189
REMARK  Name = 
REMARK  9 active torsions:
REMARK  status: ('A' for Active; 'I' for Inactive)
REMARK    1  A    between atoms: C_1  and  C_2
REMARK    2  A    between atoms: C_2  and  C_3
REMARK    3  A    between atoms: C_2  and  C_4
REMARK    4  A    between atoms: N_6  and  C_7
REMARK    5  A    between atoms: C_7  and  C_8
REMARK    6  A    between atoms: C_17  and  C_18
REMARK    7  A    between atoms: C_18  and  O_19
REMARK    8  A    between atoms: C_18  and  C_20
REMARK    9  A    between atoms: C_18  and  C_24
REMARK                            x       y       z     vdW  Elec       q    Type
REMARK                         _______ _______ _______ _____ _____    ______ ____
ROOT
ATOM      1  C   UNL     1       6.809   6.106  16.668  0.00  0.00    +0.000 C 
ATOM      2  O   UNL     1       7.803   6.308  15.953  0.00  0.00    +0.000 OA
ATOM      3  N   UNL     1       6.278   4.803  16.775  0.00  0.00    +0.000 N 
ATOM      4  C   UNL     1       5.341   4.518  17.768  0.00  0.00    +0.000 A 
ATOM      5  N   UNL     1       5.083   5.262  18.822  0.00  0.00    +0.000 NA
ATOM      6  C   UNL     1       4.024   4.768  19.536  0.00  0.00    +0.000 A 
ATOM      7  C   UNL     1       3.481   3.590  19.059  0.00  0.00    +0.000 A 
ATOM      8  S   UNL     1       4.353   3.122  17.647  0.00  0.00    +0.000 S 
ENDROOT
BRANCH   1  10
ATOM      9  C   UNL     1       7.043   8.513  17.525  0.00  0.00    +0.000 C 
ATOM     10  C   UNL     1       6.129   7.295  17.389  0.00  0.00    +0.000 C 
ATOM     11  C   UNL     1       4.829   7.728  16.702  0.00  0.00    +0.000 C 
ENDBRANCH   1  10
BRANCH   3  12
ATOM     12  C   UNL     1       6.867   3.764  15.916  0.00  0.00    +0.000 C 
BRANCH  12  13
ATOM     13  C   UNL     1       6.427   3.889  14.468  0.00  0.00    +0.000 A 
ATOM     14  C   UNL     1       7.350   4.211  13.476  0.00  0.00    +0.000 A 
ATOM     15  C   UNL     1       6.933   4.228  12.146  0.00  0.00    +0.000 A 
ATOM     16  C   UNL     1       5.609   3.933  11.842  0.00  0.00    +0.000 A 
ATOM     17  C   UNL     1       4.749   3.646  12.884  0.00  0.00    +0.000 A 
ATOM     18  N   UNL     1       5.125   3.615  14.184  0.00  0.00    +0.000 NA
ENDBRANCH  12  13
ENDBRANCH   3  12
BRANCH   7  19
ATOM     19  C   UNL     1       2.322   2.794  19.654  0.00  0.00    +0.000 C 
BRANCH  19  20
ATOM     20  C   UNL     1       2.457   2.756  21.202  0.00  0.00    +0.000 C 
ATOM     21  F   UNL     1       3.599   2.147  21.612  0.00  0.00    +0.000 F 
ATOM     22  F   UNL     1       2.412   3.946  21.826  0.00  0.00    +0.000 F 
ATOM     23  F   UNL     1       1.445   2.008  21.728  0.00  0.00    +0.000 F 
ENDBRANCH  19  20
BRANCH  19  24
ATOM     24  C   UNL     1       0.965   3.414  19.249  0.00  0.00    +0.000 C 
ATOM     25  F   UNL     1       0.487   4.264  20.199  0.00  0.00    +0.000 F 
ATOM     26  F   UNL     1       1.080   4.158  18.120  0.00  0.00    +0.000 F 
ATOM     27  F   UNL     1      -0.028   2.528  19.029  0.00  0.00    +0.000 F 
ENDBRANCH  19  24
BRANCH  19  28
ATOM     28  O   UNL     1       2.436   1.440  19.114  0.00  0.00    +0.000 OA
ATOM     29  H   UNL     1       1.695   0.920  19.481  0.00  0.00    +0.000 HD
ENDBRANCH  19  28
ENDBRANCH   7  19
TORSDOF 7
ENDMDL
MODEL 6
REMARK VINA RESULT:      -7.0      4.057      6.849
REMARK  Name = 
REMARK  9 active torsions:
REMARK  status: ('A' for Active; 'I' for Inactive)
REMARK    1  A    between atoms: C_1  and  C_2
REMARK    2  A    between atoms: C_2  and  C_3
REMARK    3  A    between atoms: C_2  and  C_4
REMARK    4  A    between atoms: N_6  and  C_7
REMARK    5  A    between atoms: C_7  and  C_8
REMARK    6  A    between atoms: C_17  and  C_18
REMARK    7  A    between atoms: C_18  and  O_19
REMARK    8  A    between atoms: C_18  and  C_20
REMARK    9  A    between atoms: C_18  and  C_24
REMARK                            x       y       z     vdW  Elec       q    Type
REMARK                         _______ _______ _______ _____ _____    ______ ____
ROOT
ATOM      1  C   UNL     1       0.952   7.928  20.733  0.00  0.00    +0.000 C 
ATOM      2  O   UNL     1       0.147   7.793  21.668  0.00  0.00    +0.000 OA
ATOM      3  N   UNL     1       1.860   6.890  20.436  0.00  0.00    +0.000 N 
ATOM      4  C   UNL     1       2.576   6.919  19.240  0.00  0.00    +0.000 A 
ATOM      5  N   UNL     1       2.304   7.672  18.196  0.00  0.00    +0.000 NA
ATOM      6  C   UNL     1       3.268   7.558  17.231  0.00  0.00    +0.000 A 
ATOM      7  C   UNL     1       4.282   6.660  17.505  0.00  0.00    +0.000 A 
ATOM      8  S   UNL     1       3.986   5.961  19.053  0.00  0.00    +0.000 S 
ENDROOT
BRANCH   1  10
ATOM      9  C   UNL     1      -0.337   9.571  19.242  0.00  0.00    +0.000 C 
ATOM     10  C   UNL     1       0.986   9.256  19.939  0.00  0.00    +0.000 C 
ATOM     11  C   UNL     1       1.377  10.450  20.817  0.00  0.00    +0.000 C 
ENDBRANCH   1  10
BRANCH   3  12
ATOM     12  C   UNL     1       1.889   5.738  21.351  0.00  0.00    +0.000 C 
BRANCH  12  13
ATOM     13  C   UNL     1       1.782   4.412  20.620  0.00  0.00    +0.000 A 
ATOM     14  C   UNL     1       0.661   4.121  19.847  0.00  0.00    +0.000 A 
ATOM     15  C   UNL     1       0.634   2.935  19.115  0.00  0.00    +0.000 A 
ATOM     16  C   UNL     1       1.720   2.068  19.181  0.00  0.00    +0.000 A 
ATOM     17  C   UNL     1       2.785   2.417  19.989  0.00  0.00    +0.000 A 
ATOM     18  N   UNL     1       2.843   3.564  20.705  0.00  0.00    +0.000 NA
ENDBRANCH  12  13
ENDBRANCH   3  12
BRANCH   7  19
ATOM     19  C   UNL     1       5.470   6.301  16.616  0.00  0.00    +0.000 C 
BRANCH  19  20
ATOM     20  C   UNL     1       6.784   6.809  17.273  0.00  0.00    +0.000 C 
ATOM     21  F   UNL     1       6.825   8.161  17.382  0.00  0.00    +0.000 F 
ATOM     22  F   UNL     1       7.060   6.317  18.493  0.00  0.00    +0.000 F 
ATOM     23  F   UNL     1       7.844   6.483  16.479  0.00  0.00    +0.000 F 
ENDBRANCH  19  20
BRANCH  19  24
ATOM     24  C   UNL     1       5.541   4.774  16.385  0.00  0.00    +0.000 C 
ATOM     25  F   UNL     1       4.304   4.210  16.313  0.00  0.00    +0.000 F 
ATOM     26  F   UNL     1       6.143   4.481  15.204  0.00  0.00    +0.000 F 
ATOM     27  F   UNL     1       6.197   4.079  17.336  0.00  0.00    +0.000 F 
ENDBRANCH  19  24
BRANCH  19  28
ATOM     28  O   UNL     1       5.253   6.990  15.345  0.00  0.00    +0.000 OA
ATOM     29  H   UNL     1       5.736   7.839  15.391  0.00  0.00    +0.000 HD
ENDBRANCH  19  28
ENDBRANCH   7  19
TORSDOF 7
ENDMDL
MODEL 7
REMARK VINA RESULT:      -6.9      3.919      6.618
REMARK  Name = 
REMARK  9 active torsions:
REMARK  status: ('A' for Active; 'I' for Inactive)
REMARK    1  A    between atoms: C_1  and  C_2
REMARK    2  A    between atoms: C_2  and  C_3
REMARK    3  A    between atoms: C_2  and  C_4
REMARK    4  A    between atoms: N_6  and  C_7
REMARK    5  A    between atoms: C_7  and  C_8
REMARK    6  A    between atoms: C_17  and  C_18
REMARK    7  A    between atoms: C_18  and  O_19
REMARK    8  A    between atoms: C_18  and  C_20
REMARK    9  A    between atoms: C_18  and  C_24
REMARK                            x       y       z     vdW  Elec       q    Type
REMARK                         _______ _______ _______ _____ _____    ______ ____
ROOT
ATOM      1  C   UNL     1       1.301   7.870  20.248  0.00  0.00    +0.000 C 
ATOM      2  O   UNL     1       0.364   7.836  21.061  0.00  0.00    +0.000 OA
ATOM      3  N   UNL     1       2.182   6.773  20.148  0.00  0.00    +0.000 N 
ATOM      4  C   UNL     1       3.062   6.689  19.070  0.00  0.00    +0.000 A 
ATOM      5  N   UNL     1       2.987   7.385  17.956  0.00  0.00    +0.000 NA
ATOM      6  C   UNL     1       4.071   7.161  17.151  0.00  0.00    +0.000 A 
ATOM      7  C   UNL     1       4.982   6.235  17.622  0.00  0.00    +0.000 A 
ATOM      8  S   UNL     1       4.427   5.654  19.148  0.00  0.00    +0.000 S 
ENDROOT
BRANCH   1  10
ATOM      9  C   UNL     1       0.597   9.217  18.180  0.00  0.00    +0.000 C 
ATOM     10  C   UNL     1       1.525   9.141  19.393  0.00  0.00    +0.000 C 
ATOM     11  C   UNL     1       1.375  10.429  20.210  0.00  0.00    +0.000 C 
ENDBRANCH   1  10
BRANCH   3  12
ATOM     12  C   UNL     1       2.013   5.683  21.122  0.00  0.00    +0.000 C 
BRANCH  12  13
ATOM     13  C   UNL     1       1.881   4.324  20.458  0.00  0.00    +0.000 A 
ATOM     14  C   UNL     1       0.811   4.056  19.608  0.00  0.00    +0.000 A 
ATOM     15  C   UNL     1       0.768   2.832  18.942  0.00  0.00    +0.000 A 
ATOM     16  C   UNL     1       1.786   1.907  19.148  0.00  0.00    +0.000 A 
ATOM     17  C   UNL     1       2.800   2.239  20.026  0.00  0.00    +0.000 A 
ATOM     18  N   UNL     1       2.874   3.420  20.680  0.00  0.00    +0.000 NA
ENDBRANCH  12  13
ENDBRANCH   3  12
BRANCH   7  19
ATOM     19  C   UNL     1       6.263   5.762  16.939  0.00  0.00    +0.000 C 
BRANCH  19  20
ATOM     20  C   UNL     1       7.083   4.881  17.924  0.00  0.00    +0.000 C 
ATOM     21  F   UNL     1       8.163   4.307  17.336  0.00  0.00    +0.000 F 
ATOM     22  F   UNL     1       7.532   5.498  19.031  0.00  0.00    +0.000 F 
ATOM     23  F   UNL     1       6.313   3.839  18.351  0.00  0.00    +0.000 F 
ENDBRANCH  19  20
BRANCH  19  24
ATOM     24  C   UNL     1       5.939   4.969  15.653  0.00  0.00    +0.000 C 
ATOM     25  F   UNL     1       4.889   4.119  15.827  0.00  0.00    +0.000 F 
ATOM     26  F   UNL     1       5.571   5.797  14.642  0.00  0.00    +0.000 F 
ATOM     27  F   UNL     1       6.944   4.204  15.181  0.00  0.00    +0.000 F 
ENDBRANCH  19  24
BRANCH  19  28
ATOM     28  O   UNL     1       7.019   6.968  16.607  0.00  0.00    +0.000 OA
ATOM     29  H   UNL     1       7.532   7.215  17.402  0.00  0.00    +0.000 HD
ENDBRANCH  19  28
ENDBRANCH   7  19
TORSDOF 7
ENDMDL
MODEL 8
REMARK VINA RESULT:      -6.9      4.049      6.752
REMARK  Name = 
REMARK  9 active torsions:
REMARK  status: ('A' for Active; 'I' for Inactive)
REMARK    1  A    between atoms: C_1  and  C_2
REMARK    2  A    between atoms: C_2  and  C_3
REMARK    3  A    between atoms: C_2  and  C_4
REMARK    4  A    between atoms: N_6  and  C_7
REMARK    5  A    between atoms: C_7  and  C_8
REMARK    6  A    between atoms: C_17  and  C_18
REMARK    7  A    between atoms: C_18  and  O_19
REMARK    8  A    between atoms: C_18  and  C_20
REMARK    9  A    between atoms: C_18  and  C_24
REMARK                            x       y       z     vdW  Elec       q    Type
REMARK                         _______ _______ _______ _____ _____    ______ ____
ROOT
ATOM      1  C   UNL     1       1.283   8.276  19.970  0.00  0.00    +0.000 C 
ATOM      2  O   UNL     1       0.352   8.354  20.786  0.00  0.00    +0.000 OA
ATOM      3  N   UNL     1       2.155   7.167  20.005  0.00  0.00    +0.000 N 
ATOM      4  C   UNL     1       3.027   6.939  18.942  0.00  0.00    +0.000 A 
ATOM      5  N   UNL     1       2.950   7.488  17.749  0.00  0.00    +0.000 NA
ATOM      6  C   UNL     1       4.027   7.153  16.973  0.00  0.00    +0.000 A 
ATOM      7  C   UNL     1       4.933   6.287  17.553  0.00  0.00    +0.000 A 
ATOM      8  S   UNL     1       4.384   5.910  19.143  0.00  0.00    +0.000 S 
ENDROOT
BRANCH   1  10
ATOM      9  C   UNL     1       0.494   9.430  17.818  0.00  0.00    +0.000 C 
ATOM     10  C   UNL     1       1.513   9.425  18.958  0.00  0.00    +0.000 C 
ATOM     11  C   UNL     1       1.508  10.803  19.630  0.00  0.00    +0.000 C 
ENDBRANCH   1  10
BRANCH   3  12
ATOM     12  C   UNL     1       1.983   6.212  21.111  0.00  0.00    +0.000 C 
BRANCH  12  13
ATOM     13  C   UNL     1       1.774   4.789  20.623  0.00  0.00    +0.000 A 
ATOM     14  C   UNL     1       2.096   3.709  21.441  0.00  0.00    +0.000 A 
ATOM     15  C   UNL     1       1.807   2.418  21.000  0.00  0.00    +0.000 A 
ATOM     16  C   UNL     1       1.214   2.240  19.755  0.00  0.00    +0.000 A 
ATOM     17  C   UNL     1       0.947   3.361  18.994  0.00  0.00    +0.000 A 
ATOM     18  N   UNL     1       1.209   4.625  19.396  0.00  0.00    +0.000 NA
ENDBRANCH  12  13
ENDBRANCH   3  12
BRANCH   7  19
ATOM     19  C   UNL     1       6.206   5.718  16.929  0.00  0.00    +0.000 C 
BRANCH  19  20
ATOM     20  C   UNL     1       7.005   4.929  18.004  0.00  0.00    +0.000 C 
ATOM     21  F   UNL     1       6.256   3.981  18.621  0.00  0.00    +0.000 F 
ATOM     22  F   UNL     1       8.122   4.316  17.574  0.00  0.00    +0.000 F 
ATOM     23  F   UNL     1       7.394   5.780  18.997  0.00  0.00    +0.000 F 
ENDBRANCH  19  20
BRANCH  19  24
ATOM     24  C   UNL     1       5.868   4.802  15.732  0.00  0.00    +0.000 C 
ATOM     25  F   UNL     1       4.884   3.910  16.032  0.00  0.00    +0.000 F 
ATOM     26  F   UNL     1       5.399   5.519  14.678  0.00  0.00    +0.000 F 
ATOM     27  F   UNL     1       6.895   4.060  15.269  0.00  0.00    +0.000 F 
ENDBRANCH  19  24
BRANCH  19  28
ATOM     28  O   UNL     1       6.988   6.868  16.476  0.00  0.00    +0.000 OA
ATOM     29  H   UNL     1       6.680   7.644  16.984  0.00  0.00    +0.000 HD
ENDBRANCH  19  28
ENDBRANCH   7  19
TORSDOF 7
ENDMDL
MODEL 9
REMARK VINA RESULT:      -6.9      4.027      6.642
REMARK  Name = 
REMARK  9 active torsions:
REMARK  status: ('A' for Active; 'I' for Inactive)
REMARK    1  A    between atoms: C_1  and  C_2
REMARK    2  A    between atoms: C_2  and  C_3
REMARK    3  A    between atoms: C_2  and  C_4
REMARK    4  A    between atoms: N_6  and  C_7
REMARK    5  A    between atoms: C_7  and  C_8
REMARK    6  A    between atoms: C_17  and  C_18
REMARK    7  A    between atoms: C_18  and  O_19
REMARK    8  A    between atoms: C_18  and  C_20
REMARK    9  A    between atoms: C_18  and  C_24
REMARK                            x       y       z     vdW  Elec       q    Type
REMARK                         _______ _______ _______ _____ _____    ______ ____
ROOT
ATOM      1  C   UNL     1       1.335   8.061  20.005  0.00  0.00    +0.000 C 
ATOM      2  O   UNL     1       0.380   8.065  20.797  0.00  0.00    +0.000 OA
ATOM      3  N   UNL     1       2.232   6.972  19.996  0.00  0.00    +0.000 N 
ATOM      4  C   UNL     1       3.139   6.832  18.945  0.00  0.00    +0.000 A 
ATOM      5  N   UNL     1       3.080   7.454  17.788  0.00  0.00    +0.000 NA
ATOM      6  C   UNL     1       4.186   7.195  17.024  0.00  0.00    +0.000 A 
ATOM      7  C   UNL     1       5.098   6.314  17.574  0.00  0.00    +0.000 A 
ATOM      8  S   UNL     1       4.514   5.824  19.121  0.00  0.00    +0.000 S 
ENDROOT
BRANCH   1  10
ATOM      9  C   UNL     1       0.591   9.320  17.896  0.00  0.00    +0.000 C 
ATOM     10  C   UNL     1       1.563   9.277  19.075  0.00  0.00    +0.000 C 
ATOM     11  C   UNL     1       1.484  10.610  19.828  0.00  0.00    +0.000 C 
ENDBRANCH   1  10
BRANCH   3  12
ATOM     12  C   UNL     1       2.054   5.945  21.034  0.00  0.00    +0.000 C 
BRANCH  12  13
ATOM     13  C   UNL     1       1.882   4.553  20.451  0.00  0.00    +0.000 A 
ATOM     14  C   UNL     1       1.126   4.359  19.298  0.00  0.00    +0.000 A 
ATOM     15  C   UNL     1       1.064   3.085  18.737  0.00  0.00    +0.000 A 
ATOM     16  C   UNL     1       1.748   2.038  19.344  0.00  0.00    +0.000 A 
ATOM     17  C   UNL     1       2.457   2.306  20.500  0.00  0.00    +0.000 A 
ATOM     18  N   UNL     1       2.542   3.533  21.064  0.00  0.00    +0.000 NA
ENDBRANCH  12  13
ENDBRANCH   3  12
BRANCH   7  19
ATOM     19  C   UNL     1       6.400   5.816  16.953  0.00  0.00    +0.000 C 
BRANCH  19  20
ATOM     20  C   UNL     1       7.167   4.939  17.983  0.00  0.00    +0.000 C 
ATOM     21  F   UNL     1       7.807   5.678  18.924  0.00  0.00    +0.000 F 
ATOM     22  F   UNL     1       6.430   4.030  18.645  0.00  0.00    +0.000 F 
ATOM     23  F   UNL     1       8.151   4.243  17.344  0.00  0.00    +0.000 F 
ENDBRANCH  19  20
BRANCH  19  24
ATOM     24  C   UNL     1       6.121   5.009  15.664  0.00  0.00    +0.000 C 
ATOM     25  F   UNL     1       7.265   4.715  14.987  0.00  0.00    +0.000 F 
ATOM     26  F   UNL     1       5.547   3.812  15.947  0.00  0.00    +0.000 F 
ATOM     27  F   UNL     1       5.320   5.620  14.767  0.00  0.00    +0.000 F 
ENDBRANCH  19  24
BRANCH  19  28
ATOM     28  O   UNL     1       7.185   7.008  16.637  0.00  0.00    +0.000 OA
ATOM     29  H   UNL     1       6.594   7.779  16.745  0.00  0.00    +0.000 HD
ENDBRANCH  19  28
ENDBRANCH   7  19
TORSDOF 7
ENDMDL
