MODEL 1
REMARK VINA RESULT:      -8.2      0.000      0.000
REMARK  Name = 
REMARK  4 active torsions:
REMARK  status: ('A' for Active; 'I' for Inactive)
REMARK    1  A    between atoms: C_1  and  C_2
REMARK    2  A    between atoms: N_4  and  C_5
REMARK    3  A    between atoms: C_8  and  N_9
REMARK    4  A    between atoms: C_10  and  C_12
REMARK                            x       y       z     vdW  Elec       q    Type
REMARK                         _______ _______ _______ _____ _____    ______ ____
ROOT
ATOM      1  N   UNL     1       2.543   5.421  18.781  0.00  0.00    +0.000 N 
ATOM      2  C   UNL     1       1.896   4.476  18.004  0.00  0.00    +0.000 C 
ATOM      3  O   UNL     1       0.898   4.674  17.309  0.00  0.00    +0.000 OA
ATOM      4  H   UNL     1       3.392   5.122  19.248  0.00  0.00    +0.000 HD
ENDROOT
BRANCH   2   5
ATOM      5  C   UNL     1       2.475   3.063  18.034  0.00  0.00    +0.000 C 
ATOM      6  C   UNL     1       2.305   2.344  19.382  0.00  0.00    +0.000 C 
ATOM      7  C   UNL     1       3.401   2.652  20.404  0.00  0.00    +0.000 C 
ATOM      8  C   UNL     1       4.800   2.587  19.791  0.00  0.00    +0.000 C 
ATOM      9  N   UNL     1       4.815   3.415  18.597  0.00  0.00    +0.000 N 
ATOM     10  C   UNL     1       5.745   4.406  18.410  0.00  0.00    +0.000 A 
ATOM     11  N   UNL     1       6.556   4.735  19.427  0.00  0.00    +0.000 NA
ATOM     12  C   UNL     1       7.390   5.777  19.252  0.00  0.00    +0.000 A 
ATOM     13  C   UNL     1       7.437   6.528  18.107  0.00  0.00    +0.000 A 
ATOM     14  C   UNL     1       6.574   6.131  17.124  0.00  0.00    +0.000 A 
ATOM     15  N   UNL     1       5.735   5.088  17.255  0.00  0.00    +0.000 NA
ATOM     16  C   UNL     1       3.911   3.039  17.519  0.00  0.00    +0.000 C 
ENDBRANCH   2   5
BRANCH   1  20
ATOM     17  C   UNL     1       1.573   9.555  18.984  0.00  0.00    +0.000 A 
ATOM     18  C   UNL     1       1.409   8.733  20.092  0.00  0.00    +0.000 A 
ATOM     19  C   UNL     1       1.740   7.380  20.039  0.00  0.00    +0.000 A 
ATOM     20  C   UNL     1       2.231   6.795  18.874  0.00  0.00    +0.000 A 
ATOM     21  C   UNL     1       2.399   7.616  17.749  0.00  0.00    +0.000 A 
ATOM     22  C   UNL     1       2.064   8.985  17.802  0.00  0.00    +0.000 A 
BRANCH  17  26
ATOM     23  C   UNL     1      -0.043  12.957  18.706  0.00  0.00    +0.000 C 
ATOM     24  C   UNL     1      -0.030  11.454  18.767  0.00  0.00    +0.000 C 
ATOM     25  O   UNL     1      -1.071  10.826  18.604  0.00  0.00    +0.000 OA
ATOM     26  N   UNL     1       1.233  10.929  19.009  0.00  0.00    +0.000 N 
ATOM     27  H   UNL     1       1.959  11.575  19.287  0.00  0.00    +0.000 HD
ENDBRANCH  17  26
ENDBRANCH   1  20
TORSDOF 3
ENDMDL
MODEL 2
REMARK VINA RESULT:      -7.9      0.968      1.360
REMARK  Name = 
REMARK  4 active torsions:
REMARK  status: ('A' for Active; 'I' for Inactive)
REMARK    1  A    between atoms: C_1  and  C_2
REMARK    2  A    between atoms: N_4  and  C_5
REMARK    3  A    between atoms: C_8  and  N_9
REMARK    4  A    between atoms: C_10  and  C_12
REMARK                            x       y       z     vdW  Elec       q    Type
REMARK                         _______ _______ _______ _____ _____    ______ ____
ROOT
ATOM      1  N   UNL     1       2.521   5.367  18.709  0.00  0.00    +0.000 N 
ATOM      2  C   UNL     1       1.890   4.396  17.949  0.00  0.00    +0.000 C 
ATOM      3  O   UNL     1       0.880   4.560  17.264  0.00  0.00    +0.000 OA
ATOM      4  H   UNL     1       3.383   5.095  19.169  0.00  0.00    +0.000 HD
ENDROOT
BRANCH   2   5
ATOM      5  C   UNL     1       2.507   2.999  17.988  0.00  0.00    +0.000 C 
ATOM      6  C   UNL     1       2.350   2.283  19.340  0.00  0.00    +0.000 C 
ATOM      7  C   UNL     1       3.434   2.625  20.364  0.00  0.00    +0.000 C 
ATOM      8  C   UNL     1       4.837   2.594  19.756  0.00  0.00    +0.000 C 
ATOM      9  N   UNL     1       4.835   3.416  18.558  0.00  0.00    +0.000 N 
ATOM     10  C   UNL     1       5.739   4.430  18.369  0.00  0.00    +0.000 A 
ATOM     11  N   UNL     1       6.537   4.785  19.388  0.00  0.00    +0.000 NA
ATOM     12  C   UNL     1       7.344   5.848  19.211  0.00  0.00    +0.000 A 
ATOM     13  C   UNL     1       7.375   6.595  18.062  0.00  0.00    +0.000 A 
ATOM     14  C   UNL     1       6.526   6.171  17.077  0.00  0.00    +0.000 A 
ATOM     15  N   UNL     1       5.714   5.106  17.211  0.00  0.00    +0.000 NA
ATOM     16  C   UNL     1       3.945   3.011  17.479  0.00  0.00    +0.000 C 
ENDBRANCH   2   5
BRANCH   1  20
ATOM     17  C   UNL     1       1.513   9.483  19.031  0.00  0.00    +0.000 A 
ATOM     18  C   UNL     1       1.927   8.948  17.818  0.00  0.00    +0.000 A 
ATOM     19  C   UNL     1       2.244   7.596  17.699  0.00  0.00    +0.000 A 
ATOM     20  C   UNL     1       2.174   6.734  18.790  0.00  0.00    +0.000 A 
ATOM     21  C   UNL     1       1.759   7.265  20.020  0.00  0.00    +0.000 A 
ATOM     22  C   UNL     1       1.439   8.633  20.141  0.00  0.00    +0.000 A 
BRANCH  17  26
ATOM     23  C   UNL     1       1.419  13.259  19.085  0.00  0.00    +0.000 C 
ATOM     24  C   UNL     1       1.899  11.913  18.615  0.00  0.00    +0.000 C 
ATOM     25  O   UNL     1       2.827  11.840  17.816  0.00  0.00    +0.000 OA
ATOM     26  N   UNL     1       1.197  10.856  19.180  0.00  0.00    +0.000 N 
ATOM     27  H   UNL     1       0.353  11.078  19.689  0.00  0.00    +0.000 HD
ENDBRANCH  17  26
ENDBRANCH   1  20
TORSDOF 3
ENDMDL
MODEL 3
REMARK VINA RESULT:      -7.7      1.840      3.805
REMARK  Name = 
REMARK  4 active torsions:
REMARK  status: ('A' for Active; 'I' for Inactive)
REMARK    1  A    between atoms: C_1  and  C_2
REMARK    2  A    between atoms: N_4  and  C_5
REMARK    3  A    between atoms: C_8  and  N_9
REMARK    4  A    between atoms: C_10  and  C_12
REMARK                            x       y       z     vdW  Elec       q    Type
REMARK                         _______ _______ _______ _____ _____    ______ ____
ROOT
ATOM      1  N   UNL     1       3.555   6.815  18.615  0.00  0.00    +0.000 N 
ATOM      2  C   UNL     1       4.446   6.726  17.559  0.00  0.00    +0.000 C 
ATOM      3  O   UNL     1       4.457   7.448  16.562  0.00  0.00    +0.000 OA
ATOM      4  H   UNL     1       3.713   6.190  19.397  0.00  0.00    +0.000 HD
ENDROOT
BRANCH   2   5
ATOM      5  C   UNL     1       5.493   5.617  17.649  0.00  0.00    +0.000 C 
ATOM      6  C   UNL     1       5.741   4.880  16.323  0.00  0.00    +0.000 C 
ATOM      7  C   UNL     1       4.769   3.731  16.048  0.00  0.00    +0.000 C 
ATOM      8  C   UNL     1       4.566   2.840  17.274  0.00  0.00    +0.000 C 
ATOM      9  N   UNL     1       4.221   3.686  18.404  0.00  0.00    +0.000 N 
ATOM     10  C   UNL     1       3.099   3.468  19.161  0.00  0.00    +0.000 A 
ATOM     11  N   UNL     1       2.204   2.557  18.748  0.00  0.00    +0.000 NA
ATOM     12  C   UNL     1       1.064   2.434  19.454  0.00  0.00    +0.000 A 
ATOM     13  C   UNL     1       0.762   3.201  20.548  0.00  0.00    +0.000 A 
ATOM     14  C   UNL     1       1.722   4.110  20.897  0.00  0.00    +0.000 A 
ATOM     15  N   UNL     1       2.880   4.254  20.226  0.00  0.00    +0.000 NA
ATOM     16  C   UNL     1       5.209   4.675  18.814  0.00  0.00    +0.000 C 
ENDBRANCH   2   5
BRANCH   1  20
ATOM     17  C   UNL     1       0.530   9.742  19.204  0.00  0.00    +0.000 A 
ATOM     18  C   UNL     1       1.155   9.608  17.971  0.00  0.00    +0.000 A 
ATOM     19  C   UNL     1       2.137   8.639  17.764  0.00  0.00    +0.000 A 
ATOM     20  C   UNL     1       2.540   7.782  18.785  0.00  0.00    +0.000 A 
ATOM     21  C   UNL     1       1.916   7.911  20.034  0.00  0.00    +0.000 A 
ATOM     22  C   UNL     1       0.923   8.891  20.244  0.00  0.00    +0.000 A 
BRANCH  17  26
ATOM     23  C   UNL     1      -2.476  12.028  19.173  0.00  0.00    +0.000 C 
ATOM     24  C   UNL     1      -1.710  10.778  18.837  0.00  0.00    +0.000 C 
ATOM     25  O   UNL     1      -2.205   9.940  18.091  0.00  0.00    +0.000 OA
ATOM     26  N   UNL     1      -0.461  10.725  19.442  0.00  0.00    +0.000 N 
ATOM     27  H   UNL     1      -0.263  11.409  20.160  0.00  0.00    +0.000 HD
ENDBRANCH  17  26
ENDBRANCH   1  20
TORSDOF 3
ENDMDL
MODEL 4
REMARK VINA RESULT:      -7.6      1.927      3.881
REMARK  Name = 
REMARK  4 active torsions:
REMARK  status: ('A' for Active; 'I' for Inactive)
REMARK    1  A    between atoms: C_1  and  C_2
REMARK    2  A    between atoms: N_4  and  C_5
REMARK    3  A    between atoms: C_8  and  N_9
REMARK    4  A    between atoms: C_10  and  C_12
REMARK                            x       y       z     vdW  Elec       q    Type
REMARK                         _______ _______ _______ _____ _____    ______ ____
ROOT
ATOM      1  N   UNL     1       3.266   7.300  18.715  0.00  0.00    +0.000 N 
ATOM      2  C   UNL     1       3.992   7.167  17.543  0.00  0.00    +0.000 C 
ATOM      3  O   UNL     1       3.753   7.737  16.478  0.00  0.00    +0.000 OA
ATOM      4  H   UNL     1       3.625   6.815  19.529  0.00  0.00    +0.000 HD
ENDROOT
BRANCH   2   5
ATOM      5  C   UNL     1       5.185   6.214  17.590  0.00  0.00    +0.000 C 
ATOM      6  C   UNL     1       5.480   5.513  16.254  0.00  0.00    +0.000 C 
ATOM      7  C   UNL     1       4.665   4.240  16.015  0.00  0.00    +0.000 C 
ATOM      8  C   UNL     1       4.634   3.334  17.246  0.00  0.00    +0.000 C 
ATOM      9  N   UNL     1       4.221   4.129  18.390  0.00  0.00    +0.000 N 
ATOM     10  C   UNL     1       3.169   3.762  19.191  0.00  0.00    +0.000 A 
ATOM     11  N   UNL     1       2.393   2.735  18.811  0.00  0.00    +0.000 NA
ATOM     12  C   UNL     1       1.309   2.458  19.560  0.00  0.00    +0.000 A 
ATOM     13  C   UNL     1       0.947   3.181  20.667  0.00  0.00    +0.000 A 
ATOM     14  C   UNL     1       1.786   4.213  20.980  0.00  0.00    +0.000 A 
ATOM     15  N   UNL     1       2.886   4.513  20.265  0.00  0.00    +0.000 NA
ATOM     16  C   UNL     1       5.078   5.245  18.764  0.00  0.00    +0.000 C 
ENDBRANCH   2   5
BRANCH   1  20
ATOM     17  C   UNL     1      -0.018   9.896  19.449  0.00  0.00    +0.000 A 
ATOM     18  C   UNL     1       0.534   9.794  18.178  0.00  0.00    +0.000 A 
ATOM     19  C   UNL     1       1.601   8.932  17.925  0.00  0.00    +0.000 A 
ATOM     20  C   UNL     1       2.164   8.156  18.934  0.00  0.00    +0.000 A 
ATOM     21  C   UNL     1       1.615   8.253  20.221  0.00  0.00    +0.000 A 
ATOM     22  C   UNL     1       0.536   9.125  20.478  0.00  0.00    +0.000 A 
BRANCH  17  26
ATOM     23  C   UNL     1      -2.294  12.698  20.562  0.00  0.00    +0.000 C 
ATOM     24  C   UNL     1      -0.973  12.076  20.199  0.00  0.00    +0.000 C 
ATOM     25  O   UNL     1       0.063  12.718  20.335  0.00  0.00    +0.000 OA
ATOM     26  N   UNL     1      -1.093  10.772  19.734  0.00  0.00    +0.000 N 
ATOM     27  H   UNL     1      -2.024  10.439  19.520  0.00  0.00    +0.000 HD
ENDBRANCH  17  26
ENDBRANCH   1  20
TORSDOF 3
ENDMDL
MODEL 5
REMARK VINA RESULT:      -7.6      1.523      1.849
REMARK  Name = 
REMARK  4 active torsions:
REMARK  status: ('A' for Active; 'I' for Inactive)
REMARK    1  A    between atoms: C_1  and  C_2
REMARK    2  A    between atoms: N_4  and  C_5
REMARK    3  A    between atoms: C_8  and  N_9
REMARK    4  A    between atoms: C_10  and  C_12
REMARK                            x       y       z     vdW  Elec       q    Type
REMARK                         _______ _______ _______ _____ _____    ______ ____
ROOT
ATOM      1  N   UNL     1       1.965   7.404  18.143  0.00  0.00    +0.000 N 
ATOM      2  C   UNL     1       2.114   6.336  19.013  0.00  0.00    +0.000 C 
ATOM      3  O   UNL     1       2.165   6.408  20.241  0.00  0.00    +0.000 OA
ATOM      4  H   UNL     1       1.875   7.179  17.159  0.00  0.00    +0.000 HD
ENDROOT
BRANCH   2   5
ATOM      5  C   UNL     1       2.239   4.955  18.373  0.00  0.00    +0.000 C 
ATOM      6  C   UNL     1       2.078   3.789  19.362  0.00  0.00    +0.000 C 
ATOM      7  C   UNL     1       3.365   3.400  20.094  0.00  0.00    +0.000 C 
ATOM      8  C   UNL     1       4.563   3.306  19.149  0.00  0.00    +0.000 C 
ATOM      9  N   UNL     1       4.635   4.536  18.378  0.00  0.00    +0.000 N 
ATOM     10  C   UNL     1       5.778   5.294  18.322  0.00  0.00    +0.000 A 
ATOM     11  N   UNL     1       6.801   4.985  19.133  0.00  0.00    +0.000 NA
ATOM     12  C   UNL     1       7.871   5.803  19.131  0.00  0.00    +0.000 A 
ATOM     13  C   UNL     1       7.957   6.938  18.368  0.00  0.00    +0.000 A 
ATOM     14  C   UNL     1       6.870   7.183  17.576  0.00  0.00    +0.000 A 
ATOM     15  N   UNL     1       5.788   6.384  17.540  0.00  0.00    +0.000 NA
ATOM     16  C   UNL     1       3.500   4.848  17.521  0.00  0.00    +0.000 C 
ENDBRANCH   2   5
BRANCH   1  20
ATOM     17  C   UNL     1       1.391  11.501  19.117  0.00  0.00    +0.000 A 
ATOM     18  C   UNL     1       0.798  10.503  19.878  0.00  0.00    +0.000 A 
ATOM     19  C   UNL     1       0.994   9.155  19.576  0.00  0.00    +0.000 A 
ATOM     20  C   UNL     1       1.775   8.759  18.494  0.00  0.00    +0.000 A 
ATOM     21  C   UNL     1       2.377   9.760  17.717  0.00  0.00    +0.000 A 
ATOM     22  C   UNL     1       2.179  11.123  18.022  0.00  0.00    +0.000 A 
BRANCH  17  26
ATOM     23  C   UNL     1       0.387  15.142  19.189  0.00  0.00    +0.000 C 
ATOM     24  C   UNL     1       0.242  13.694  18.807  0.00  0.00    +0.000 C 
ATOM     25  O   UNL     1      -0.654  13.351  18.043  0.00  0.00    +0.000 OA
ATOM     26  N   UNL     1       1.198  12.876  19.396  0.00  0.00    +0.000 N 
ATOM     27  H   UNL     1       1.764  13.277  20.131  0.00  0.00    +0.000 HD
ENDBRANCH  17  26
ENDBRANCH   1  20
TORSDOF 3
ENDMDL
MODEL 6
REMARK VINA RESULT:      -7.5      0.933      1.336
REMARK  Name = 
REMARK  4 active torsions:
REMARK  status: ('A' for Active; 'I' for Inactive)
REMARK    1  A    between atoms: C_1  and  C_2
REMARK    2  A    between atoms: N_4  and  C_5
REMARK    3  A    between atoms: C_8  and  N_9
REMARK    4  A    between atoms: C_10  and  C_12
REMARK                            x       y       z     vdW  Elec       q    Type
REMARK                         _______ _______ _______ _____ _____    ______ ____
ROOT
ATOM      1  N   UNL     1       2.257   5.978  18.609  0.00  0.00    +0.000 N 
ATOM      2  C   UNL     1       1.781   4.943  19.397  0.00  0.00    +0.000 C 
ATOM      3  O   UNL     1       1.093   5.067  20.411  0.00  0.00    +0.000 OA
ATOM      4  H   UNL     1       2.757   5.715  17.768  0.00  0.00    +0.000 HD
ENDROOT
BRANCH   2   5
ATOM      5  C   UNL     1       2.166   3.530  18.964  0.00  0.00    +0.000 C 
ATOM      6  C   UNL     1       2.353   2.546  20.131  0.00  0.00    +0.000 C 
ATOM      7  C   UNL     1       3.748   2.571  20.760  0.00  0.00    +0.000 C 
ATOM      8  C   UNL     1       4.858   2.570  19.708  0.00  0.00    +0.000 C 
ATOM      9  N   UNL     1       4.588   3.635  18.756  0.00  0.00    +0.000 N 
ATOM     10  C   UNL     1       5.520   4.595  18.454  0.00  0.00    +0.000 A 
ATOM     11  N   UNL     1       6.647   4.655  19.179  0.00  0.00    +0.000 NA
ATOM     12  C   UNL     1       7.499   5.667  18.930  0.00  0.00    +0.000 A 
ATOM     13  C   UNL     1       7.265   6.645  17.999  0.00  0.00    +0.000 A 
ATOM     14  C   UNL     1       6.091   6.514  17.310  0.00  0.00    +0.000 A 
ATOM     15  N   UNL     1       5.220   5.510  17.520  0.00  0.00    +0.000 NA
ATOM     16  C   UNL     1       3.347   3.546  17.999  0.00  0.00    +0.000 C 
ENDBRANCH   2   5
BRANCH   1  20
ATOM     17  C   UNL     1       1.495  10.121  19.178  0.00  0.00    +0.000 A 
ATOM     18  C   UNL     1       1.863   9.633  17.931  0.00  0.00    +0.000 A 
ATOM     19  C   UNL     1       2.099   8.273  17.731  0.00  0.00    +0.000 A 
ATOM     20  C   UNL     1       1.991   7.355  18.773  0.00  0.00    +0.000 A 
ATOM     21  C   UNL     1       1.621   7.838  20.037  0.00  0.00    +0.000 A 
ATOM     22  C   UNL     1       1.383   9.214  20.239  0.00  0.00    +0.000 A 
BRANCH  17  26
ATOM     23  C   UNL     1       0.232  13.678  19.278  0.00  0.00    +0.000 C 
ATOM     24  C   UNL     1       0.118  12.197  19.043  0.00  0.00    +0.000 C 
ATOM     25  O   UNL     1      -0.912  11.731  18.568  0.00  0.00    +0.000 OA
ATOM     26  N   UNL     1       1.262  11.498  19.408  0.00  0.00    +0.000 N 
ATOM     27  H   UNL     1       1.962  11.998  19.939  0.00  0.00    +0.000 HD
ENDBRANCH  17  26
ENDBRANCH   1  20
TORSDOF 3
ENDMDL
MODEL 7
REMARK VINA RESULT:      -7.5      2.047      2.434
REMARK  Name = 
REMARK  4 active torsions:
REMARK  status: ('A' for Active; 'I' for Inactive)
REMARK    1  A    between atoms: C_1  and  C_2
REMARK    2  A    between atoms: N_4  and  C_5
REMARK    3  A    between atoms: C_8  and  N_9
REMARK    4  A    between atoms: C_10  and  C_12
REMARK                            x       y       z     vdW  Elec       q    Type
REMARK                         _______ _______ _______ _____ _____    ______ ____
ROOT
ATOM      1  N   UNL     1       1.793   7.823  18.089  0.00  0.00    +0.000 N 
ATOM      2  C   UNL     1       2.249   6.755  18.843  0.00  0.00    +0.000 C 
ATOM      3  O   UNL     1       2.624   6.807  20.015  0.00  0.00    +0.000 OA
ATOM      4  H   UNL     1       1.458   7.610  17.156  0.00  0.00    +0.000 HD
ENDROOT
BRANCH   2   5
ATOM      5  C   UNL     1       2.300   5.401  18.138  0.00  0.00    +0.000 C 
ATOM      6  C   UNL     1       1.990   4.206  19.054  0.00  0.00    +0.000 C 
ATOM      7  C   UNL     1       3.197   3.675  19.830  0.00  0.00    +0.000 C 
ATOM      8  C   UNL     1       4.436   3.529  18.946  0.00  0.00    +0.000 C 
ATOM      9  N   UNL     1       4.651   4.785  18.247  0.00  0.00    +0.000 N 
ATOM     10  C   UNL     1       5.852   5.447  18.292  0.00  0.00    +0.000 A 
ATOM     11  N   UNL     1       6.799   5.015  19.138  0.00  0.00    +0.000 NA
ATOM     12  C   UNL     1       7.929   5.740  19.237  0.00  0.00    +0.000 A 
ATOM     13  C   UNL     1       8.150   6.899  18.541  0.00  0.00    +0.000 A 
ATOM     14  C   UNL     1       7.132   7.273  17.707  0.00  0.00    +0.000 A 
ATOM     15  N   UNL     1       5.994   6.569  17.571  0.00  0.00    +0.000 NA
ATOM     16  C   UNL     1       3.595   5.231  17.349  0.00  0.00    +0.000 C 
ENDBRANCH   2   5
BRANCH   1  20
ATOM     17  C   UNL     1       1.229  11.845  19.341  0.00  0.00    +0.000 A 
ATOM     18  C   UNL     1       0.587  10.802  19.997  0.00  0.00    +0.000 A 
ATOM     19  C   UNL     1       0.779   9.478  19.604  0.00  0.00    +0.000 A 
ATOM     20  C   UNL     1       1.606   9.151  18.532  0.00  0.00    +0.000 A 
ATOM     21  C   UNL     1       2.257  10.197  17.862  0.00  0.00    +0.000 A 
ATOM     22  C   UNL     1       2.063  11.536  18.259  0.00  0.00    +0.000 A 
BRANCH  17  26
ATOM     23  C   UNL     1       1.198  15.244  20.987  0.00  0.00    +0.000 C 
ATOM     24  C   UNL     1       1.732  13.864  20.719  0.00  0.00    +0.000 C 
ATOM     25  O   UNL     1       2.680  13.438  21.369  0.00  0.00    +0.000 OA
ATOM     26  N   UNL     1       1.041  13.198  19.714  0.00  0.00    +0.000 N 
ATOM     27  H   UNL     1       0.393  13.740  19.158  0.00  0.00    +0.000 HD
ENDBRANCH  17  26
ENDBRANCH   1  20
TORSDOF 3
ENDMDL
MODEL 8
REMARK VINA RESULT:      -7.5      2.621      8.764
REMARK  Name = 
REMARK  4 active torsions:
REMARK  status: ('A' for Active; 'I' for Inactive)
REMARK    1  A    between atoms: C_1  and  C_2
REMARK    2  A    between atoms: N_4  and  C_5
REMARK    3  A    between atoms: C_8  and  N_9
REMARK    4  A    between atoms: C_10  and  C_12
REMARK                            x       y       z     vdW  Elec       q    Type
REMARK                         _______ _______ _______ _____ _____    ______ ____
ROOT
ATOM      1  N   UNL     1       0.909  10.485  19.763  0.00  0.00    +0.000 N 
ATOM      2  C   UNL     1       0.667  10.940  21.048  0.00  0.00    +0.000 C 
ATOM      3  O   UNL     1       0.837  10.298  22.085  0.00  0.00    +0.000 OA
ATOM      4  H   UNL     1       0.782  11.153  19.012  0.00  0.00    +0.000 HD
ENDROOT
BRANCH   2   5
ATOM      5  C   UNL     1       0.127  12.364  21.171  0.00  0.00    +0.000 C 
ATOM      6  C   UNL     1      -0.741  12.599  22.418  0.00  0.00    +0.000 C 
ATOM      7  C   UNL     1      -2.213  12.219  22.243  0.00  0.00    +0.000 C 
ATOM      8  C   UNL     1      -2.792  12.734  20.925  0.00  0.00    +0.000 C 
ATOM      9  N   UNL     1      -1.912  12.321  19.845  0.00  0.00    +0.000 N 
ATOM     10  C   UNL     1      -2.374  11.631  18.753  0.00  0.00    +0.000 A 
ATOM     11  N   UNL     1      -3.637  11.177  18.760  0.00  0.00    +0.000 NA
ATOM     12  C   UNL     1      -4.035  10.417  17.722  0.00  0.00    +0.000 A 
ATOM     13  C   UNL     1      -3.217  10.067  16.680  0.00  0.00    +0.000 A 
ATOM     14  C   UNL     1      -1.945  10.564  16.754  0.00  0.00    +0.000 A 
ATOM     15  N   UNL     1      -1.513  11.337  17.767  0.00  0.00    +0.000 NA
ATOM     16  C   UNL     1      -0.544  12.819  19.879  0.00  0.00    +0.000 C 
ENDBRANCH   2   5
BRANCH   1  20
ATOM     17  C   UNL     1       2.496   6.684  18.714  0.00  0.00    +0.000 A 
ATOM     18  C   UNL     1       2.439   7.710  17.780  0.00  0.00    +0.000 A 
ATOM     19  C   UNL     1       1.935   8.965  18.120  0.00  0.00    +0.000 A 
ATOM     20  C   UNL     1       1.456   9.234  19.399  0.00  0.00    +0.000 A 
ATOM     21  C   UNL     1       1.507   8.204  20.349  0.00  0.00    +0.000 A 
ATOM     22  C   UNL     1       2.017   6.934  20.006  0.00  0.00    +0.000 A 
BRANCH  17  26
ATOM     23  C   UNL     1       3.017   3.075  17.728  0.00  0.00    +0.000 C 
ATOM     24  C   UNL     1       2.262   4.374  17.800  0.00  0.00    +0.000 C 
ATOM     25  O   UNL     1       1.117   4.440  17.365  0.00  0.00    +0.000 OA
ATOM     26  N   UNL     1       2.992   5.398  18.390  0.00  0.00    +0.000 N 
ATOM     27  H   UNL     1       3.978   5.235  18.545  0.00  0.00    +0.000 HD
ENDBRANCH  17  26
ENDBRANCH   1  20
TORSDOF 3
ENDMDL
MODEL 9
REMARK VINA RESULT:      -7.5      2.747      8.915
REMARK  Name = 
REMARK  4 active torsions:
REMARK  status: ('A' for Active; 'I' for Inactive)
REMARK    1  A    between atoms: C_1  and  C_2
REMARK    2  A    between atoms: N_4  and  C_5
REMARK    3  A    between atoms: C_8  and  N_9
REMARK    4  A    between atoms: C_10  and  C_12
REMARK                            x       y       z     vdW  Elec       q    Type
REMARK                         _______ _______ _______ _____ _____    ______ ____
ROOT
ATOM      1  N   UNL     1       1.282   9.970  19.961  0.00  0.00    +0.000 N 
ATOM      2  C   UNL     1       0.170  10.311  20.712  0.00  0.00    +0.000 C 
ATOM      3  O   UNL     1      -0.684   9.529  21.132  0.00  0.00    +0.000 OA
ATOM      4  H   UNL     1       1.931  10.718  19.744  0.00  0.00    +0.000 HD
ENDROOT
BRANCH   2   5
ATOM      5  C   UNL     1      -0.004  11.795  21.028  0.00  0.00    +0.000 C 
ATOM      6  C   UNL     1      -0.737  12.072  22.350  0.00  0.00    +0.000 C 
ATOM      7  C   UNL     1      -2.263  12.072  22.238  0.00  0.00    +0.000 C 
ATOM      8  C   UNL     1      -2.755  12.868  21.029  0.00  0.00    +0.000 C 
ATOM      9  N   UNL     1      -2.047  12.395  19.851  0.00  0.00    +0.000 N 
ATOM     10  C   UNL     1      -2.707  11.973  18.725  0.00  0.00    +0.000 A 
ATOM     11  N   UNL     1      -4.041  11.830  18.770  0.00  0.00    +0.000 NA
ATOM     12  C   UNL     1      -4.653  11.319  17.686  0.00  0.00    +0.000 A 
ATOM     13  C   UNL     1      -3.988  10.917  16.557  0.00  0.00    +0.000 A 
ATOM     14  C   UNL     1      -2.632  11.089  16.596  0.00  0.00    +0.000 A 
ATOM     15  N   UNL     1      -1.985  11.608  17.655  0.00  0.00    +0.000 NA
ATOM     16  C   UNL     1      -0.599  12.550  19.843  0.00  0.00    +0.000 C 
ENDBRANCH   2   5
BRANCH   1  20
ATOM     17  C   UNL     1       2.553   6.084  18.798  0.00  0.00    +0.000 A 
ATOM     18  C   UNL     1       2.189   6.346  20.112  0.00  0.00    +0.000 A 
ATOM     19  C   UNL     1       1.755   7.614  20.499  0.00  0.00    +0.000 A 
ATOM     20  C   UNL     1       1.685   8.667  19.591  0.00  0.00    +0.000 A 
ATOM     21  C   UNL     1       2.052   8.413  18.262  0.00  0.00    +0.000 A 
ATOM     22  C   UNL     1       2.491   7.131  17.870  0.00  0.00    +0.000 A 
BRANCH  17  26
ATOM     23  C   UNL     1       2.957   2.529  17.589  0.00  0.00    +0.000 C 
ATOM     24  C   UNL     1       2.234   3.837  17.762  0.00  0.00    +0.000 C 
ATOM     25  O   UNL     1       1.077   3.951  17.374  0.00  0.00    +0.000 OA
ATOM     26  N   UNL     1       3.008   4.809  18.383  0.00  0.00    +0.000 N 
ATOM     27  H   UNL     1       3.995   4.618  18.493  0.00  0.00    +0.000 HD
ENDBRANCH  17  26
ENDBRANCH   1  20
TORSDOF 3
ENDMDL
