MODEL 1
REMARK VINA RESULT:      -7.0      0.000      0.000
REMARK  Name = 
REMARK  9 active torsions:
REMARK  status: ('A' for Active; 'I' for Inactive)
REMARK    1  A    between atoms: C_1  and  C_2
REMARK    2  A    between atoms: C_2  and  C_3
REMARK    3  A    between atoms: C_2  and  O_4
REMARK    4  A    between atoms: O_4  and  C_5
REMARK    5  A    between atoms: C_9  and  C_10
REMARK    6  A    between atoms: C_10  and  N_11
REMARK    7  A    between atoms: N_14  and  C_15
REMARK    8  A    between atoms: C_15  and  C_16
REMARK    9  A    between atoms: C_16  and  O_17
REMARK                            x       y       z     vdW  Elec       q    Type
REMARK                         _______ _______ _______ _____ _____    ______ ____
ROOT
ATOM      1  N   UNL     1       1.148   8.873  17.760  0.00  0.00    +0.000 N 
ATOM      2  C   UNL     1       0.086   9.632  18.184  0.00  0.00    +0.000 C 
ATOM      3  O   UNL     1      -0.069   9.995  19.338  0.00  0.00    +0.000 OA
ATOM      4  N   UNL     1      -0.763   9.941  17.157  0.00  0.00    +0.000 N 
ATOM      5  H   UNL     1       1.445   9.027  16.807  0.00  0.00    +0.000 HD
ATOM      6  H   UNL     1      -0.767   9.260  16.410  0.00  0.00    +0.000 HD
ENDROOT
BRANCH   4   7
ATOM      7  C   UNL     1      -2.008  10.701  17.365  0.00  0.00    +0.000 C 
ATOM      8  C   UNL     1      -2.664  11.011  16.005  0.00  0.00    +0.000 C 
ATOM      9  C   UNL     1      -4.137  11.262  16.322  0.00  0.00    +0.000 C 
ATOM     10  C   UNL     1      -4.425  10.504  17.616  0.00  0.00    +0.000 C 
ATOM     11  C   UNL     1      -3.107   9.850  18.028  0.00  0.00    +0.000 C 
BRANCH   7  12
ATOM     12  C   UNL     1      -1.762  12.006  18.177  0.00  0.00    +0.000 C 
BRANCH  12  13
ATOM     13  O   UNL     1      -0.970  12.940  17.444  0.00  0.00    +0.000 OA
ATOM     14  H   UNL     1      -1.563  13.316  16.771  0.00  0.00    +0.000 HD
ENDBRANCH  12  13
ENDBRANCH   7  12
ENDBRANCH   4   7
BRANCH   1  15
ATOM     15  C   UNL     1       2.171   8.557  18.727  0.00  0.00    +0.000 C 
BRANCH  15  20
ATOM     16  C   UNL     1       3.107   4.882  18.924  0.00  0.00    +0.000 A 
ATOM     17  C   UNL     1       4.004   4.762  17.865  0.00  0.00    +0.000 A 
ATOM     18  C   UNL     1       4.339   5.879  17.098  0.00  0.00    +0.000 A 
ATOM     19  C   UNL     1       3.768   7.120  17.385  0.00  0.00    +0.000 A 
ATOM     20  C   UNL     1       2.869   7.254  18.452  0.00  0.00    +0.000 A 
ATOM     21  C   UNL     1       2.582   6.132  19.246  0.00  0.00    +0.000 A 
BRANCH  16  22
ATOM     22  O   UNL     1       2.819   3.733  19.610  0.00  0.00    +0.000 OA
BRANCH  22  24
ATOM     23  C   UNL     1       0.903   2.526  18.832  0.00  0.00    +0.000 C 
ATOM     24  C   UNL     1       1.430   3.490  19.890  0.00  0.00    +0.000 C 
ATOM     25  C   UNL     1       1.315   2.878  21.282  0.00  0.00    +0.000 C 
ENDBRANCH  22  24
ENDBRANCH  16  22
ENDBRANCH  15  20
ENDBRANCH   1  15
TORSDOF 7
ENDMDL
MODEL 2
REMARK VINA RESULT:      -7.0      6.814     10.432
REMARK  Name = 
REMARK  9 active torsions:
REMARK  status: ('A' for Active; 'I' for Inactive)
REMARK    1  A    between atoms: C_1  and  C_2
REMARK    2  A    between atoms: C_2  and  C_3
REMARK    3  A    between atoms: C_2  and  O_4
REMARK    4  A    between atoms: O_4  and  C_5
REMARK    5  A    between atoms: C_9  and  C_10
REMARK    6  A    between atoms: C_10  and  N_11
REMARK    7  A    between atoms: N_14  and  C_15
REMARK    8  A    between atoms: C_15  and  C_16
REMARK    9  A    between atoms: C_16  and  O_17
REMARK                            x       y       z     vdW  Elec       q    Type
REMARK                         _______ _______ _______ _____ _____    ______ ____
ROOT
ATOM      1  N   UNL     1       8.073   8.843  17.670  0.00  0.00    +0.000 N 
ATOM      2  C   UNL     1       7.776   7.515  17.845  0.00  0.00    +0.000 C 
ATOM      3  O   UNL     1       8.165   6.853  18.792  0.00  0.00    +0.000 OA
ATOM      4  N   UNL     1       6.982   7.033  16.840  0.00  0.00    +0.000 N 
ATOM      5  H   UNL     1       7.374   9.391  17.189  0.00  0.00    +0.000 HD
ATOM      6  H   UNL     1       7.098   7.515  15.960  0.00  0.00    +0.000 HD
ENDROOT
BRANCH   4   7
ATOM      7  C   UNL     1       6.569   5.620  16.771  0.00  0.00    +0.000 C 
ATOM      8  C   UNL     1       5.033   5.529  16.680  0.00  0.00    +0.000 C 
ATOM      9  C   UNL     1       4.752   4.162  16.060  0.00  0.00    +0.000 C 
ATOM     10  C   UNL     1       5.998   3.801  15.252  0.00  0.00    +0.000 C 
ATOM     11  C   UNL     1       6.977   4.958  15.441  0.00  0.00    +0.000 C 
BRANCH   7  12
ATOM     12  C   UNL     1       7.108   4.799  17.979  0.00  0.00    +0.000 C 
BRANCH  12  13
ATOM     13  O   UNL     1       8.286   4.070  17.637  0.00  0.00    +0.000 OA
ATOM     14  H   UNL     1       8.488   3.518  18.412  0.00  0.00    +0.000 HD
ENDBRANCH  12  13
ENDBRANCH   7  12
ENDBRANCH   4   7
BRANCH   1  15
ATOM     15  C   UNL     1       8.826   9.502  18.710  0.00  0.00    +0.000 C 
BRANCH  15  20
ATOM     16  C   UNL     1       8.649  13.149  17.664  0.00  0.00    +0.000 A 
ATOM     17  C   UNL     1       9.972  13.552  17.822  0.00  0.00    +0.000 A 
ATOM     18  C   UNL     1      10.941  12.637  18.238  0.00  0.00    +0.000 A 
ATOM     19  C   UNL     1      10.583  11.314  18.505  0.00  0.00    +0.000 A 
ATOM     20  C   UNL     1       9.256  10.895  18.343  0.00  0.00    +0.000 A 
ATOM     21  C   UNL     1       8.304  11.814  17.875  0.00  0.00    +0.000 A 
BRANCH  16  22
ATOM     22  O   UNL     1       7.761  14.114  17.274  0.00  0.00    +0.000 OA
BRANCH  22  24
ATOM     23  C   UNL     1       7.463  16.178  18.450  0.00  0.00    +0.000 C 
ATOM     24  C   UNL     1       6.993  14.733  18.319  0.00  0.00    +0.000 C 
ATOM     25  C   UNL     1       5.518  14.680  17.936  0.00  0.00    +0.000 C 
ENDBRANCH  22  24
ENDBRANCH  16  22
ENDBRANCH  15  20
ENDBRANCH   1  15
TORSDOF 7
ENDMDL
MODEL 3
REMARK VINA RESULT:      -6.9      6.786     10.426
REMARK  Name = 
REMARK  9 active torsions:
REMARK  status: ('A' for Active; 'I' for Inactive)
REMARK    1  A    between atoms: C_1  and  C_2
REMARK    2  A    between atoms: C_2  and  C_3
REMARK    3  A    between atoms: C_2  and  O_4
REMARK    4  A    between atoms: O_4  and  C_5
REMARK    5  A    between atoms: C_9  and  C_10
REMARK    6  A    between atoms: C_10  and  N_11
REMARK    7  A    between atoms: N_14  and  C_15
REMARK    8  A    between atoms: C_15  and  C_16
REMARK    9  A    between atoms: C_16  and  O_17
REMARK                            x       y       z     vdW  Elec       q    Type
REMARK                         _______ _______ _______ _____ _____    ______ ____
ROOT
ATOM      1  N   UNL     1       8.102   8.948  17.763  0.00  0.00    +0.000 N 
ATOM      2  C   UNL     1       7.757   7.632  17.941  0.00  0.00    +0.000 C 
ATOM      3  O   UNL     1       8.218   6.923  18.821  0.00  0.00    +0.000 OA
ATOM      4  N   UNL     1       6.828   7.219  17.025  0.00  0.00    +0.000 N 
ATOM      5  H   UNL     1       7.382   9.543  17.380  0.00  0.00    +0.000 HD
ATOM      6  H   UNL     1       6.867   7.721  16.149  0.00  0.00    +0.000 HD
ENDROOT
BRANCH   4   7
ATOM      7  C   UNL     1       6.336   5.831  16.972  0.00  0.00    +0.000 C 
ATOM      8  C   UNL     1       5.904   5.376  18.380  0.00  0.00    +0.000 C 
ATOM      9  C   UNL     1       4.929   4.225  18.145  0.00  0.00    +0.000 C 
ATOM     10  C   UNL     1       4.339   4.451  16.754  0.00  0.00    +0.000 C 
ATOM     11  C   UNL     1       5.003   5.714  16.210  0.00  0.00    +0.000 C 
BRANCH   7  12
ATOM     12  C   UNL     1       7.396   4.862  16.372  0.00  0.00    +0.000 C 
BRANCH  12  13
ATOM     13  O   UNL     1       8.121   4.177  17.393  0.00  0.00    +0.000 OA
ATOM     14  H   UNL     1       7.447   3.814  17.995  0.00  0.00    +0.000 HD
ENDBRANCH  12  13
ENDBRANCH   7  12
ENDBRANCH   4   7
BRANCH   1  15
ATOM     15  C   UNL     1       9.004   9.537  18.723  0.00  0.00    +0.000 C 
BRANCH  15  20
ATOM     16  C   UNL     1       9.058  13.331  18.561  0.00  0.00    +0.000 A 
ATOM     17  C   UNL     1      10.252  13.568  17.886  0.00  0.00    +0.000 A 
ATOM     18  C   UNL     1      11.036  12.499  17.447  0.00  0.00    +0.000 A 
ATOM     19  C   UNL     1      10.627  11.186  17.693  0.00  0.00    +0.000 A 
ATOM     20  C   UNL     1       9.424  10.936  18.366  0.00  0.00    +0.000 A 
ATOM     21  C   UNL     1       8.621  12.021  18.754  0.00  0.00    +0.000 A 
BRANCH  16  22
ATOM     22  O   UNL     1       8.363  14.435  18.973  0.00  0.00    +0.000 OA
BRANCH  22  24
ATOM     23  C   UNL     1       6.299  14.750  17.801  0.00  0.00    +0.000 C 
ATOM     24  C   UNL     1       7.743  15.221  17.941  0.00  0.00    +0.000 C 
ATOM     25  C   UNL     1       7.794  16.689  18.349  0.00  0.00    +0.000 C 
ENDBRANCH  22  24
ENDBRANCH  16  22
ENDBRANCH  15  20
ENDBRANCH   1  15
TORSDOF 7
ENDMDL
MODEL 4
REMARK VINA RESULT:      -6.8      5.540      8.245
REMARK  Name = 
REMARK  9 active torsions:
REMARK  status: ('A' for Active; 'I' for Inactive)
REMARK    1  A    between atoms: C_1  and  C_2
REMARK    2  A    between atoms: C_2  and  C_3
REMARK    3  A    between atoms: C_2  and  O_4
REMARK    4  A    between atoms: O_4  and  C_5
REMARK    5  A    between atoms: C_9  and  C_10
REMARK    6  A    between atoms: C_10  and  N_11
REMARK    7  A    between atoms: N_14  and  C_15
REMARK    8  A    between atoms: C_15  and  C_16
REMARK    9  A    between atoms: C_16  and  O_17
REMARK                            x       y       z     vdW  Elec       q    Type
REMARK                         _______ _______ _______ _____ _____    ______ ____
ROOT
ATOM      1  N   UNL     1       7.449   8.250  17.317  0.00  0.00    +0.000 N 
ATOM      2  C   UNL     1       8.321   9.002  18.064  0.00  0.00    +0.000 C 
ATOM      3  O   UNL     1       8.984   8.555  18.985  0.00  0.00    +0.000 OA
ATOM      4  N   UNL     1       8.363  10.303  17.641  0.00  0.00    +0.000 N 
ATOM      5  H   UNL     1       7.334   8.536  16.356  0.00  0.00    +0.000 HD
ATOM      6  H   UNL     1       7.508  10.621  17.208  0.00  0.00    +0.000 HD
ENDROOT
BRANCH   4   7
ATOM      7  C   UNL     1       9.183  11.324  18.317  0.00  0.00    +0.000 C 
ATOM      8  C   UNL     1       9.265  11.014  19.825  0.00  0.00    +0.000 C 
ATOM      9  C   UNL     1      10.524  11.730  20.310  0.00  0.00    +0.000 C 
ATOM     10  C   UNL     1      11.433  11.858  19.089  0.00  0.00    +0.000 C 
ATOM     11  C   UNL     1      10.669  11.234  17.922  0.00  0.00    +0.000 C 
BRANCH   7  12
ATOM     12  C   UNL     1       8.638  12.762  18.070  0.00  0.00    +0.000 C 
BRANCH  12  13
ATOM     13  O   UNL     1       7.782  12.811  16.929  0.00  0.00    +0.000 OA
ATOM     14  H   UNL     1       8.342  13.117  16.194  0.00  0.00    +0.000 HD
ENDBRANCH  12  13
ENDBRANCH   7  12
ENDBRANCH   4   7
BRANCH   1  15
ATOM     15  C   UNL     1       7.379   6.836  17.597  0.00  0.00    +0.000 C 
BRANCH  15  20
ATOM     16  C   UNL     1       4.457   4.770  18.870  0.00  0.00    +0.000 A 
ATOM     17  C   UNL     1       3.370   5.471  18.354  0.00  0.00    +0.000 A 
ATOM     18  C   UNL     1       3.575   6.602  17.561  0.00  0.00    +0.000 A 
ATOM     19  C   UNL     1       4.873   7.038  17.289  0.00  0.00    +0.000 A 
ATOM     20  C   UNL     1       5.975   6.337  17.798  0.00  0.00    +0.000 A 
ATOM     21  C   UNL     1       5.753   5.173  18.551  0.00  0.00    +0.000 A 
BRANCH  16  22
ATOM     22  O   UNL     1       4.166   3.687  19.655  0.00  0.00    +0.000 OA
BRANCH  22  24
ATOM     23  C   UNL     1       3.338   1.699  18.609  0.00  0.00    +0.000 C 
ATOM     24  C   UNL     1       2.954   2.981  19.341  0.00  0.00    +0.000 C 
ATOM     25  C   UNL     1       2.227   2.661  20.643  0.00  0.00    +0.000 C 
ENDBRANCH  22  24
ENDBRANCH  16  22
ENDBRANCH  15  20
ENDBRANCH   1  15
TORSDOF 7
ENDMDL
MODEL 5
REMARK VINA RESULT:      -6.8      1.816      7.896
REMARK  Name = 
REMARK  9 active torsions:
REMARK  status: ('A' for Active; 'I' for Inactive)
REMARK    1  A    between atoms: C_1  and  C_2
REMARK    2  A    between atoms: C_2  and  C_3
REMARK    3  A    between atoms: C_2  and  O_4
REMARK    4  A    between atoms: O_4  and  C_5
REMARK    5  A    between atoms: C_9  and  C_10
REMARK    6  A    between atoms: C_10  and  N_11
REMARK    7  A    between atoms: N_14  and  C_15
REMARK    8  A    between atoms: C_15  and  C_16
REMARK    9  A    between atoms: C_16  and  O_17
REMARK                            x       y       z     vdW  Elec       q    Type
REMARK                         _______ _______ _______ _____ _____    ______ ____
ROOT
ATOM      1  N   UNL     1       2.120   8.132  19.355  0.00  0.00    +0.000 N 
ATOM      2  C   UNL     1       2.294   6.799  19.079  0.00  0.00    +0.000 C 
ATOM      3  O   UNL     1       2.414   6.351  17.951  0.00  0.00    +0.000 OA
ATOM      4  N   UNL     1       2.331   6.043  20.219  0.00  0.00    +0.000 N 
ATOM      5  H   UNL     1       2.499   8.452  20.234  0.00  0.00    +0.000 HD
ATOM      6  H   UNL     1       1.810   6.438  20.989  0.00  0.00    +0.000 HD
ENDROOT
BRANCH   4   7
ATOM      7  C   UNL     1       2.455   4.575  20.186  0.00  0.00    +0.000 C 
ATOM      8  C   UNL     1       2.221   4.000  21.597  0.00  0.00    +0.000 C 
ATOM      9  C   UNL     1       1.810   2.547  21.372  0.00  0.00    +0.000 C 
ATOM     10  C   UNL     1       1.207   2.492  19.969  0.00  0.00    +0.000 C 
ATOM     11  C   UNL     1       1.303   3.910  19.409  0.00  0.00    +0.000 C 
BRANCH   7  12
ATOM     12  C   UNL     1       3.832   4.121  19.619  0.00  0.00    +0.000 C 
BRANCH  12  13
ATOM     13  O   UNL     1       3.742   3.768  18.239  0.00  0.00    +0.000 OA
ATOM     14  H   UNL     1       4.644   3.859  17.885  0.00  0.00    +0.000 HD
ENDBRANCH  12  13
ENDBRANCH   7  12
ENDBRANCH   4   7
BRANCH   1  15
ATOM     15  C   UNL     1       2.158   9.054  18.245  0.00  0.00    +0.000 C 
BRANCH  15  20
ATOM     16  C   UNL     1      -1.276  10.667  18.074  0.00  0.00    +0.000 A 
ATOM     17  C   UNL     1      -1.011  11.947  18.554  0.00  0.00    +0.000 A 
ATOM     18  C   UNL     1       0.290  12.310  18.907  0.00  0.00    +0.000 A 
ATOM     19  C   UNL     1       1.330  11.385  18.787  0.00  0.00    +0.000 A 
ATOM     20  C   UNL     1       1.076  10.096  18.299  0.00  0.00    +0.000 A 
ATOM     21  C   UNL     1      -0.229   9.764  17.899  0.00  0.00    +0.000 A 
BRANCH  16  22
ATOM     22  O   UNL     1      -2.582  10.389  17.771  0.00  0.00    +0.000 OA
BRANCH  22  24
ATOM     23  C   UNL     1      -2.941  10.287  15.407  0.00  0.00    +0.000 C 
ATOM     24  C   UNL     1      -3.149  11.117  16.670  0.00  0.00    +0.000 C 
ATOM     25  C   UNL     1      -4.636  11.325  16.938  0.00  0.00    +0.000 C 
ENDBRANCH  22  24
ENDBRANCH  16  22
ENDBRANCH  15  20
ENDBRANCH   1  15
TORSDOF 7
ENDMDL
MODEL 6
REMARK VINA RESULT:      -6.7      7.261     10.890
REMARK  Name = 
REMARK  9 active torsions:
REMARK  status: ('A' for Active; 'I' for Inactive)
REMARK    1  A    between atoms: C_1  and  C_2
REMARK    2  A    between atoms: C_2  and  C_3
REMARK    3  A    between atoms: C_2  and  O_4
REMARK    4  A    between atoms: O_4  and  C_5
REMARK    5  A    between atoms: C_9  and  C_10
REMARK    6  A    between atoms: C_10  and  N_11
REMARK    7  A    between atoms: N_14  and  C_15
REMARK    8  A    between atoms: C_15  and  C_16
REMARK    9  A    between atoms: C_16  and  O_17
REMARK                            x       y       z     vdW  Elec       q    Type
REMARK                         _______ _______ _______ _____ _____    ______ ____
ROOT
ATOM      1  N   UNL     1       8.457   8.662  18.535  0.00  0.00    +0.000 N 
ATOM      2  C   UNL     1       7.610   7.810  17.873  0.00  0.00    +0.000 C 
ATOM      3  O   UNL     1       7.093   8.067  16.799  0.00  0.00    +0.000 OA
ATOM      4  N   UNL     1       7.430   6.637  18.555  0.00  0.00    +0.000 N 
ATOM      5  H   UNL     1       9.168   8.223  19.103  0.00  0.00    +0.000 HD
ATOM      6  H   UNL     1       7.538   6.725  19.556  0.00  0.00    +0.000 HD
ENDROOT
BRANCH   4   7
ATOM      7  C   UNL     1       6.522   5.579  18.078  0.00  0.00    +0.000 C 
ATOM      8  C   UNL     1       5.928   4.820  19.280  0.00  0.00    +0.000 C 
ATOM      9  C   UNL     1       4.643   4.184  18.754  0.00  0.00    +0.000 C 
ATOM     10  C   UNL     1       4.195   5.050  17.578  0.00  0.00    +0.000 C 
ATOM     11  C   UNL     1       5.243   6.153  17.439  0.00  0.00    +0.000 C 
BRANCH   7  12
ATOM     12  C   UNL     1       7.234   4.603  17.096  0.00  0.00    +0.000 C 
BRANCH  12  13
ATOM     13  O   UNL     1       8.379   3.997  17.695  0.00  0.00    +0.000 OA
ATOM     14  H   UNL     1       9.101   4.109  17.053  0.00  0.00    +0.000 HD
ENDBRANCH  12  13
ENDBRANCH   7  12
ENDBRANCH   4   7
BRANCH   1  15
ATOM     15  C   UNL     1       8.808   9.898  17.878  0.00  0.00    +0.000 C 
BRANCH  15  20
ATOM     16  C   UNL     1      10.703  12.974  19.051  0.00  0.00    +0.000 A 
ATOM     17  C   UNL     1      10.634  12.837  20.435  0.00  0.00    +0.000 A 
ATOM     18  C   UNL     1      10.001  11.728  21.002  0.00  0.00    +0.000 A 
ATOM     19  C   UNL     1       9.426  10.757  20.180  0.00  0.00    +0.000 A 
ATOM     20  C   UNL     1       9.495  10.881  18.785  0.00  0.00    +0.000 A 
ATOM     21  C   UNL     1      10.180  11.974  18.232  0.00  0.00    +0.000 A 
BRANCH  16  22
ATOM     22  O   UNL     1      11.323  14.100  18.581  0.00  0.00    +0.000 OA
BRANCH  22  24
ATOM     23  C   UNL     1       9.462  15.583  18.316  0.00  0.00    +0.000 C 
ATOM     24  C   UNL     1      10.600  14.862  17.601  0.00  0.00    +0.000 C 
ATOM     25  C   UNL     1      11.556  15.865  16.964  0.00  0.00    +0.000 C 
ENDBRANCH  22  24
ENDBRANCH  16  22
ENDBRANCH  15  20
ENDBRANCH   1  15
TORSDOF 7
ENDMDL
MODEL 7
REMARK VINA RESULT:      -6.7      7.014     10.487
REMARK  Name = 
REMARK  9 active torsions:
REMARK  status: ('A' for Active; 'I' for Inactive)
REMARK    1  A    between atoms: C_1  and  C_2
REMARK    2  A    between atoms: C_2  and  C_3
REMARK    3  A    between atoms: C_2  and  O_4
REMARK    4  A    between atoms: O_4  and  C_5
REMARK    5  A    between atoms: C_9  and  C_10
REMARK    6  A    between atoms: C_10  and  N_11
REMARK    7  A    between atoms: N_14  and  C_15
REMARK    8  A    between atoms: C_15  and  C_16
REMARK    9  A    between atoms: C_16  and  O_17
REMARK                            x       y       z     vdW  Elec       q    Type
REMARK                         _______ _______ _______ _____ _____    ______ ____
ROOT
ATOM      1  N   UNL     1       8.096   8.959  17.911  0.00  0.00    +0.000 N 
ATOM      2  C   UNL     1       7.720   7.640  17.946  0.00  0.00    +0.000 C 
ATOM      3  O   UNL     1       8.193   6.820  18.715  0.00  0.00    +0.000 OA
ATOM      4  N   UNL     1       6.743   7.364  17.028  0.00  0.00    +0.000 N 
ATOM      5  H   UNL     1       7.379   9.614  17.634  0.00  0.00    +0.000 HD
ATOM      6  H   UNL     1       6.762   7.966  16.217  0.00  0.00    +0.000 HD
ENDROOT
BRANCH   4   7
ATOM      7  C   UNL     1       6.209   6.005  16.831  0.00  0.00    +0.000 C 
ATOM      8  C   UNL     1       5.267   5.986  15.610  0.00  0.00    +0.000 C 
ATOM      9  C   UNL     1       5.230   4.528  15.159  0.00  0.00    +0.000 C 
ATOM     10  C   UNL     1       6.540   3.905  15.638  0.00  0.00    +0.000 C 
ATOM     11  C   UNL     1       7.294   5.012  16.374  0.00  0.00    +0.000 C 
BRANCH   7  12
ATOM     12  C   UNL     1       5.484   5.476  18.103  0.00  0.00    +0.000 C 
BRANCH  12  13
ATOM     13  O   UNL     1       6.329   4.620  18.872  0.00  0.00    +0.000 OA
ATOM     14  H   UNL     1       5.738   3.961  19.276  0.00  0.00    +0.000 HD
ENDBRANCH  12  13
ENDBRANCH   7  12
ENDBRANCH   4   7
BRANCH   1  15
ATOM     15  C   UNL     1       9.052   9.406  18.895  0.00  0.00    +0.000 C 
BRANCH  15  20
ATOM     16  C   UNL     1       9.919  12.881  20.160  0.00  0.00    +0.000 A 
ATOM     17  C   UNL     1       9.668  13.661  19.035  0.00  0.00    +0.000 A 
ATOM     18  C   UNL     1       9.184  13.073  17.864  0.00  0.00    +0.000 A 
ATOM     19  C   UNL     1       8.958  11.696  17.817  0.00  0.00    +0.000 A 
ATOM     20  C   UNL     1       9.201  10.902  18.946  0.00  0.00    +0.000 A 
ATOM     21  C   UNL     1       9.637  11.516  20.130  0.00  0.00    +0.000 A 
BRANCH  16  22
ATOM     22  O   UNL     1      10.411  13.535  21.256  0.00  0.00    +0.000 OA
BRANCH  22  24
ATOM     23  C   UNL     1       8.786  13.855  22.985  0.00  0.00    +0.000 C 
ATOM     24  C   UNL     1       9.552  14.524  21.848  0.00  0.00    +0.000 C 
ATOM     25  C   UNL     1      10.414  15.664  22.377  0.00  0.00    +0.000 C 
ENDBRANCH  22  24
ENDBRANCH  16  22
ENDBRANCH  15  20
ENDBRANCH   1  15
TORSDOF 7
ENDMDL
MODEL 8
REMARK VINA RESULT:      -6.7      1.765      7.636
REMARK  Name = 
REMARK  9 active torsions:
REMARK  status: ('A' for Active; 'I' for Inactive)
REMARK    1  A    between atoms: C_1  and  C_2
REMARK    2  A    between atoms: C_2  and  C_3
REMARK    3  A    between atoms: C_2  and  O_4
REMARK    4  A    between atoms: O_4  and  C_5
REMARK    5  A    between atoms: C_9  and  C_10
REMARK    6  A    between atoms: C_10  and  N_11
REMARK    7  A    between atoms: N_14  and  C_15
REMARK    8  A    between atoms: C_15  and  C_16
REMARK    9  A    between atoms: C_16  and  O_17
REMARK                            x       y       z     vdW  Elec       q    Type
REMARK                         _______ _______ _______ _____ _____    ______ ____
ROOT
ATOM      1  N   UNL     1       2.253   8.166  17.720  0.00  0.00    +0.000 N 
ATOM      2  C   UNL     1       2.334   7.159  18.649  0.00  0.00    +0.000 C 
ATOM      3  O   UNL     1       2.486   7.349  19.844  0.00  0.00    +0.000 OA
ATOM      4  N   UNL     1       2.209   5.923  18.073  0.00  0.00    +0.000 N 
ATOM      5  H   UNL     1       1.679   7.974  16.912  0.00  0.00    +0.000 HD
ATOM      6  H   UNL     1       2.519   5.886  17.112  0.00  0.00    +0.000 HD
ENDROOT
BRANCH   4   7
ATOM      7  C   UNL     1       2.316   4.677  18.852  0.00  0.00    +0.000 C 
ATOM      8  C   UNL     1       1.448   4.779  20.122  0.00  0.00    +0.000 C 
ATOM      9  C   UNL     1       1.172   3.334  20.532  0.00  0.00    +0.000 C 
ATOM     10  C   UNL     1       1.286   2.504  19.254  0.00  0.00    +0.000 C 
ATOM     11  C   UNL     1       1.648   3.486  18.141  0.00  0.00    +0.000 C 
BRANCH   7  12
ATOM     12  C   UNL     1       3.793   4.341  19.210  0.00  0.00    +0.000 C 
BRANCH  12  13
ATOM     13  O   UNL     1       4.467   3.706  18.124  0.00  0.00    +0.000 OA
ATOM     14  H   UNL     1       4.624   2.790  18.412  0.00  0.00    +0.000 HD
ENDBRANCH  12  13
ENDBRANCH   7  12
ENDBRANCH   4   7
BRANCH   1  15
ATOM     15  C   UNL     1       2.275   9.524  18.206  0.00  0.00    +0.000 C 
BRANCH  15  20
ATOM     16  C   UNL     1      -1.459  10.162  17.924  0.00  0.00    +0.000 A 
ATOM     17  C   UNL     1      -1.699  10.936  19.056  0.00  0.00    +0.000 A 
ATOM     18  C   UNL     1      -0.647  11.287  19.905  0.00  0.00    +0.000 A 
ATOM     19  C   UNL     1       0.650  10.854  19.624  0.00  0.00    +0.000 A 
ATOM     20  C   UNL     1       0.905  10.079  18.484  0.00  0.00    +0.000 A 
ATOM     21  C   UNL     1      -0.155   9.779  17.613  0.00  0.00    +0.000 A 
BRANCH  16  22
ATOM     22  O   UNL     1      -2.550   9.847  17.160  0.00  0.00    +0.000 OA
BRANCH  22  24
ATOM     23  C   UNL     1      -2.989  10.146  14.826  0.00  0.00    +0.000 C 
ATOM     24  C   UNL     1      -2.953  10.827  16.190  0.00  0.00    +0.000 C 
ATOM     25  C   UNL     1      -4.335  11.347  16.569  0.00  0.00    +0.000 C 
ENDBRANCH  22  24
ENDBRANCH  16  22
ENDBRANCH  15  20
ENDBRANCH   1  15
TORSDOF 7
ENDMDL
MODEL 9
REMARK VINA RESULT:      -6.6      1.855      2.428
REMARK  Name = 
REMARK  9 active torsions:
REMARK  status: ('A' for Active; 'I' for Inactive)
REMARK    1  A    between atoms: C_1  and  C_2
REMARK    2  A    between atoms: C_2  and  C_3
REMARK    3  A    between atoms: C_2  and  O_4
REMARK    4  A    between atoms: O_4  and  C_5
REMARK    5  A    between atoms: C_9  and  C_10
REMARK    6  A    between atoms: C_10  and  N_11
REMARK    7  A    between atoms: N_14  and  C_15
REMARK    8  A    between atoms: C_15  and  C_16
REMARK    9  A    between atoms: C_16  and  O_17
REMARK                            x       y       z     vdW  Elec       q    Type
REMARK                         _______ _______ _______ _____ _____    ______ ____
ROOT
ATOM      1  N   UNL     1       2.694   7.923  18.568  0.00  0.00    +0.000 N 
ATOM      2  C   UNL     1       2.030   9.107  18.368  0.00  0.00    +0.000 C 
ATOM      3  O   UNL     1       2.158   9.795  17.369  0.00  0.00    +0.000 OA
ATOM      4  N   UNL     1       1.202   9.411  19.414  0.00  0.00    +0.000 N 
ATOM      5  H   UNL     1       2.207   7.234  19.122  0.00  0.00    +0.000 HD
ATOM      6  H   UNL     1       1.503   9.030  20.299  0.00  0.00    +0.000 HD
ENDROOT
BRANCH   4   7
ATOM      7  C   UNL     1       0.419  10.658  19.463  0.00  0.00    +0.000 C 
ATOM      8  C   UNL     1      -0.644  10.652  18.347  0.00  0.00    +0.000 C 
ATOM      9  C   UNL     1      -1.714  11.638  18.810  0.00  0.00    +0.000 C 
ATOM     10  C   UNL     1      -1.615  11.682  20.334  0.00  0.00    +0.000 C 
ATOM     11  C   UNL     1      -0.476  10.737  20.713  0.00  0.00    +0.000 C 
BRANCH   7  12
ATOM     12  C   UNL     1       1.328  11.918  19.361  0.00  0.00    +0.000 C 
BRANCH  12  13
ATOM     13  O   UNL     1       1.343  12.451  18.037  0.00  0.00    +0.000 OA
ATOM     14  H   UNL     1       2.246  12.785  17.898  0.00  0.00    +0.000 HD
ENDBRANCH  12  13
ENDBRANCH   7  12
ENDBRANCH   4   7
BRANCH   1  15
ATOM     15  C   UNL     1       3.530   7.437  17.497  0.00  0.00    +0.000 C 
BRANCH  15  20
ATOM     16  C   UNL     1       3.489   3.845  18.731  0.00  0.00    +0.000 A 
ATOM     17  C   UNL     1       4.223   3.199  17.740  0.00  0.00    +0.000 A 
ATOM     18  C   UNL     1       4.767   3.926  16.679  0.00  0.00    +0.000 A 
ATOM     19  C   UNL     1       4.568   5.306  16.604  0.00  0.00    +0.000 A 
ATOM     20  C   UNL     1       3.836   5.969  17.599  0.00  0.00    +0.000 A 
ATOM     21  C   UNL     1       3.341   5.231  18.686  0.00  0.00    +0.000 A 
BRANCH  16  22
ATOM     22  O   UNL     1       2.976   3.054  19.722  0.00  0.00    +0.000 OA
BRANCH  22  24
ATOM     23  C   UNL     1       0.757   2.450  19.056  0.00  0.00    +0.000 C 
ATOM     24  C   UNL     1       1.590   3.257  20.046  0.00  0.00    +0.000 C 
ATOM     25  C   UNL     1       1.348   2.776  21.472  0.00  0.00    +0.000 C 
ENDBRANCH  22  24
ENDBRANCH  16  22
ENDBRANCH  15  20
ENDBRANCH   1  15
TORSDOF 7
ENDMDL
