MODEL 1
REMARK VINA RESULT:      -7.2      0.000      0.000
REMARK  Name = 
REMARK  10 active torsions:
REMARK  status: ('A' for Active; 'I' for Inactive)
REMARK    1  A    between atoms: C_1  and  O_2
REMARK    2  A    between atoms: O_2  and  C_3
REMARK    3  A    between atoms: C_5  and  C_6
REMARK    4  A    between atoms: C_6  and  N_7
REMARK    5  A    between atoms: N_7  and  C_8
REMARK    6  A    between atoms: C_8  and  C_9
REMARK    7  A    between atoms: C_16  and  O_17
REMARK    8  A    between atoms: O_17  and  C_18
REMARK    9  A    between atoms: C_18  and  C_19
REMARK   10  A    between atoms: C_22  and  C_23
REMARK                            x       y       z     vdW  Elec       q    Type
REMARK                         _______ _______ _______ _____ _____    ______ ____
ROOT
ATOM      1  C   UNL     1       1.935   4.924  19.923  0.00  0.00    +0.000 A 
ATOM      2  C   UNL     1       2.456   4.192  18.844  0.00  0.00    +0.000 A 
ATOM      3  C   UNL     1       3.219   4.816  17.856  0.00  0.00    +0.000 A 
ATOM      4  C   UNL     1       3.349   6.206  17.879  0.00  0.00    +0.000 A 
ATOM      5  C   UNL     1       2.753   6.946  18.884  0.00  0.00    +0.000 A 
ATOM      6  C   UNL     1       2.012   6.329  19.904  0.00  0.00    +0.000 A 
ENDROOT
BRANCH   1   8
ATOM      7  C   UNL     1       2.226   3.311  21.625  0.00  0.00    +0.000 C 
ATOM      8  O   UNL     1       1.375   4.282  21.003  0.00  0.00    +0.000 OA
ENDBRANCH   1   8
BRANCH   3   9
ATOM      9  C   UNL     1       3.995   4.005  16.848  0.00  0.00    +0.000 C 
BRANCH   9  10
ATOM     10  N   UNL     1       5.283   3.636  17.429  0.00  0.00    +0.000 NA
ATOM     11  H   UNL     1       5.332   2.621  17.522  0.00  0.00    +0.000 HD
BRANCH  10  12
ATOM     12  C   UNL     1       6.400   4.098  16.619  0.00  0.00    +0.000 C 
BRANCH  12  13
ATOM     13  C   UNL     1       6.959   5.362  17.207  0.00  0.00    +0.000 A 
ATOM     14  C   UNL     1       6.939   6.637  16.673  0.00  0.00    +0.000 A 
ATOM     15  C   UNL     1       7.568   7.594  17.521  0.00  0.00    +0.000 A 
ATOM     16  C   UNL     1       8.050   7.018  18.674  0.00  0.00    +0.000 A 
ATOM     17  S   UNL     1       7.746   5.337  18.730  0.00  0.00    +0.000 S 
ENDBRANCH  12  13
ENDBRANCH  10  12
ENDBRANCH   9  10
ENDBRANCH   3   9
BRANCH   6  18
ATOM     18  O   UNL     1       1.369   7.061  20.883  0.00  0.00    +0.000 OA
BRANCH  18  19
ATOM     19  C   UNL     1       1.655   8.468  20.811  0.00  0.00    +0.000 C 
BRANCH  19  20
ATOM     20  C   UNL     1       0.578   9.374  21.354  0.00  0.00    +0.000 A 
ATOM     21  C   UNL     1       0.262   9.302  22.719  0.00  0.00    +0.000 A 
ATOM     22  C   UNL     1      -0.663  10.187  23.277  0.00  0.00    +0.000 A 
ATOM     23  C   UNL     1      -1.269  11.157  22.487  0.00  0.00    +0.000 A 
ATOM     24  C   UNL     1      -2.262  12.117  23.069  0.00  0.00    +0.000 C 
ATOM     25  C   UNL     1      -0.939  11.240  21.127  0.00  0.00    +0.000 A 
ATOM     26  C   UNL     1      -0.015  10.357  20.566  0.00  0.00    +0.000 A 
ENDBRANCH  19  20
ENDBRANCH  18  19
ENDBRANCH   6  18
TORSDOF 8
ENDMDL
MODEL 2
REMARK VINA RESULT:      -7.2      0.797      1.385
REMARK  Name = 
REMARK  10 active torsions:
REMARK  status: ('A' for Active; 'I' for Inactive)
REMARK    1  A    between atoms: C_1  and  O_2
REMARK    2  A    between atoms: O_2  and  C_3
REMARK    3  A    between atoms: C_5  and  C_6
REMARK    4  A    between atoms: C_6  and  N_7
REMARK    5  A    between atoms: N_7  and  C_8
REMARK    6  A    between atoms: C_8  and  C_9
REMARK    7  A    between atoms: C_16  and  O_17
REMARK    8  A    between atoms: O_17  and  C_18
REMARK    9  A    between atoms: C_18  and  C_19
REMARK   10  A    between atoms: C_22  and  C_23
REMARK                            x       y       z     vdW  Elec       q    Type
REMARK                         _______ _______ _______ _____ _____    ______ ____
ROOT
ATOM      1  C   UNL     1       2.096   4.944  19.929  0.00  0.00    +0.000 A 
ATOM      2  C   UNL     1       2.630   4.115  18.928  0.00  0.00    +0.000 A 
ATOM      3  C   UNL     1       3.448   4.638  17.926  0.00  0.00    +0.000 A 
ATOM      4  C   UNL     1       3.623   6.021  17.848  0.00  0.00    +0.000 A 
ATOM      5  C   UNL     1       3.016   6.854  18.770  0.00  0.00    +0.000 A 
ATOM      6  C   UNL     1       2.219   6.340  19.806  0.00  0.00    +0.000 A 
ENDROOT
BRANCH   1   8
ATOM      7  C   UNL     1       1.459   2.971  21.063  0.00  0.00    +0.000 C 
ATOM      8  O   UNL     1       1.477   4.404  21.032  0.00  0.00    +0.000 OA
ENDBRANCH   1   8
BRANCH   3   9
ATOM      9  C   UNL     1       4.232   3.729  17.012  0.00  0.00    +0.000 C 
BRANCH   9  10
ATOM     10  N   UNL     1       4.885   4.538  15.987  0.00  0.00    +0.000 NA
ATOM     11  H   UNL     1       4.699   5.524  16.168  0.00  0.00    +0.000 HD
BRANCH  10  12
ATOM     12  C   UNL     1       6.322   4.319  15.952  0.00  0.00    +0.000 C 
BRANCH  12  13
ATOM     13  C   UNL     1       6.977   5.104  17.053  0.00  0.00    +0.000 A 
ATOM     14  C   UNL     1       7.559   4.630  18.214  0.00  0.00    +0.000 A 
ATOM     15  C   UNL     1       8.083   5.675  19.028  0.00  0.00    +0.000 A 
ATOM     16  C   UNL     1       7.883   6.915  18.463  0.00  0.00    +0.000 A 
ATOM     17  S   UNL     1       7.068   6.814  16.963  0.00  0.00    +0.000 S 
ENDBRANCH  12  13
ENDBRANCH  10  12
ENDBRANCH   9  10
ENDBRANCH   3   9
BRANCH   6  18
ATOM     18  O   UNL     1       1.566   7.165  20.701  0.00  0.00    +0.000 OA
BRANCH  18  19
ATOM     19  C   UNL     1       1.531   8.538  20.278  0.00  0.00    +0.000 C 
BRANCH  19  20
ATOM     20  C   UNL     1       0.648   9.443  21.099  0.00  0.00    +0.000 A 
ATOM     21  C   UNL     1       0.023  10.529  20.467  0.00  0.00    +0.000 A 
ATOM     22  C   UNL     1      -0.874  11.335  21.172  0.00  0.00    +0.000 A 
ATOM     23  C   UNL     1      -1.168  11.060  22.502  0.00  0.00    +0.000 A 
ATOM     24  C   UNL     1      -2.130  11.912  23.273  0.00  0.00    +0.000 C 
ATOM     25  C   UNL     1      -0.557   9.963  23.127  0.00  0.00    +0.000 A 
ATOM     26  C   UNL     1       0.340   9.156  22.427  0.00  0.00    +0.000 A 
ENDBRANCH  19  20
ENDBRANCH  18  19
ENDBRANCH   6  18
TORSDOF 8
ENDMDL
MODEL 3
REMARK VINA RESULT:      -7.1      2.901      7.669
REMARK  Name = 
REMARK  10 active torsions:
REMARK  status: ('A' for Active; 'I' for Inactive)
REMARK    1  A    between atoms: C_1  and  O_2
REMARK    2  A    between atoms: O_2  and  C_3
REMARK    3  A    between atoms: C_5  and  C_6
REMARK    4  A    between atoms: C_6  and  N_7
REMARK    5  A    between atoms: N_7  and  C_8
REMARK    6  A    between atoms: C_8  and  C_9
REMARK    7  A    between atoms: C_16  and  O_17
REMARK    8  A    between atoms: O_17  and  C_18
REMARK    9  A    between atoms: C_18  and  C_19
REMARK   10  A    between atoms: C_22  and  C_23
REMARK                            x       y       z     vdW  Elec       q    Type
REMARK                         _______ _______ _______ _____ _____    ______ ____
ROOT
ATOM      1  C   UNL     1       4.017   3.836  19.327  0.00  0.00    +0.000 A 
ATOM      2  C   UNL     1       3.311   4.708  20.171  0.00  0.00    +0.000 A 
ATOM      3  C   UNL     1       2.140   5.332  19.739  0.00  0.00    +0.000 A 
ATOM      4  C   UNL     1       1.747   5.186  18.407  0.00  0.00    +0.000 A 
ATOM      5  C   UNL     1       2.495   4.409  17.540  0.00  0.00    +0.000 A 
ATOM      6  C   UNL     1       3.656   3.746  17.970  0.00  0.00    +0.000 A 
ENDROOT
BRANCH   1   8
ATOM      7  C   UNL     1       4.611   1.847  20.457  0.00  0.00    +0.000 C 
ATOM      8  O   UNL     1       5.038   3.057  19.818  0.00  0.00    +0.000 OA
ENDBRANCH   1   8
BRANCH   3   9
ATOM      9  C   UNL     1       1.240   6.053  20.712  0.00  0.00    +0.000 C 
BRANCH   9  10
ATOM     10  N   UNL     1       1.880   7.305  21.108  0.00  0.00    +0.000 NA
ATOM     11  H   UNL     1       2.887   7.228  20.964  0.00  0.00    +0.000 HD
BRANCH  10  12
ATOM     12  C   UNL     1       1.373   8.440  20.351  0.00  0.00    +0.000 C 
BRANCH  12  13
ATOM     13  C   UNL     1       0.542   9.312  21.249  0.00  0.00    +0.000 A 
ATOM     14  C   UNL     1       0.226   9.115  22.581  0.00  0.00    +0.000 A 
ATOM     15  C   UNL     1      -0.587  10.160  23.109  0.00  0.00    +0.000 A 
ATOM     16  C   UNL     1      -0.866  11.120  22.162  0.00  0.00    +0.000 A 
ATOM     17  S   UNL     1      -0.154  10.760  20.651  0.00  0.00    +0.000 S 
ENDBRANCH  12  13
ENDBRANCH  10  12
ENDBRANCH   9  10
ENDBRANCH   3   9
BRANCH   6  18
ATOM     18  O   UNL     1       4.439   3.011  17.102  0.00  0.00    +0.000 OA
BRANCH  18  19
ATOM     19  C   UNL     1       5.069   3.817  16.093  0.00  0.00    +0.000 C 
BRANCH  19  20
ATOM     20  C   UNL     1       5.953   4.924  16.611  0.00  0.00    +0.000 A 
ATOM     21  C   UNL     1       5.578   6.254  16.370  0.00  0.00    +0.000 A 
ATOM     22  C   UNL     1       6.319   7.306  16.912  0.00  0.00    +0.000 A 
ATOM     23  C   UNL     1       7.427   7.045  17.710  0.00  0.00    +0.000 A 
ATOM     24  C   UNL     1       8.234   8.161  18.302  0.00  0.00    +0.000 C 
ATOM     25  C   UNL     1       7.790   5.715  17.966  0.00  0.00    +0.000 A 
ATOM     26  C   UNL     1       7.052   4.662  17.425  0.00  0.00    +0.000 A 
ENDBRANCH  19  20
ENDBRANCH  18  19
ENDBRANCH   6  18
TORSDOF 8
ENDMDL
MODEL 4
REMARK VINA RESULT:      -7.1      0.861      1.048
REMARK  Name = 
REMARK  10 active torsions:
REMARK  status: ('A' for Active; 'I' for Inactive)
REMARK    1  A    between atoms: C_1  and  O_2
REMARK    2  A    between atoms: O_2  and  C_3
REMARK    3  A    between atoms: C_5  and  C_6
REMARK    4  A    between atoms: C_6  and  N_7
REMARK    5  A    between atoms: N_7  and  C_8
REMARK    6  A    between atoms: C_8  and  C_9
REMARK    7  A    between atoms: C_16  and  O_17
REMARK    8  A    between atoms: O_17  and  C_18
REMARK    9  A    between atoms: C_18  and  C_19
REMARK   10  A    between atoms: C_22  and  C_23
REMARK                            x       y       z     vdW  Elec       q    Type
REMARK                         _______ _______ _______ _____ _____    ______ ____
ROOT
ATOM      1  C   UNL     1       2.490   4.625  20.225  0.00  0.00    +0.000 A 
ATOM      2  C   UNL     1       3.097   3.804  19.260  0.00  0.00    +0.000 A 
ATOM      3  C   UNL     1       3.558   4.337  18.055  0.00  0.00    +0.000 A 
ATOM      4  C   UNL     1       3.288   5.674  17.759  0.00  0.00    +0.000 A 
ATOM      5  C   UNL     1       2.600   6.464  18.662  0.00  0.00    +0.000 A 
ATOM      6  C   UNL     1       2.161   5.952  19.894  0.00  0.00    +0.000 A 
ENDROOT
BRANCH   1   8
ATOM      7  C   UNL     1       1.419   2.975  21.534  0.00  0.00    +0.000 C 
ATOM      8  O   UNL     1       2.237   4.151  21.491  0.00  0.00    +0.000 OA
ENDBRANCH   1   8
BRANCH   3   9
ATOM      9  C   UNL     1       4.438   3.526  17.136  0.00  0.00    +0.000 C 
BRANCH   9  10
ATOM     10  N   UNL     1       4.973   4.404  16.099  0.00  0.00    +0.000 NA
ATOM     11  H   UNL     1       4.703   5.366  16.301  0.00  0.00    +0.000 HD
BRANCH  10  12
ATOM     12  C   UNL     1       6.423   4.322  16.009  0.00  0.00    +0.000 C 
BRANCH  12  13
ATOM     13  C   UNL     1       7.042   5.146  17.102  0.00  0.00    +0.000 A 
ATOM     14  C   UNL     1       7.600   4.712  18.290  0.00  0.00    +0.000 A 
ATOM     15  C   UNL     1       8.093   5.787  19.085  0.00  0.00    +0.000 A 
ATOM     16  C   UNL     1       7.893   7.007  18.480  0.00  0.00    +0.000 A 
ATOM     17  S   UNL     1       7.116   6.853  16.965  0.00  0.00    +0.000 S 
ENDBRANCH  12  13
ENDBRANCH  10  12
ENDBRANCH   9  10
ENDBRANCH   3   9
BRANCH   6  18
ATOM     18  O   UNL     1       1.428   6.716  20.782  0.00  0.00    +0.000 OA
BRANCH  18  19
ATOM     19  C   UNL     1       1.803   8.103  20.771  0.00  0.00    +0.000 C 
BRANCH  19  20
ATOM     20  C   UNL     1       0.763   9.056  21.305  0.00  0.00    +0.000 A 
ATOM     21  C   UNL     1       0.543   9.105  22.690  0.00  0.00    +0.000 A 
ATOM     22  C   UNL     1      -0.344  10.039  23.231  0.00  0.00    +0.000 A 
ATOM     23  C   UNL     1      -1.007  10.937  22.403  0.00  0.00    +0.000 A 
ATOM     24  C   UNL     1      -1.961  11.948  22.965  0.00  0.00    +0.000 C 
ATOM     25  C   UNL     1      -0.772  10.899  21.021  0.00  0.00    +0.000 A 
ATOM     26  C   UNL     1       0.113   9.968  20.477  0.00  0.00    +0.000 A 
ENDBRANCH  19  20
ENDBRANCH  18  19
ENDBRANCH   6  18
TORSDOF 8
ENDMDL
MODEL 5
REMARK VINA RESULT:      -7.0      4.389      7.716
REMARK  Name = 
REMARK  10 active torsions:
REMARK  status: ('A' for Active; 'I' for Inactive)
REMARK    1  A    between atoms: C_1  and  O_2
REMARK    2  A    between atoms: O_2  and  C_3
REMARK    3  A    between atoms: C_5  and  C_6
REMARK    4  A    between atoms: C_6  and  N_7
REMARK    5  A    between atoms: N_7  and  C_8
REMARK    6  A    between atoms: C_8  and  C_9
REMARK    7  A    between atoms: C_16  and  O_17
REMARK    8  A    between atoms: O_17  and  C_18
REMARK    9  A    between atoms: C_18  and  C_19
REMARK   10  A    between atoms: C_22  and  C_23
REMARK                            x       y       z     vdW  Elec       q    Type
REMARK                         _______ _______ _______ _____ _____    ______ ____
ROOT
ATOM      1  C   UNL     1       7.039   5.782  19.003  0.00  0.00    +0.000 A 
ATOM      2  C   UNL     1       6.041   4.919  18.522  0.00  0.00    +0.000 A 
ATOM      3  C   UNL     1       5.722   4.880  17.163  0.00  0.00    +0.000 A 
ATOM      4  C   UNL     1       6.312   5.808  16.303  0.00  0.00    +0.000 A 
ATOM      5  C   UNL     1       7.222   6.731  16.789  0.00  0.00    +0.000 A 
ATOM      6  C   UNL     1       7.580   6.758  18.146  0.00  0.00    +0.000 A 
ENDROOT
BRANCH   1   8
ATOM      7  C   UNL     1       8.765   4.993  20.412  0.00  0.00    +0.000 C 
ATOM      8  O   UNL     1       7.505   5.667  20.292  0.00  0.00    +0.000 OA
ENDBRANCH   1   8
BRANCH   3   9
ATOM      9  C   UNL     1       4.850   3.784  16.603  0.00  0.00    +0.000 C 
BRANCH   9  10
ATOM     10  N   UNL     1       4.441   2.902  17.692  0.00  0.00    +0.000 NA
ATOM     11  H   UNL     1       4.633   3.358  18.584  0.00  0.00    +0.000 HD
BRANCH  10  12
ATOM     12  C   UNL     1       3.027   2.566  17.621  0.00  0.00    +0.000 C 
BRANCH  12  13
ATOM     13  C   UNL     1       2.328   3.072  18.850  0.00  0.00    +0.000 A 
ATOM     14  C   UNL     1       1.750   2.339  19.871  0.00  0.00    +0.000 A 
ATOM     15  C   UNL     1       1.177   3.165  20.880  0.00  0.00    +0.000 A 
ATOM     16  C   UNL     1       1.333   4.503  20.597  0.00  0.00    +0.000 A 
ATOM     17  S   UNL     1       2.164   4.756  19.124  0.00  0.00    +0.000 S 
ENDBRANCH  12  13
ENDBRANCH  10  12
ENDBRANCH   9  10
ENDBRANCH   3   9
BRANCH   6  18
ATOM     18  O   UNL     1       8.447   7.707  18.652  0.00  0.00    +0.000 OA
BRANCH  18  19
ATOM     19  C   UNL     1       8.184   9.030  18.155  0.00  0.00    +0.000 C 
BRANCH  19  20
ATOM     20  C   UNL     1       9.116  10.104  18.657  0.00  0.00    +0.000 A 
ATOM     21  C   UNL     1       9.793  10.900  17.721  0.00  0.00    +0.000 A 
ATOM     22  C   UNL     1      10.592  11.964  18.145  0.00  0.00    +0.000 A 
ATOM     23  C   UNL     1      10.712  12.253  19.499  0.00  0.00    +0.000 A 
ATOM     24  C   UNL     1      11.563  13.392  19.974  0.00  0.00    +0.000 C 
ATOM     25  C   UNL     1      10.021  11.468  20.433  0.00  0.00    +0.000 A 
ATOM     26  C   UNL     1       9.222  10.404  20.013  0.00  0.00    +0.000 A 
ENDBRANCH  19  20
ENDBRANCH  18  19
ENDBRANCH   6  18
TORSDOF 8
ENDMDL
MODEL 6
REMARK VINA RESULT:      -6.9      2.957      4.833
REMARK  Name = 
REMARK  10 active torsions:
REMARK  status: ('A' for Active; 'I' for Inactive)
REMARK    1  A    between atoms: C_1  and  O_2
REMARK    2  A    between atoms: O_2  and  C_3
REMARK    3  A    between atoms: C_5  and  C_6
REMARK    4  A    between atoms: C_6  and  N_7
REMARK    5  A    between atoms: N_7  and  C_8
REMARK    6  A    between atoms: C_8  and  C_9
REMARK    7  A    between atoms: C_16  and  O_17
REMARK    8  A    between atoms: O_17  and  C_18
REMARK    9  A    between atoms: C_18  and  C_19
REMARK   10  A    between atoms: C_22  and  C_23
REMARK                            x       y       z     vdW  Elec       q    Type
REMARK                         _______ _______ _______ _____ _____    ______ ____
ROOT
ATOM      1  C   UNL     1       1.444   8.216  20.158  0.00  0.00    +0.000 A 
ATOM      2  C   UNL     1       2.183   7.121  19.682  0.00  0.00    +0.000 A 
ATOM      3  C   UNL     1       2.873   7.194  18.471  0.00  0.00    +0.000 A 
ATOM      4  C   UNL     1       2.711   8.325  17.668  0.00  0.00    +0.000 A 
ATOM      5  C   UNL     1       1.902   9.367  18.084  0.00  0.00    +0.000 A 
ATOM      6  C   UNL     1       1.230   9.323  19.316  0.00  0.00    +0.000 A 
ENDROOT
BRANCH   1   8
ATOM      7  C   UNL     1       1.638   9.105  22.339  0.00  0.00    +0.000 C 
ATOM      8  O   UNL     1       0.950   8.225  21.441  0.00  0.00    +0.000 OA
ENDBRANCH   1   8
BRANCH   3   9
ATOM      9  C   UNL     1       3.873   6.134  18.082  0.00  0.00    +0.000 C 
BRANCH   9  10
ATOM     10  N   UNL     1       4.400   5.514  19.295  0.00  0.00    +0.000 NA
ATOM     11  H   UNL     1       3.814   5.776  20.088  0.00  0.00    +0.000 HD
BRANCH  10  12
ATOM     12  C   UNL     1       4.447   4.064  19.191  0.00  0.00    +0.000 C 
BRANCH  12  13
ATOM     13  C   UNL     1       3.054   3.508  19.289  0.00  0.00    +0.000 A 
ATOM     14  C   UNL     1       2.185   3.559  20.363  0.00  0.00    +0.000 A 
ATOM     15  C   UNL     1       0.940   2.923  20.088  0.00  0.00    +0.000 A 
ATOM     16  C   UNL     1       0.900   2.403  18.814  0.00  0.00    +0.000 A 
ATOM     17  S   UNL     1       2.354   2.683  17.959  0.00  0.00    +0.000 S 
ENDBRANCH  12  13
ENDBRANCH  10  12
ENDBRANCH   9  10
ENDBRANCH   3   9
BRANCH   6  18
ATOM     18  O   UNL     1       0.379  10.333  19.719  0.00  0.00    +0.000 OA
BRANCH  18  19
ATOM     19  C   UNL     1      -0.174  11.074  18.618  0.00  0.00    +0.000 C 
BRANCH  19  20
ATOM     20  C   UNL     1      -1.675  11.005  18.484  0.00  0.00    +0.000 A 
ATOM     21  C   UNL     1      -2.452  12.002  19.091  0.00  0.00    +0.000 A 
ATOM     22  C   UNL     1      -3.837  12.025  18.912  0.00  0.00    +0.000 A 
ATOM     23  C   UNL     1      -4.457  11.068  18.118  0.00  0.00    +0.000 A 
ATOM     24  C   UNL     1      -5.941  11.078  17.912  0.00  0.00    +0.000 C 
ATOM     25  C   UNL     1      -3.677  10.082  17.496  0.00  0.00    +0.000 A 
ATOM     26  C   UNL     1      -2.293  10.056  17.673  0.00  0.00    +0.000 A 
ENDBRANCH  19  20
ENDBRANCH  18  19
ENDBRANCH   6  18
TORSDOF 8
ENDMDL
MODEL 7
REMARK VINA RESULT:      -6.9      2.907      4.785
REMARK  Name = 
REMARK  10 active torsions:
REMARK  status: ('A' for Active; 'I' for Inactive)
REMARK    1  A    between atoms: C_1  and  O_2
REMARK    2  A    between atoms: O_2  and  C_3
REMARK    3  A    between atoms: C_5  and  C_6
REMARK    4  A    between atoms: C_6  and  N_7
REMARK    5  A    between atoms: N_7  and  C_8
REMARK    6  A    between atoms: C_8  and  C_9
REMARK    7  A    between atoms: C_16  and  O_17
REMARK    8  A    between atoms: O_17  and  C_18
REMARK    9  A    between atoms: C_18  and  C_19
REMARK   10  A    between atoms: C_22  and  C_23
REMARK                            x       y       z     vdW  Elec       q    Type
REMARK                         _______ _______ _______ _____ _____    ______ ____
ROOT
ATOM      1  C   UNL     1       1.594   8.142  20.326  0.00  0.00    +0.000 A 
ATOM      2  C   UNL     1       2.230   6.940  19.974  0.00  0.00    +0.000 A 
ATOM      3  C   UNL     1       2.851   6.796  18.733  0.00  0.00    +0.000 A 
ATOM      4  C   UNL     1       2.718   7.814  17.787  0.00  0.00    +0.000 A 
ATOM      5  C   UNL     1       2.005   8.960  18.090  0.00  0.00    +0.000 A 
ATOM      6  C   UNL     1       1.404   9.135  19.348  0.00  0.00    +0.000 A 
ENDROOT
BRANCH   1   8
ATOM      7  C   UNL     1      -0.245   8.335  21.798  0.00  0.00    +0.000 C 
ATOM      8  O   UNL     1       1.176   8.363  21.618  0.00  0.00    +0.000 OA
ENDBRANCH   1   8
BRANCH   3   9
ATOM      9  C   UNL     1       3.754   5.621  18.450  0.00  0.00    +0.000 C 
BRANCH   9  10
ATOM     10  N   UNL     1       3.091   4.732  17.500  0.00  0.00    +0.000 NA
ATOM     11  H   UNL     1       3.478   4.886  16.569  0.00  0.00    +0.000 HD
BRANCH  10  12
ATOM     12  C   UNL     1       3.250   3.332  17.860  0.00  0.00    +0.000 C 
BRANCH  12  13
ATOM     13  C   UNL     1       2.724   3.107  19.249  0.00  0.00    +0.000 A 
ATOM     14  C   UNL     1       3.433   2.778  20.390  0.00  0.00    +0.000 A 
ATOM     15  C   UNL     1       2.594   2.647  21.534  0.00  0.00    +0.000 A 
ATOM     16  C   UNL     1       1.271   2.877  21.230  0.00  0.00    +0.000 A 
ATOM     17  S   UNL     1       1.047   3.248  19.576  0.00  0.00    +0.000 S 
ENDBRANCH  12  13
ENDBRANCH  10  12
ENDBRANCH   9  10
ENDBRANCH   3   9
BRANCH   6  18
ATOM     18  O   UNL     1       0.647  10.251  19.645  0.00  0.00    +0.000 OA
BRANCH  18  19
ATOM     19  C   UNL     1       0.225  10.971  18.474  0.00  0.00    +0.000 C 
BRANCH  19  20
ATOM     20  C   UNL     1      -1.267  11.054  18.271  0.00  0.00    +0.000 A 
ATOM     21  C   UNL     1      -1.882  10.132  17.411  0.00  0.00    +0.000 A 
ATOM     22  C   UNL     1      -3.271  10.117  17.269  0.00  0.00    +0.000 A 
ATOM     23  C   UNL     1      -4.059  11.007  17.990  0.00  0.00    +0.000 A 
ATOM     24  C   UNL     1      -5.552  11.005  17.852  0.00  0.00    +0.000 C 
ATOM     25  C   UNL     1      -3.444  11.916  18.863  0.00  0.00    +0.000 A 
ATOM     26  C   UNL     1      -2.057  11.934  19.008  0.00  0.00    +0.000 A 
ENDBRANCH  19  20
ENDBRANCH  18  19
ENDBRANCH   6  18
TORSDOF 8
ENDMDL
MODEL 8
REMARK VINA RESULT:      -6.8      3.062      7.603
REMARK  Name = 
REMARK  10 active torsions:
REMARK  status: ('A' for Active; 'I' for Inactive)
REMARK    1  A    between atoms: C_1  and  O_2
REMARK    2  A    between atoms: O_2  and  C_3
REMARK    3  A    between atoms: C_5  and  C_6
REMARK    4  A    between atoms: C_6  and  N_7
REMARK    5  A    between atoms: N_7  and  C_8
REMARK    6  A    between atoms: C_8  and  C_9
REMARK    7  A    between atoms: C_16  and  O_17
REMARK    8  A    between atoms: O_17  and  C_18
REMARK    9  A    between atoms: C_18  and  C_19
REMARK   10  A    between atoms: C_22  and  C_23
REMARK                            x       y       z     vdW  Elec       q    Type
REMARK                         _______ _______ _______ _____ _____    ______ ____
ROOT
ATOM      1  C   UNL     1       2.006   4.362  19.657  0.00  0.00    +0.000 A 
ATOM      2  C   UNL     1       1.848   5.411  20.578  0.00  0.00    +0.000 A 
ATOM      3  C   UNL     1       1.886   6.742  20.161  0.00  0.00    +0.000 A 
ATOM      4  C   UNL     1       2.219   7.027  18.834  0.00  0.00    +0.000 A 
ATOM      5  C   UNL     1       2.477   6.000  17.944  0.00  0.00    +0.000 A 
ATOM      6  C   UNL     1       2.407   4.654  18.341  0.00  0.00    +0.000 A 
ENDROOT
BRANCH   1   8
ATOM      7  C   UNL     1       1.545   2.868  21.429  0.00  0.00    +0.000 C 
ATOM      8  O   UNL     1       1.752   3.062  20.024  0.00  0.00    +0.000 OA
ENDBRANCH   1   8
BRANCH   3   9
ATOM      9  C   UNL     1       1.459   7.857  21.083  0.00  0.00    +0.000 C 
BRANCH   9  10
ATOM     10  N   UNL     1       1.099   9.023  20.281  0.00  0.00    +0.000 NA
ATOM     11  H   UNL     1       1.037   8.750  19.300  0.00  0.00    +0.000 HD
BRANCH  10  12
ATOM     12  C   UNL     1      -0.169   9.602  20.699  0.00  0.00    +0.000 C 
BRANCH  12  13
ATOM     13  C   UNL     1      -0.643  10.577  19.659  0.00  0.00    +0.000 A 
ATOM     14  C   UNL     1      -1.458  10.337  18.568  0.00  0.00    +0.000 A 
ATOM     15  C   UNL     1      -1.698  11.511  17.797  0.00  0.00    +0.000 A 
ATOM     16  C   UNL     1      -1.055  12.610  18.323  0.00  0.00    +0.000 A 
ATOM     17  S   UNL     1      -0.171  12.223  19.734  0.00  0.00    +0.000 S 
ENDBRANCH  12  13
ENDBRANCH  10  12
ENDBRANCH   9  10
ENDBRANCH   3   9
BRANCH   6  18
ATOM     18  O   UNL     1       2.713   3.623  17.475  0.00  0.00    +0.000 OA
BRANCH  18  19
ATOM     19  C   UNL     1       4.099   3.243  17.520  0.00  0.00    +0.000 C 
BRANCH  19  20
ATOM     20  C   UNL     1       5.075   4.384  17.669  0.00  0.00    +0.000 A 
ATOM     21  C   UNL     1       5.678   4.595  18.918  0.00  0.00    +0.000 A 
ATOM     22  C   UNL     1       6.655   5.581  19.072  0.00  0.00    +0.000 A 
ATOM     23  C   UNL     1       7.049   6.353  17.986  0.00  0.00    +0.000 A 
ATOM     24  C   UNL     1       8.097   7.415  18.132  0.00  0.00    +0.000 C 
ATOM     25  C   UNL     1       6.458   6.129  16.734  0.00  0.00    +0.000 A 
ATOM     26  C   UNL     1       5.482   5.145  16.576  0.00  0.00    +0.000 A 
ENDBRANCH  19  20
ENDBRANCH  18  19
ENDBRANCH   6  18
TORSDOF 8
ENDMDL
MODEL 9
REMARK VINA RESULT:      -6.7      3.112      7.599
REMARK  Name = 
REMARK  10 active torsions:
REMARK  status: ('A' for Active; 'I' for Inactive)
REMARK    1  A    between atoms: C_1  and  O_2
REMARK    2  A    between atoms: O_2  and  C_3
REMARK    3  A    between atoms: C_5  and  C_6
REMARK    4  A    between atoms: C_6  and  N_7
REMARK    5  A    between atoms: N_7  and  C_8
REMARK    6  A    between atoms: C_8  and  C_9
REMARK    7  A    between atoms: C_16  and  O_17
REMARK    8  A    between atoms: O_17  and  C_18
REMARK    9  A    between atoms: C_18  and  C_19
REMARK   10  A    between atoms: C_22  and  C_23
REMARK                            x       y       z     vdW  Elec       q    Type
REMARK                         _______ _______ _______ _____ _____    ______ ____
ROOT
ATOM      1  C   UNL     1       1.864   4.542  19.803  0.00  0.00    +0.000 A 
ATOM      2  C   UNL     1       1.734   5.612  20.704  0.00  0.00    +0.000 A 
ATOM      3  C   UNL     1       1.817   6.934  20.264  0.00  0.00    +0.000 A 
ATOM      4  C   UNL     1       2.165   7.183  18.935  0.00  0.00    +0.000 A 
ATOM      5  C   UNL     1       2.395   6.133  18.064  0.00  0.00    +0.000 A 
ATOM      6  C   UNL     1       2.281   4.798  18.484  0.00  0.00    +0.000 A 
ENDROOT
BRANCH   1   8
ATOM      7  C   UNL     1       2.075   2.892  21.481  0.00  0.00    +0.000 C 
ATOM      8  O   UNL     1       1.567   3.257  20.191  0.00  0.00    +0.000 OA
ENDBRANCH   1   8
BRANCH   3   9
ATOM      9  C   UNL     1       1.420   8.077  21.164  0.00  0.00    +0.000 C 
BRANCH   9  10
ATOM     10  N   UNL     1       0.640   9.039  20.391  0.00  0.00    +0.000 NA
ATOM     11  H   UNL     1      -0.354   8.858  20.533  0.00  0.00    +0.000 HD
BRANCH  10  12
ATOM     12  C   UNL     1       0.936  10.412  20.770  0.00  0.00    +0.000 C 
BRANCH  12  13
ATOM     13  C   UNL     1       0.243  11.355  19.827  0.00  0.00    +0.000 A 
ATOM     14  C   UNL     1      -0.816  11.092  18.977  0.00  0.00    +0.000 A 
ATOM     15  C   UNL     1      -1.213  12.238  18.230  0.00  0.00    +0.000 A 
ATOM     16  C   UNL     1      -0.443  13.339  18.531  0.00  0.00    +0.000 A 
ATOM     17  S   UNL     1       0.749  12.988  19.706  0.00  0.00    +0.000 S 
ENDBRANCH  12  13
ENDBRANCH  10  12
ENDBRANCH   9  10
ENDBRANCH   3   9
BRANCH   6  18
ATOM     18  O   UNL     1       2.559   3.742  17.638  0.00  0.00    +0.000 OA
BRANCH  18  19
ATOM     19  C   UNL     1       3.906   3.258  17.767  0.00  0.00    +0.000 C 
BRANCH  19  20
ATOM     20  C   UNL     1       4.977   4.320  17.742  0.00  0.00    +0.000 A 
ATOM     21  C   UNL     1       5.224   4.999  16.540  0.00  0.00    +0.000 A 
ATOM     22  C   UNL     1       6.142   6.051  16.499  0.00  0.00    +0.000 A 
ATOM     23  C   UNL     1       6.809   6.445  17.653  0.00  0.00    +0.000 A 
ATOM     24  C   UNL     1       7.795   7.573  17.629  0.00  0.00    +0.000 C 
ATOM     25  C   UNL     1       6.548   5.777  18.859  0.00  0.00    +0.000 A 
ATOM     26  C   UNL     1       5.632   4.726  18.903  0.00  0.00    +0.000 A 
ENDBRANCH  19  20
ENDBRANCH  18  19
ENDBRANCH   6  18
TORSDOF 8
ENDMDL
