MODEL 1
REMARK VINA RESULT:      -7.4      0.000      0.000
REMARK  Name = 
REMARK  6 active torsions:
REMARK  status: ('A' for Active; 'I' for Inactive)
REMARK    1  A    between atoms: C_1  and  O_2
REMARK    2  A    between atoms: O_2  and  C_3
REMARK    3  A    between atoms: C_3  and  C_4
REMARK    4  A    between atoms: N_6  and  C_7
REMARK    5  A    between atoms: N_9  and  S_10
REMARK    6  A    between atoms: S_10  and  C_13
REMARK                            x       y       z     vdW  Elec       q    Type
REMARK                         _______ _______ _______ _____ _____    ______ ____
ROOT
ATOM      1  S   UNL     1       6.065   6.563  16.300  0.00  0.00    +0.000 S 
ATOM      2  O   UNL     1       6.862   7.476  17.090  0.00  0.00    +0.000 OA
ATOM      3  O   UNL     1       5.162   7.042  15.279  0.00  0.00    +0.000 OA
ENDROOT
BRANCH   1   4
ATOM      4  C   UNL     1       5.146   5.539  17.418  0.00  0.00    +0.000 A 
ATOM      5  C   UNL     1       5.579   5.376  18.735  0.00  0.00    +0.000 A 
ATOM      6  C   UNL     1       4.841   4.566  19.600  0.00  0.00    +0.000 A 
ATOM      7  C   UNL     1       3.681   3.926  19.158  0.00  0.00    +0.000 A 
ATOM      8  C   UNL     1       3.228   4.137  17.845  0.00  0.00    +0.000 A 
ATOM      9  C   UNL     1       3.983   4.914  16.963  0.00  0.00    +0.000 A 
ATOM     10  O   UNL     1       2.064   3.634  17.319  0.00  0.00    +0.000 OA
ATOM     11  C   UNL     1       0.984   3.640  18.256  0.00  0.00    +0.000 C 
ATOM     12  C   UNL     1       0.985   2.375  19.096  0.00  0.00    +0.000 C 
ATOM     13  C   UNL     1       2.383   2.005  19.559  0.00  0.00    +0.000 C 
ATOM     14  O   UNL     1       3.064   3.139  20.099  0.00  0.00    +0.000 OA
ENDBRANCH   1   4
BRANCH   1  17
ATOM     15  C   UNL     1       6.297   4.163  14.036  0.00  0.00    +0.000 C 
ATOM     16  C   UNL     1       6.796   3.963  15.491  0.00  0.00    +0.000 C 
ATOM     17  N   UNL     1       7.125   5.436  15.554  0.00  0.00    +0.000 NA
ATOM     18  C   UNL     1       7.248   5.384  14.048  0.00  0.00    +0.000 C 
BRANCH  15  21
ATOM     19  C   UNL     1       5.782   2.821  12.014  0.00  0.00    +0.000 C 
ATOM     20  O   UNL     1       4.737   3.438  11.814  0.00  0.00    +0.000 OA
ATOM     21  N   UNL     1       6.605   3.073  13.094  0.00  0.00    +0.000 N 
ATOM     22  H   UNL     1       7.422   2.479  13.196  0.00  0.00    +0.000 HD
BRANCH  19  23
ATOM     23  C   UNL     1       6.313   1.764  11.054  0.00  0.00    +0.000 C 
BRANCH  23  25
ATOM     24  C   UNL     1       6.222  -0.555  11.401  0.00  0.00    +0.000 C 
ATOM     25  O   UNL     1       5.478   0.611  11.070  0.00  0.00    +0.000 OA
ENDBRANCH  23  25
ENDBRANCH  19  23
ENDBRANCH  15  21
ENDBRANCH   1  17
TORSDOF 5
ENDMDL
MODEL 2
REMARK VINA RESULT:      -7.0      1.286      1.555
REMARK  Name = 
REMARK  6 active torsions:
REMARK  status: ('A' for Active; 'I' for Inactive)
REMARK    1  A    between atoms: C_1  and  O_2
REMARK    2  A    between atoms: O_2  and  C_3
REMARK    3  A    between atoms: C_3  and  C_4
REMARK    4  A    between atoms: N_6  and  C_7
REMARK    5  A    between atoms: N_9  and  S_10
REMARK    6  A    between atoms: S_10  and  C_13
REMARK                            x       y       z     vdW  Elec       q    Type
REMARK                         _______ _______ _______ _____ _____    ______ ____
ROOT
ATOM      1  S   UNL     1       5.645   6.357  16.294  0.00  0.00    +0.000 S 
ATOM      2  O   UNL     1       6.666   7.142  16.955  0.00  0.00    +0.000 OA
ATOM      3  O   UNL     1       4.948   6.855  15.130  0.00  0.00    +0.000 OA
ENDROOT
BRANCH   1   4
ATOM      4  C   UNL     1       4.440   5.899  17.510  0.00  0.00    +0.000 A 
ATOM      5  C   UNL     1       3.481   6.824  17.927  0.00  0.00    +0.000 A 
ATOM      6  C   UNL     1       2.539   6.444  18.886  0.00  0.00    +0.000 A 
ATOM      7  C   UNL     1       2.552   5.155  19.424  0.00  0.00    +0.000 A 
ATOM      8  C   UNL     1       3.493   4.219  18.960  0.00  0.00    +0.000 A 
ATOM      9  C   UNL     1       4.461   4.604  18.031  0.00  0.00    +0.000 A 
ATOM     10  O   UNL     1       3.555   2.903  19.348  0.00  0.00    +0.000 OA
ATOM     11  C   UNL     1       2.265   2.313  19.518  0.00  0.00    +0.000 C 
ATOM     12  C   UNL     1       1.737   2.553  20.922  0.00  0.00    +0.000 C 
ATOM     13  C   UNL     1       1.981   3.981  21.380  0.00  0.00    +0.000 C 
ATOM     14  O   UNL     1       1.592   4.918  20.375  0.00  0.00    +0.000 OA
ENDBRANCH   1   4
BRANCH   1  17
ATOM     15  C   UNL     1       6.302   4.302  13.787  0.00  0.00    +0.000 C 
ATOM     16  C   UNL     1       5.558   3.823  15.061  0.00  0.00    +0.000 C 
ATOM     17  N   UNL     1       6.332   4.841  15.865  0.00  0.00    +0.000 NA
ATOM     18  C   UNL     1       7.390   4.759  14.788  0.00  0.00    +0.000 C 
BRANCH  15  21
ATOM     19  C   UNL     1       5.755   2.799  11.890  0.00  0.00    +0.000 C 
ATOM     20  O   UNL     1       4.591   3.195  11.853  0.00  0.00    +0.000 OA
ATOM     21  N   UNL     1       6.669   3.251  12.821  0.00  0.00    +0.000 N 
ATOM     22  H   UNL     1       7.592   2.829  12.800  0.00  0.00    +0.000 HD
BRANCH  19  23
ATOM     23  C   UNL     1       6.327   1.822  10.872  0.00  0.00    +0.000 C 
BRANCH  23  25
ATOM     24  C   UNL     1       6.008  -0.470  11.266  0.00  0.00    +0.000 C 
ATOM     25  O   UNL     1       6.832   0.661  11.522  0.00  0.00    +0.000 OA
ENDBRANCH  23  25
ENDBRANCH  19  23
ENDBRANCH  15  21
ENDBRANCH   1  17
TORSDOF 5
ENDMDL
MODEL 3
REMARK VINA RESULT:      -6.8      3.462      6.263
REMARK  Name = 
REMARK  6 active torsions:
REMARK  status: ('A' for Active; 'I' for Inactive)
REMARK    1  A    between atoms: C_1  and  O_2
REMARK    2  A    between atoms: O_2  and  C_3
REMARK    3  A    between atoms: C_3  and  C_4
REMARK    4  A    between atoms: N_6  and  C_7
REMARK    5  A    between atoms: N_9  and  S_10
REMARK    6  A    between atoms: S_10  and  C_13
REMARK                            x       y       z     vdW  Elec       q    Type
REMARK                         _______ _______ _______ _____ _____    ______ ____
ROOT
ATOM      1  S   UNL     1       5.331   5.588  15.920  0.00  0.00    +0.000 S 
ATOM      2  O   UNL     1       5.031   6.869  15.317  0.00  0.00    +0.000 OA
ATOM      3  O   UNL     1       5.315   4.368  15.144  0.00  0.00    +0.000 OA
ENDROOT
BRANCH   1   4
ATOM      4  C   UNL     1       4.252   5.376  17.310  0.00  0.00    +0.000 A 
ATOM      5  C   UNL     1       3.599   6.479  17.863  0.00  0.00    +0.000 A 
ATOM      6  C   UNL     1       2.752   6.292  18.958  0.00  0.00    +0.000 A 
ATOM      7  C   UNL     1       2.557   5.017  19.496  0.00  0.00    +0.000 A 
ATOM      8  C   UNL     1       3.183   3.909  18.900  0.00  0.00    +0.000 A 
ATOM      9  C   UNL     1       4.061   4.095  17.830  0.00  0.00    +0.000 A 
ATOM     10  O   UNL     1       3.007   2.602  19.282  0.00  0.00    +0.000 OA
ATOM     11  C   UNL     1       1.658   2.309  19.653  0.00  0.00    +0.000 C 
ATOM     12  C   UNL     1       1.416   2.621  21.119  0.00  0.00    +0.000 C 
ATOM     13  C   UNL     1       2.040   3.945  21.525  0.00  0.00    +0.000 C 
ATOM     14  O   UNL     1       1.723   4.973  20.585  0.00  0.00    +0.000 OA
ENDBRANCH   1   4
BRANCH   1  17
ATOM     15  C   UNL     1       7.347   7.527  17.685  0.00  0.00    +0.000 C 
ATOM     16  C   UNL     1       7.814   6.846  16.372  0.00  0.00    +0.000 C 
ATOM     17  N   UNL     1       6.876   5.698  16.664  0.00  0.00    +0.000 NA
ATOM     18  C   UNL     1       6.996   6.084  18.121  0.00  0.00    +0.000 C 
BRANCH  15  21
ATOM     19  C   UNL     1       8.522   9.604  18.365  0.00  0.00    +0.000 C 
ATOM     20  O   UNL     1       7.832  10.294  17.617  0.00  0.00    +0.000 OA
ATOM     21  N   UNL     1       8.390   8.232  18.451  0.00  0.00    +0.000 N 
ATOM     22  H   UNL     1       9.038   7.746  19.064  0.00  0.00    +0.000 HD
BRANCH  19  23
ATOM     23  C   UNL     1       9.544  10.197  19.326  0.00  0.00    +0.000 C 
BRANCH  23  25
ATOM     24  C   UNL     1      11.433  11.575  19.116  0.00  0.00    +0.000 C 
ATOM     25  O   UNL     1      10.049  11.428  18.819  0.00  0.00    +0.000 OA
ENDBRANCH  23  25
ENDBRANCH  19  23
ENDBRANCH  15  21
ENDBRANCH   1  17
TORSDOF 5
ENDMDL
MODEL 4
REMARK VINA RESULT:      -6.7      1.079      1.734
REMARK  Name = 
REMARK  6 active torsions:
REMARK  status: ('A' for Active; 'I' for Inactive)
REMARK    1  A    between atoms: C_1  and  O_2
REMARK    2  A    between atoms: O_2  and  C_3
REMARK    3  A    between atoms: C_3  and  C_4
REMARK    4  A    between atoms: N_6  and  C_7
REMARK    5  A    between atoms: N_9  and  S_10
REMARK    6  A    between atoms: S_10  and  C_13
REMARK                            x       y       z     vdW  Elec       q    Type
REMARK                         _______ _______ _______ _____ _____    ______ ____
ROOT
ATOM      1  S   UNL     1       5.539   6.191  16.447  0.00  0.00    +0.000 S 
ATOM      2  O   UNL     1       6.158   6.979  17.491  0.00  0.00    +0.000 OA
ATOM      3  O   UNL     1       4.932   6.815  15.293  0.00  0.00    +0.000 OA
ENDROOT
BRANCH   1   4
ATOM      4  C   UNL     1       4.335   5.135  17.206  0.00  0.00    +0.000 A 
ATOM      5  C   UNL     1       3.694   4.150  16.452  0.00  0.00    +0.000 A 
ATOM      6  C   UNL     1       2.749   3.327  17.068  0.00  0.00    +0.000 A 
ATOM      7  C   UNL     1       2.446   3.484  18.423  0.00  0.00    +0.000 A 
ATOM      8  C   UNL     1       3.133   4.446  19.182  0.00  0.00    +0.000 A 
ATOM      9  C   UNL     1       4.050   5.298  18.563  0.00  0.00    +0.000 A 
ATOM     10  O   UNL     1       2.986   4.641  20.533  0.00  0.00    +0.000 OA
ATOM     11  C   UNL     1       2.825   3.417  21.255  0.00  0.00    +0.000 C 
ATOM     12  C   UNL     1       1.366   2.999  21.300  0.00  0.00    +0.000 C 
ATOM     13  C   UNL     1       0.686   3.175  19.953  0.00  0.00    +0.000 C 
ATOM     14  O   UNL     1       1.481   2.631  18.899  0.00  0.00    +0.000 OA
ENDBRANCH   1   4
BRANCH   1  17
ATOM     15  C   UNL     1       6.286   4.105  13.992  0.00  0.00    +0.000 C 
ATOM     16  C   UNL     1       6.315   3.659  15.478  0.00  0.00    +0.000 C 
ATOM     17  N   UNL     1       6.702   5.068  15.865  0.00  0.00    +0.000 NA
ATOM     18  C   UNL     1       7.264   5.205  14.469  0.00  0.00    +0.000 C 
BRANCH  15  21
ATOM     19  C   UNL     1       6.011   2.719  11.952  0.00  0.00    +0.000 C 
ATOM     20  O   UNL     1       4.852   3.099  11.795  0.00  0.00    +0.000 OA
ATOM     21  N   UNL     1       6.793   3.123  13.016  0.00  0.00    +0.000 N 
ATOM     22  H   UNL     1       7.721   2.718  13.083  0.00  0.00    +0.000 HD
BRANCH  19  23
ATOM     23  C   UNL     1       6.726   1.818  10.954  0.00  0.00    +0.000 C 
BRANCH  23  25
ATOM     24  C   UNL     1       6.193  -0.422  11.407  0.00  0.00    +0.000 C 
ATOM     25  O   UNL     1       5.903   0.713  10.600  0.00  0.00    +0.000 OA
ENDBRANCH  23  25
ENDBRANCH  19  23
ENDBRANCH  15  21
ENDBRANCH   1  17
TORSDOF 5
ENDMDL
MODEL 5
REMARK VINA RESULT:      -6.7      3.346      6.038
REMARK  Name = 
REMARK  6 active torsions:
REMARK  status: ('A' for Active; 'I' for Inactive)
REMARK    1  A    between atoms: C_1  and  O_2
REMARK    2  A    between atoms: O_2  and  C_3
REMARK    3  A    between atoms: C_3  and  C_4
REMARK    4  A    between atoms: N_6  and  C_7
REMARK    5  A    between atoms: N_9  and  S_10
REMARK    6  A    between atoms: S_10  and  C_13
REMARK                            x       y       z     vdW  Elec       q    Type
REMARK                         _______ _______ _______ _____ _____    ______ ____
ROOT
ATOM      1  S   UNL     1       6.559   4.511  16.896  0.00  0.00    +0.000 S 
ATOM      2  O   UNL     1       6.785   3.800  15.656  0.00  0.00    +0.000 OA
ATOM      3  O   UNL     1       7.530   4.486  17.966  0.00  0.00    +0.000 OA
ENDROOT
BRANCH   1   4
ATOM      4  C   UNL     1       4.999   3.979  17.550  0.00  0.00    +0.000 A 
ATOM      5  C   UNL     1       4.015   3.480  16.694  0.00  0.00    +0.000 A 
ATOM      6  C   UNL     1       2.794   3.065  17.228  0.00  0.00    +0.000 A 
ATOM      7  C   UNL     1       2.555   3.145  18.602  0.00  0.00    +0.000 A 
ATOM      8  C   UNL     1       3.570   3.603  19.458  0.00  0.00    +0.000 A 
ATOM      9  C   UNL     1       4.780   4.056  18.926  0.00  0.00    +0.000 A 
ATOM     10  O   UNL     1       3.489   3.650  20.828  0.00  0.00    +0.000 OA
ATOM     11  C   UNL     1       2.800   2.526  21.381  0.00  0.00    +0.000 C 
ATOM     12  C   UNL     1       1.302   2.773  21.425  0.00  0.00    +0.000 C 
ATOM     13  C   UNL     1       0.797   3.410  20.142  0.00  0.00    +0.000 C 
ATOM     14  O   UNL     1       1.306   2.731  18.994  0.00  0.00    +0.000 OA
ENDBRANCH   1   4
BRANCH   1  17
ATOM     15  C   UNL     1       4.408   7.004  17.209  0.00  0.00    +0.000 C 
ATOM     16  C   UNL     1       4.986   6.593  15.829  0.00  0.00    +0.000 C 
ATOM     17  N   UNL     1       6.259   6.160  16.520  0.00  0.00    +0.000 NA
ATOM     18  C   UNL     1       5.896   7.139  17.613  0.00  0.00    +0.000 C 
BRANCH  15  21
ATOM     19  C   UNL     1       2.511   8.343  18.081  0.00  0.00    +0.000 C 
ATOM     20  O   UNL     1       2.146   7.430  18.820  0.00  0.00    +0.000 OA
ATOM     21  N   UNL     1       3.588   8.228  17.224  0.00  0.00    +0.000 N 
ATOM     22  H   UNL     1       3.781   9.021  16.621  0.00  0.00    +0.000 HD
BRANCH  19  23
ATOM     23  C   UNL     1       1.856   9.718  18.084  0.00  0.00    +0.000 C 
BRANCH  23  25
ATOM     24  C   UNL     1      -0.270  10.425  18.784  0.00  0.00    +0.000 C 
ATOM     25  O   UNL     1       0.453   9.604  17.874  0.00  0.00    +0.000 OA
ENDBRANCH  23  25
ENDBRANCH  19  23
ENDBRANCH  15  21
ENDBRANCH   1  17
TORSDOF 5
ENDMDL
MODEL 6
REMARK VINA RESULT:      -6.6      1.838      2.407
REMARK  Name = 
REMARK  6 active torsions:
REMARK  status: ('A' for Active; 'I' for Inactive)
REMARK    1  A    between atoms: C_1  and  O_2
REMARK    2  A    between atoms: O_2  and  C_3
REMARK    3  A    between atoms: C_3  and  C_4
REMARK    4  A    between atoms: N_6  and  C_7
REMARK    5  A    between atoms: N_9  and  S_10
REMARK    6  A    between atoms: S_10  and  C_13
REMARK                            x       y       z     vdW  Elec       q    Type
REMARK                         _______ _______ _______ _____ _____    ______ ____
ROOT
ATOM      1  S   UNL     1       7.191   5.590  17.028  0.00  0.00    +0.000 S 
ATOM      2  O   UNL     1       7.907   4.332  17.053  0.00  0.00    +0.000 OA
ATOM      3  O   UNL     1       7.817   6.821  17.454  0.00  0.00    +0.000 OA
ENDROOT
BRANCH   1   4
ATOM      4  C   UNL     1       5.694   5.380  17.954  0.00  0.00    +0.000 A 
ATOM      5  C   UNL     1       4.774   6.426  18.043  0.00  0.00    +0.000 A 
ATOM      6  C   UNL     1       3.599   6.241  18.775  0.00  0.00    +0.000 A 
ATOM      7  C   UNL     1       3.344   5.024  19.413  0.00  0.00    +0.000 A 
ATOM      8  C   UNL     1       4.255   3.963  19.275  0.00  0.00    +0.000 A 
ATOM      9  C   UNL     1       5.449   4.155  18.577  0.00  0.00    +0.000 A 
ATOM     10  O   UNL     1       4.079   2.700  19.782  0.00  0.00    +0.000 OA
ATOM     11  C   UNL     1       2.726   2.248  19.688  0.00  0.00    +0.000 C 
ATOM     12  C   UNL     1       1.919   2.690  20.895  0.00  0.00    +0.000 C 
ATOM     13  C   UNL     1       2.208   4.133  21.270  0.00  0.00    +0.000 C 
ATOM     14  O   UNL     1       2.169   4.981  20.121  0.00  0.00    +0.000 OA
ENDBRANCH   1   4
BRANCH   1  17
ATOM     15  C   UNL     1       5.633   4.186  14.471  0.00  0.00    +0.000 C 
ATOM     16  C   UNL     1       6.989   4.919  14.297  0.00  0.00    +0.000 C 
ATOM     17  N   UNL     1       6.607   5.841  15.432  0.00  0.00    +0.000 NA
ATOM     18  C   UNL     1       5.169   5.528  15.087  0.00  0.00    +0.000 C 
BRANCH  15  21
ATOM     19  C   UNL     1       5.709   3.192  12.199  0.00  0.00    +0.000 C 
ATOM     20  O   UNL     1       6.934   3.089  12.235  0.00  0.00    +0.000 OA
ATOM     21  N   UNL     1       4.974   3.747  13.228  0.00  0.00    +0.000 N 
ATOM     22  H   UNL     1       3.972   3.829  13.084  0.00  0.00    +0.000 HD
BRANCH  19  23
ATOM     23  C   UNL     1       4.870   2.655  11.047  0.00  0.00    +0.000 C 
BRANCH  23  25
ATOM     24  C   UNL     1       3.261   3.971   9.957  0.00  0.00    +0.000 C 
ATOM     25  O   UNL     1       3.548   3.181  11.105  0.00  0.00    +0.000 OA
ENDBRANCH  23  25
ENDBRANCH  19  23
ENDBRANCH  15  21
ENDBRANCH   1  17
TORSDOF 5
ENDMDL
MODEL 7
REMARK VINA RESULT:      -6.5      3.184      5.654
REMARK  Name = 
REMARK  6 active torsions:
REMARK  status: ('A' for Active; 'I' for Inactive)
REMARK    1  A    between atoms: C_1  and  O_2
REMARK    2  A    between atoms: O_2  and  C_3
REMARK    3  A    between atoms: C_3  and  C_4
REMARK    4  A    between atoms: N_6  and  C_7
REMARK    5  A    between atoms: N_9  and  S_10
REMARK    6  A    between atoms: S_10  and  C_13
REMARK                            x       y       z     vdW  Elec       q    Type
REMARK                         _______ _______ _______ _____ _____    ______ ____
ROOT
ATOM      1  S   UNL     1       6.735   4.547  16.255  0.00  0.00    +0.000 S 
ATOM      2  O   UNL     1       6.436   3.863  15.014  0.00  0.00    +0.000 OA
ATOM      3  O   UNL     1       8.031   4.432  16.884  0.00  0.00    +0.000 OA
ENDROOT
BRANCH   1   4
ATOM      4  C   UNL     1       5.500   4.085  17.439  0.00  0.00    +0.000 A 
ATOM      5  C   UNL     1       5.778   4.159  18.805  0.00  0.00    +0.000 A 
ATOM      6  C   UNL     1       4.792   3.792  19.723  0.00  0.00    +0.000 A 
ATOM      7  C   UNL     1       3.539   3.357  19.284  0.00  0.00    +0.000 A 
ATOM      8  C   UNL     1       3.255   3.333  17.908  0.00  0.00    +0.000 A 
ATOM      9  C   UNL     1       4.249   3.662  16.985  0.00  0.00    +0.000 A 
ATOM     10  O   UNL     1       2.041   3.006  17.357  0.00  0.00    +0.000 OA
ATOM     11  C   UNL     1       0.936   3.503  18.115  0.00  0.00    +0.000 C 
ATOM     12  C   UNL     1       0.542   2.527  19.209  0.00  0.00    +0.000 C 
ATOM     13  C   UNL     1       1.756   1.964  19.927  0.00  0.00    +0.000 C 
ATOM     14  O   UNL     1       2.670   3.001  20.285  0.00  0.00    +0.000 OA
ENDBRANCH   1   4
BRANCH   1  17
ATOM     15  C   UNL     1       4.656   7.025  16.947  0.00  0.00    +0.000 C 
ATOM     16  C   UNL     1       5.100   6.714  15.493  0.00  0.00    +0.000 C 
ATOM     17  N   UNL     1       6.424   6.221  16.030  0.00  0.00    +0.000 NA
ATOM     18  C   UNL     1       6.176   7.119  17.221  0.00  0.00    +0.000 C 
BRANCH  15  21
ATOM     19  C   UNL     1       2.660   8.215  17.817  0.00  0.00    +0.000 C 
ATOM     20  O   UNL     1       2.174   7.174  18.255  0.00  0.00    +0.000 OA
ATOM     21  N   UNL     1       3.857   8.249  17.129  0.00  0.00    +0.000 N 
ATOM     22  H   UNL     1       4.152   9.151  16.766  0.00  0.00    +0.000 HD
BRANCH  19  23
ATOM     23  C   UNL     1       2.029   9.581  18.047  0.00  0.00    +0.000 C 
BRANCH  23  25
ATOM     24  C   UNL     1      -0.044  10.086  19.024  0.00  0.00    +0.000 C 
ATOM     25  O   UNL     1       0.615   9.509  17.903  0.00  0.00    +0.000 OA
ENDBRANCH  23  25
ENDBRANCH  19  23
ENDBRANCH  15  21
ENDBRANCH   1  17
TORSDOF 5
ENDMDL
MODEL 8
REMARK VINA RESULT:      -6.4      6.283      8.773
REMARK  Name = 
REMARK  6 active torsions:
REMARK  status: ('A' for Active; 'I' for Inactive)
REMARK    1  A    between atoms: C_1  and  O_2
REMARK    2  A    between atoms: O_2  and  C_3
REMARK    3  A    between atoms: C_3  and  C_4
REMARK    4  A    between atoms: N_6  and  C_7
REMARK    5  A    between atoms: N_9  and  S_10
REMARK    6  A    between atoms: S_10  and  C_13
REMARK                            x       y       z     vdW  Elec       q    Type
REMARK                         _______ _______ _______ _____ _____    ______ ____
ROOT
ATOM      1  S   UNL     1       0.858   8.944  21.241  0.00  0.00    +0.000 S 
ATOM      2  O   UNL     1       1.840   9.370  22.216  0.00  0.00    +0.000 OA
ATOM      3  O   UNL     1      -0.426   8.418  21.646  0.00  0.00    +0.000 OA
ENDROOT
BRANCH   1   4
ATOM      4  C   UNL     1       1.632   7.759  20.174  0.00  0.00    +0.000 A 
ATOM      5  C   UNL     1       2.245   8.177  18.992  0.00  0.00    +0.000 A 
ATOM      6  C   UNL     1       2.850   7.228  18.164  0.00  0.00    +0.000 A 
ATOM      7  C   UNL     1       2.845   5.875  18.513  0.00  0.00    +0.000 A 
ATOM      8  C   UNL     1       2.267   5.473  19.729  0.00  0.00    +0.000 A 
ATOM      9  C   UNL     1       1.627   6.412  20.541  0.00  0.00    +0.000 A 
ATOM     10  O   UNL     1       2.271   4.192  20.221  0.00  0.00    +0.000 OA
ATOM     11  C   UNL     1       3.499   3.505  19.969  0.00  0.00    +0.000 C 
ATOM     12  C   UNL     1       3.477   2.831  18.608  0.00  0.00    +0.000 C 
ATOM     13  C   UNL     1       2.884   3.734  17.540  0.00  0.00    +0.000 C 
ATOM     14  O   UNL     1       3.449   5.044  17.602  0.00  0.00    +0.000 OA
ENDBRANCH   1   4
BRANCH   1  17
ATOM     15  C   UNL     1      -1.180  10.129  18.922  0.00  0.00    +0.000 C 
ATOM     16  C   UNL     1       0.352  10.044  18.695  0.00  0.00    +0.000 C 
ATOM     17  N   UNL     1       0.557  10.258  20.177  0.00  0.00    +0.000 NA
ATOM     18  C   UNL     1      -0.789  10.947  20.176  0.00  0.00    +0.000 C 
BRANCH  15  21
ATOM     19  C   UNL     1      -3.148  10.306  17.421  0.00  0.00    +0.000 C 
ATOM     20  O   UNL     1      -3.603   9.234  17.815  0.00  0.00    +0.000 OA
ATOM     21  N   UNL     1      -1.949  10.821  17.873  0.00  0.00    +0.000 N 
ATOM     22  H   UNL     1      -1.636  11.691  17.453  0.00  0.00    +0.000 HD
BRANCH  19  23
ATOM     23  C   UNL     1      -3.892  11.210  16.447  0.00  0.00    +0.000 C 
BRANCH  23  25
ATOM     24  C   UNL     1      -3.358  10.175  14.409  0.00  0.00    +0.000 C 
ATOM     25  O   UNL     1      -3.172  11.326  15.224  0.00  0.00    +0.000 OA
ENDBRANCH  23  25
ENDBRANCH  19  23
ENDBRANCH  15  21
ENDBRANCH   1  17
TORSDOF 5
ENDMDL
MODEL 9
REMARK VINA RESULT:      -6.3      3.806      7.814
REMARK  Name = 
REMARK  6 active torsions:
REMARK  status: ('A' for Active; 'I' for Inactive)
REMARK    1  A    between atoms: C_1  and  O_2
REMARK    2  A    between atoms: O_2  and  C_3
REMARK    3  A    between atoms: C_3  and  C_4
REMARK    4  A    between atoms: N_6  and  C_7
REMARK    5  A    between atoms: N_9  and  S_10
REMARK    6  A    between atoms: S_10  and  C_13
REMARK                            x       y       z     vdW  Elec       q    Type
REMARK                         _______ _______ _______ _____ _____    ______ ____
ROOT
ATOM      1  S   UNL     1       3.777   3.783  18.541  0.00  0.00    +0.000 S 
ATOM      2  O   UNL     1       4.247   2.680  19.353  0.00  0.00    +0.000 OA
ATOM      3  O   UNL     1       2.496   3.733  17.874  0.00  0.00    +0.000 OA
ENDROOT
BRANCH   1   4
ATOM      4  C   UNL     1       5.021   4.133  17.328  0.00  0.00    +0.000 A 
ATOM      5  C   UNL     1       6.312   4.480  17.731  0.00  0.00    +0.000 A 
ATOM      6  C   UNL     1       7.279   4.752  16.760  0.00  0.00    +0.000 A 
ATOM      7  C   UNL     1       6.963   4.677  15.401  0.00  0.00    +0.000 A 
ATOM      8  C   UNL     1       5.673   4.280  15.009  0.00  0.00    +0.000 A 
ATOM      9  C   UNL     1       4.692   4.045  15.975  0.00  0.00    +0.000 A 
ATOM     10  O   UNL     1       5.265   4.090  13.713  0.00  0.00    +0.000 OA
ATOM     11  C   UNL     1       6.272   3.489  12.896  0.00  0.00    +0.000 C 
ATOM     12  C   UNL     1       7.192   4.541  12.302  0.00  0.00    +0.000 C 
ATOM     13  C   UNL     1       7.579   5.595  13.325  0.00  0.00    +0.000 C 
ATOM     14  O   UNL     1       7.994   4.993  14.552  0.00  0.00    +0.000 OA
ENDBRANCH   1   4
BRANCH   1  17
ATOM     15  C   UNL     1       2.397   6.753  19.000  0.00  0.00    +0.000 C 
ATOM     16  C   UNL     1       3.934   6.576  18.893  0.00  0.00    +0.000 C 
ATOM     17  N   UNL     1       3.793   5.203  19.508  0.00  0.00    +0.000 NA
ATOM     18  C   UNL     1       2.516   5.712  20.138  0.00  0.00    +0.000 C 
BRANCH  15  21
ATOM     19  C   UNL     1       1.765   9.075  18.395  0.00  0.00    +0.000 C 
ATOM     20  O   UNL     1       2.052   8.894  17.213  0.00  0.00    +0.000 OA
ATOM     21  N   UNL     1       1.928   8.102  19.361  0.00  0.00    +0.000 N 
ATOM     22  H   UNL     1       1.705   8.364  20.317  0.00  0.00    +0.000 HD
BRANCH  19  23
ATOM     23  C   UNL     1       1.135  10.365  18.902  0.00  0.00    +0.000 C 
BRANCH  23  25
ATOM     24  C   UNL     1      -0.857  11.373  19.627  0.00  0.00    +0.000 C 
ATOM     25  O   UNL     1      -0.235  10.158  19.227  0.00  0.00    +0.000 OA
ENDBRANCH  23  25
ENDBRANCH  19  23
ENDBRANCH  15  21
ENDBRANCH   1  17
TORSDOF 5
ENDMDL
