MODEL 1
REMARK VINA RESULT:      -7.4      0.000      0.000
REMARK  Name = 
REMARK  5 active torsions:
REMARK  status: ('A' for Active; 'I' for Inactive)
REMARK    1  A    between atoms: C_1  and  N_2
REMARK    2  A    between atoms: N_5  and  C_6
REMARK    3  A    between atoms: C_10  and  N_11
REMARK    4  A    between atoms: C_12  and  C_14
REMARK    5  A    between atoms: N_21  and  C_22
REMARK                            x       y       z     vdW  Elec       q    Type
REMARK                         _______ _______ _______ _____ _____    ______ ____
ROOT
ATOM      1  C   UNL     1       2.131   7.556  19.352  0.00  0.00    +0.000 A 
ATOM      2  C   UNL     1       2.650   8.113  18.174  0.00  0.00    +0.000 A 
ATOM      3  C   UNL     1       2.236   9.358  17.706  0.00  0.00    +0.000 A 
ATOM      4  C   UNL     1       1.277  10.080  18.403  0.00  0.00    +0.000 A 
ATOM      5  C   UNL     1       0.723   9.566  19.572  0.00  0.00    +0.000 A 
ATOM      6  C   UNL     1       1.171   8.319  20.046  0.00  0.00    +0.000 A 
ENDROOT
BRANCH   1  11
ATOM      7  C   UNL     1       2.652   2.082  19.270  0.00  0.00    +0.000 C 
ATOM      8  N   UNL     1       2.847   3.428  19.797  0.00  0.00    +0.000 NA
ATOM      9  C   UNL     1       1.549   4.071  20.105  0.00  0.00    +0.000 C 
ATOM     10  C   UNL     1       1.739   5.484  20.700  0.00  0.00    +0.000 C 
ATOM     11  N   UNL     1       2.553   6.322  19.802  0.00  0.00    +0.000 N 
ATOM     12  C   UNL     1       3.821   5.717  19.373  0.00  0.00    +0.000 C 
ATOM     13  C   UNL     1       3.578   4.283  18.833  0.00  0.00    +0.000 C 
ENDBRANCH   1  11
BRANCH   5  14
ATOM     14  N   UNL     1      -0.264  10.252  20.315  0.00  0.00    +0.000 N 
ATOM     15  C   UNL     1      -0.056  11.284  21.218  0.00  0.00    +0.000 C 
ATOM     16  O   UNL     1       1.021  11.830  21.431  0.00  0.00    +0.000 OA
ATOM     17  H   UNL     1      -1.227  10.049  20.083  0.00  0.00    +0.000 HD
BRANCH  15  18
ATOM     18  C   UNL     1      -1.280  11.738  21.871  0.00  0.00    +0.000 A 
ATOM     19  C   UNL     1      -1.653  11.597  23.202  0.00  0.00    +0.000 A 
ATOM     20  C   UNL     1      -2.938  12.192  23.327  0.00  0.00    +0.000 A 
ATOM     21  S   UNL     1      -4.147  12.453  24.540  0.00  0.00    +0.000 S 
ATOM     22  C   UNL     1      -5.148  13.218  23.369  0.00  0.00    +0.000 A 
ATOM     23  C   UNL     1      -4.583  13.308  22.115  0.00  0.00    +0.000 A 
ATOM     24  C   UNL     1      -3.299  12.695  22.115  0.00  0.00    +0.000 A 
ATOM     25  N   UNL     1      -2.279  12.444  21.223  0.00  0.00    +0.000 N 
ATOM     26  C   UNL     1      -2.321  12.799  19.824  0.00  0.00    +0.000 C 
ENDBRANCH  15  18
ENDBRANCH   5  14
TORSDOF 3
ENDMDL
MODEL 2
REMARK VINA RESULT:      -7.2      3.455      4.844
REMARK  Name = 
REMARK  5 active torsions:
REMARK  status: ('A' for Active; 'I' for Inactive)
REMARK    1  A    between atoms: C_1  and  N_2
REMARK    2  A    between atoms: N_5  and  C_6
REMARK    3  A    between atoms: C_10  and  N_11
REMARK    4  A    between atoms: C_12  and  C_14
REMARK    5  A    between atoms: N_21  and  C_22
REMARK                            x       y       z     vdW  Elec       q    Type
REMARK                         _______ _______ _______ _____ _____    ______ ____
ROOT
ATOM      1  C   UNL     1       3.621   5.270  19.165  0.00  0.00    +0.000 A 
ATOM      2  C   UNL     1       2.906   4.499  20.092  0.00  0.00    +0.000 A 
ATOM      3  C   UNL     1       1.854   5.030  20.835  0.00  0.00    +0.000 A 
ATOM      4  C   UNL     1       1.493   6.361  20.676  0.00  0.00    +0.000 A 
ATOM      5  C   UNL     1       2.179   7.172  19.776  0.00  0.00    +0.000 A 
ATOM      6  C   UNL     1       3.222   6.614  19.015  0.00  0.00    +0.000 A 
ENDROOT
BRANCH   1  11
ATOM      7  C   UNL     1       7.122   4.850  14.946  0.00  0.00    +0.000 C 
ATOM      8  N   UNL     1       6.524   4.467  16.220  0.00  0.00    +0.000 NA
ATOM      9  C   UNL     1       5.087   4.149  16.059  0.00  0.00    +0.000 C 
ATOM     10  C   UNL     1       4.448   3.707  17.394  0.00  0.00    +0.000 C 
ATOM     11  N   UNL     1       4.659   4.727  18.437  0.00  0.00    +0.000 N 
ATOM     12  C   UNL     1       6.051   5.167  18.598  0.00  0.00    +0.000 C 
ATOM     13  C   UNL     1       6.657   5.550  17.222  0.00  0.00    +0.000 C 
ENDBRANCH   1  11
BRANCH   5  14
ATOM     14  N   UNL     1       1.863   8.536  19.584  0.00  0.00    +0.000 N 
ATOM     15  C   UNL     1       1.569   9.158  18.380  0.00  0.00    +0.000 C 
ATOM     16  O   UNL     1       1.437   8.587  17.303  0.00  0.00    +0.000 OA
ATOM     17  H   UNL     1       1.726   9.091  20.418  0.00  0.00    +0.000 HD
BRANCH  15  18
ATOM     18  C   UNL     1       1.348  10.595  18.509  0.00  0.00    +0.000 A 
ATOM     19  C   UNL     1       2.273  11.626  18.385  0.00  0.00    +0.000 A 
ATOM     20  C   UNL     1       1.562  12.836  18.617  0.00  0.00    +0.000 A 
ATOM     21  S   UNL     1       1.869  14.538  18.698  0.00  0.00    +0.000 S 
ATOM     22  C   UNL     1       0.212  14.813  19.070  0.00  0.00    +0.000 A 
ATOM     23  C   UNL     1      -0.558  13.670  19.099  0.00  0.00    +0.000 A 
ATOM     24  C   UNL     1       0.254  12.531  18.840  0.00  0.00    +0.000 A 
ATOM     25  N   UNL     1       0.110  11.163  18.751  0.00  0.00    +0.000 N 
ATOM     26  C   UNL     1      -1.135  10.465  18.969  0.00  0.00    +0.000 C 
ENDBRANCH  15  18
ENDBRANCH   5  14
TORSDOF 3
ENDMDL
MODEL 3
REMARK VINA RESULT:      -7.2      0.979      1.449
REMARK  Name = 
REMARK  5 active torsions:
REMARK  status: ('A' for Active; 'I' for Inactive)
REMARK    1  A    between atoms: C_1  and  N_2
REMARK    2  A    between atoms: N_5  and  C_6
REMARK    3  A    between atoms: C_10  and  N_11
REMARK    4  A    between atoms: C_12  and  C_14
REMARK    5  A    between atoms: N_21  and  C_22
REMARK                            x       y       z     vdW  Elec       q    Type
REMARK                         _______ _______ _______ _____ _____    ______ ____
ROOT
ATOM      1  C   UNL     1       2.247   7.481  19.233  0.00  0.00    +0.000 A 
ATOM      2  C   UNL     1       2.808   7.928  18.028  0.00  0.00    +0.000 A 
ATOM      3  C   UNL     1       2.502   9.177  17.493  0.00  0.00    +0.000 A 
ATOM      4  C   UNL     1       1.611  10.016  18.149  0.00  0.00    +0.000 A 
ATOM      5  C   UNL     1       1.018   9.614  19.343  0.00  0.00    +0.000 A 
ATOM      6  C   UNL     1       1.358   8.361  19.884  0.00  0.00    +0.000 A 
ENDROOT
BRANCH   1  11
ATOM      7  C   UNL     1       2.306   1.987  19.439  0.00  0.00    +0.000 C 
ATOM      8  N   UNL     1       2.612   3.338  19.897  0.00  0.00    +0.000 NA
ATOM      9  C   UNL     1       1.372   4.102  20.162  0.00  0.00    +0.000 C 
ATOM     10  C   UNL     1       1.678   5.523  20.684  0.00  0.00    +0.000 C 
ATOM     11  N   UNL     1       2.563   6.242  19.750  0.00  0.00    +0.000 N 
ATOM     12  C   UNL     1       3.777   5.511  19.361  0.00  0.00    +0.000 C 
ATOM     13  C   UNL     1       3.414   4.076  18.895  0.00  0.00    +0.000 C 
ENDBRANCH   1  11
BRANCH   5  14
ATOM     14  N   UNL     1       0.095  10.422  20.045  0.00  0.00    +0.000 N 
ATOM     15  C   UNL     1       0.393  11.487  20.882  0.00  0.00    +0.000 C 
ATOM     16  O   UNL     1       1.512  11.957  21.056  0.00  0.00    +0.000 OA
ATOM     17  H   UNL     1      -0.883  10.283  19.831  0.00  0.00    +0.000 HD
BRANCH  15  18
ATOM     18  C   UNL     1      -0.785  12.077  21.510  0.00  0.00    +0.000 A 
ATOM     19  C   UNL     1      -1.473  13.228  21.147  0.00  0.00    +0.000 A 
ATOM     20  C   UNL     1      -2.531  13.380  22.084  0.00  0.00    +0.000 A 
ATOM     21  S   UNL     1      -3.823  14.480  22.432  0.00  0.00    +0.000 S 
ATOM     22  C   UNL     1      -4.271  13.516  23.785  0.00  0.00    +0.000 A 
ATOM     23  C   UNL     1      -3.501  12.385  23.953  0.00  0.00    +0.000 A 
ATOM     24  C   UNL     1      -2.489  12.333  22.954  0.00  0.00    +0.000 A 
ATOM     25  N   UNL     1      -1.438  11.518  22.595  0.00  0.00    +0.000 N 
ATOM     26  C   UNL     1      -1.057  10.325  23.315  0.00  0.00    +0.000 C 
ENDBRANCH  15  18
ENDBRANCH   5  14
TORSDOF 3
ENDMDL
MODEL 4
REMARK VINA RESULT:      -7.2      1.223      1.289
REMARK  Name = 
REMARK  5 active torsions:
REMARK  status: ('A' for Active; 'I' for Inactive)
REMARK    1  A    between atoms: C_1  and  N_2
REMARK    2  A    between atoms: N_5  and  C_6
REMARK    3  A    between atoms: C_10  and  N_11
REMARK    4  A    between atoms: C_12  and  C_14
REMARK    5  A    between atoms: N_21  and  C_22
REMARK                            x       y       z     vdW  Elec       q    Type
REMARK                         _______ _______ _______ _____ _____    ______ ____
ROOT
ATOM      1  C   UNL     1       2.344   7.178  19.292  0.00  0.00    +0.000 A 
ATOM      2  C   UNL     1       2.740   7.616  18.020  0.00  0.00    +0.000 A 
ATOM      3  C   UNL     1       2.380   8.869  17.529  0.00  0.00    +0.000 A 
ATOM      4  C   UNL     1       1.599   9.720  18.299  0.00  0.00    +0.000 A 
ATOM      5  C   UNL     1       1.171   9.328  19.564  0.00  0.00    +0.000 A 
ATOM      6  C   UNL     1       1.565   8.070  20.056  0.00  0.00    +0.000 A 
ENDROOT
BRANCH   1  11
ATOM      7  C   UNL     1       3.147   1.744  19.045  0.00  0.00    +0.000 C 
ATOM      8  N   UNL     1       3.144   3.060  19.674  0.00  0.00    +0.000 NA
ATOM      9  C   UNL     1       1.779   3.633  19.700  0.00  0.00    +0.000 C 
ATOM     10  C   UNL     1       1.753   5.011  20.397  0.00  0.00    +0.000 C 
ATOM     11  N   UNL     1       2.711   5.934  19.763  0.00  0.00    +0.000 N 
ATOM     12  C   UNL     1       4.073   5.405  19.614  0.00  0.00    +0.000 C 
ATOM     13  C   UNL     1       4.036   4.000  18.956  0.00  0.00    +0.000 C 
ENDBRANCH   1  11
BRANCH   5  14
ATOM     14  N   UNL     1       0.365  10.148  20.385  0.00  0.00    +0.000 N 
ATOM     15  C   UNL     1       0.553  10.414  21.733  0.00  0.00    +0.000 C 
ATOM     16  O   UNL     1       1.519  10.054  22.397  0.00  0.00    +0.000 OA
ATOM     17  H   UNL     1      -0.356  10.685  19.921  0.00  0.00    +0.000 HD
BRANCH  15  18
ATOM     18  C   UNL     1      -0.495  11.251  22.310  0.00  0.00    +0.000 A 
ATOM     19  C   UNL     1      -1.596  10.860  23.064  0.00  0.00    +0.000 A 
ATOM     20  C   UNL     1      -2.317  12.047  23.370  0.00  0.00    +0.000 A 
ATOM     21  S   UNL     1      -3.763  12.523  24.195  0.00  0.00    +0.000 S 
ATOM     22  C   UNL     1      -3.454  14.163  23.780  0.00  0.00    +0.000 A 
ATOM     23  C   UNL     1      -2.286  14.357  23.073  0.00  0.00    +0.000 A 
ATOM     24  C   UNL     1      -1.646  13.107  22.840  0.00  0.00    +0.000 A 
ATOM     25  N   UNL     1      -0.517  12.631  22.211  0.00  0.00    +0.000 N 
ATOM     26  C   UNL     1       0.424  13.463  21.499  0.00  0.00    +0.000 C 
ENDBRANCH  15  18
ENDBRANCH   5  14
TORSDOF 3
ENDMDL
MODEL 5
REMARK VINA RESULT:      -7.1      3.869      9.243
REMARK  Name = 
REMARK  5 active torsions:
REMARK  status: ('A' for Active; 'I' for Inactive)
REMARK    1  A    between atoms: C_1  and  N_2
REMARK    2  A    between atoms: N_5  and  C_6
REMARK    3  A    between atoms: C_10  and  N_11
REMARK    4  A    between atoms: C_12  and  C_14
REMARK    5  A    between atoms: N_21  and  C_22
REMARK                            x       y       z     vdW  Elec       q    Type
REMARK                         _______ _______ _______ _____ _____    ______ ____
ROOT
ATOM      1  C   UNL     1      -0.542  10.352  20.103  0.00  0.00    +0.000 A 
ATOM      2  C   UNL     1      -0.524  10.442  21.502  0.00  0.00    +0.000 A 
ATOM      3  C   UNL     1       0.353   9.687  22.276  0.00  0.00    +0.000 A 
ATOM      4  C   UNL     1       1.238   8.807  21.667  0.00  0.00    +0.000 A 
ATOM      5  C   UNL     1       1.252   8.672  20.281  0.00  0.00    +0.000 A 
ATOM      6  C   UNL     1       0.378   9.461  19.512  0.00  0.00    +0.000 A 
ENDROOT
BRANCH   1  11
ATOM      7  C   UNL     1      -5.445  11.960  18.202  0.00  0.00    +0.000 C 
ATOM      8  N   UNL     1      -3.991  11.984  18.317  0.00  0.00    +0.000 NA
ATOM      9  C   UNL     1      -3.405  10.682  17.924  0.00  0.00    +0.000 C 
ATOM     10  C   UNL     1      -1.863  10.703  18.006  0.00  0.00    +0.000 C 
ATOM     11  N   UNL     1      -1.417  11.108  19.351  0.00  0.00    +0.000 N 
ATOM     12  C   UNL     1      -2.024  12.347  19.857  0.00  0.00    +0.000 C 
ATOM     13  C   UNL     1      -3.567  12.291  19.703  0.00  0.00    +0.000 C 
ENDBRANCH   1  11
BRANCH   5  14
ATOM     14  N   UNL     1       2.122   7.783  19.611  0.00  0.00    +0.000 N 
ATOM     15  C   UNL     1       2.358   6.455  19.929  0.00  0.00    +0.000 C 
ATOM     16  O   UNL     1       1.760   5.816  20.789  0.00  0.00    +0.000 OA
ATOM     17  H   UNL     1       2.528   8.114  18.746  0.00  0.00    +0.000 HD
BRANCH  15  18
ATOM     18  C   UNL     1       3.364   5.825  19.080  0.00  0.00    +0.000 A 
ATOM     19  C   UNL     1       4.748   5.944  19.146  0.00  0.00    +0.000 A 
ATOM     20  C   UNL     1       5.272   5.149  18.089  0.00  0.00    +0.000 A 
ATOM     21  S   UNL     1       6.807   4.730  17.406  0.00  0.00    +0.000 S 
ATOM     22  C   UNL     1       6.010   3.774  16.218  0.00  0.00    +0.000 A 
ATOM     23  C   UNL     1       4.639   3.739  16.348  0.00  0.00    +0.000 A 
ATOM     24  C   UNL     1       4.233   4.555  17.440  0.00  0.00    +0.000 A 
ATOM     25  N   UNL     1       3.063   4.944  18.056  0.00  0.00    +0.000 N 
ATOM     26  C   UNL     1       1.746   4.543  17.618  0.00  0.00    +0.000 C 
ENDBRANCH  15  18
ENDBRANCH   5  14
TORSDOF 3
ENDMDL
MODEL 6
REMARK VINA RESULT:      -7.0      3.224      4.449
REMARK  Name = 
REMARK  5 active torsions:
REMARK  status: ('A' for Active; 'I' for Inactive)
REMARK    1  A    between atoms: C_1  and  N_2
REMARK    2  A    between atoms: N_5  and  C_6
REMARK    3  A    between atoms: C_10  and  N_11
REMARK    4  A    between atoms: C_12  and  C_14
REMARK    5  A    between atoms: N_21  and  C_22
REMARK                            x       y       z     vdW  Elec       q    Type
REMARK                         _______ _______ _______ _____ _____    ______ ____
ROOT
ATOM      1  C   UNL     1       3.640   5.142  19.211  0.00  0.00    +0.000 A 
ATOM      2  C   UNL     1       2.921   4.275  20.046  0.00  0.00    +0.000 A 
ATOM      3  C   UNL     1       1.839   4.714  20.806  0.00  0.00    +0.000 A 
ATOM      4  C   UNL     1       1.450   6.046  20.757  0.00  0.00    +0.000 A 
ATOM      5  C   UNL     1       2.138   6.950  19.952  0.00  0.00    +0.000 A 
ATOM      6  C   UNL     1       3.212   6.485  19.171  0.00  0.00    +0.000 A 
ENDROOT
BRANCH   1  11
ATOM      7  C   UNL     1       6.994   4.911  14.859  0.00  0.00    +0.000 C 
ATOM      8  N   UNL     1       6.500   4.533  16.179  0.00  0.00    +0.000 NA
ATOM      9  C   UNL     1       5.110   4.031  16.103  0.00  0.00    +0.000 C 
ATOM     10  C   UNL     1       4.585   3.592  17.488  0.00  0.00    +0.000 C 
ATOM     11  N   UNL     1       4.708   4.689  18.464  0.00  0.00    +0.000 N 
ATOM     12  C   UNL     1       6.039   5.307  18.536  0.00  0.00    +0.000 C 
ATOM     13  C   UNL     1       6.536   5.681  17.115  0.00  0.00    +0.000 C 
ENDBRANCH   1  11
BRANCH   5  14
ATOM     14  N   UNL     1       1.794   8.318  19.874  0.00  0.00    +0.000 N 
ATOM     15  C   UNL     1       0.771   8.957  20.558  0.00  0.00    +0.000 C 
ATOM     16  O   UNL     1       0.070   8.442  21.424  0.00  0.00    +0.000 OA
ATOM     17  H   UNL     1       2.424   8.915  19.354  0.00  0.00    +0.000 HD
BRANCH  15  18
ATOM     18  C   UNL     1       0.632  10.367  20.209  0.00  0.00    +0.000 A 
ATOM     19  C   UNL     1       1.128  11.477  20.882  0.00  0.00    +0.000 A 
ATOM     20  C   UNL     1       0.706  12.618  20.146  0.00  0.00    +0.000 A 
ATOM     21  S   UNL     1       0.815  14.344  20.232  0.00  0.00    +0.000 S 
ATOM     22  C   UNL     1      -0.122  14.470  18.795  0.00  0.00    +0.000 A 
ATOM     23  C   UNL     1      -0.478  13.257  18.245  0.00  0.00    +0.000 A 
ATOM     24  C   UNL     1       0.009  12.194  19.056  0.00  0.00    +0.000 A 
ATOM     25  N   UNL     1      -0.020  10.816  19.073  0.00  0.00    +0.000 N 
ATOM     26  C   UNL     1      -0.705  10.009  18.091  0.00  0.00    +0.000 C 
ENDBRANCH  15  18
ENDBRANCH   5  14
TORSDOF 3
ENDMDL
MODEL 7
REMARK VINA RESULT:      -6.9      4.475      9.657
REMARK  Name = 
REMARK  5 active torsions:
REMARK  status: ('A' for Active; 'I' for Inactive)
REMARK    1  A    between atoms: C_1  and  N_2
REMARK    2  A    between atoms: N_5  and  C_6
REMARK    3  A    between atoms: C_10  and  N_11
REMARK    4  A    between atoms: C_12  and  C_14
REMARK    5  A    between atoms: N_21  and  C_22
REMARK                            x       y       z     vdW  Elec       q    Type
REMARK                         _______ _______ _______ _____ _____    ______ ____
ROOT
ATOM      1  C   UNL     1       0.734  11.936  18.928  0.00  0.00    +0.000 A 
ATOM      2  C   UNL     1      -0.647  11.752  18.765  0.00  0.00    +0.000 A 
ATOM      3  C   UNL     1      -1.177  10.561  18.275  0.00  0.00    +0.000 A 
ATOM      4  C   UNL     1      -0.333   9.516  17.924  0.00  0.00    +0.000 A 
ATOM      5  C   UNL     1       1.047   9.652  18.057  0.00  0.00    +0.000 A 
ATOM      6  C   UNL     1       1.565  10.852  18.577  0.00  0.00    +0.000 A 
ENDROOT
BRANCH   1  11
ATOM      7  C   UNL     1       2.110  17.257  18.771  0.00  0.00    +0.000 C 
ATOM      8  N   UNL     1       1.989  15.932  19.370  0.00  0.00    +0.000 NA
ATOM      9  C   UNL     1       2.735  14.924  18.583  0.00  0.00    +0.000 C 
ATOM     10  C   UNL     1       2.648  13.522  19.224  0.00  0.00    +0.000 C 
ATOM     11  N   UNL     1       1.242  13.122  19.415  0.00  0.00    +0.000 N 
ATOM     12  C   UNL     1       0.407  14.112  20.110  0.00  0.00    +0.000 C 
ATOM     13  C   UNL     1       0.573  15.509  19.456  0.00  0.00    +0.000 C 
ENDBRANCH   1  11
BRANCH   5  14
ATOM     14  N   UNL     1       1.952   8.626  17.703  0.00  0.00    +0.000 N 
ATOM     15  C   UNL     1       2.503   7.677  18.550  0.00  0.00    +0.000 C 
ATOM     16  O   UNL     1       2.200   7.520  19.727  0.00  0.00    +0.000 OA
ATOM     17  H   UNL     1       2.131   8.501  16.715  0.00  0.00    +0.000 HD
BRANCH  15  18
ATOM     18  C   UNL     1       3.457   6.793  17.887  0.00  0.00    +0.000 A 
ATOM     19  C   UNL     1       4.723   7.098  17.400  0.00  0.00    +0.000 A 
ATOM     20  C   UNL     1       5.236   5.900  16.832  0.00  0.00    +0.000 A 
ATOM     21  S   UNL     1       6.653   5.348  16.003  0.00  0.00    +0.000 S 
ATOM     22  C   UNL     1       5.958   3.780  15.872  0.00  0.00    +0.000 A 
ATOM     23  C   UNL     1       4.718   3.661  16.460  0.00  0.00    +0.000 A 
ATOM     24  C   UNL     1       4.315   4.912  17.005  0.00  0.00    +0.000 A 
ATOM     25  N   UNL     1       3.234   5.445  17.672  0.00  0.00    +0.000 N 
ATOM     26  C   UNL     1       2.039   4.701  18.000  0.00  0.00    +0.000 C 
ENDBRANCH  15  18
ENDBRANCH   5  14
TORSDOF 3
ENDMDL
MODEL 8
REMARK VINA RESULT:      -6.9      3.005      4.527
REMARK  Name = 
REMARK  5 active torsions:
REMARK  status: ('A' for Active; 'I' for Inactive)
REMARK    1  A    between atoms: C_1  and  N_2
REMARK    2  A    between atoms: N_5  and  C_6
REMARK    3  A    between atoms: C_10  and  N_11
REMARK    4  A    between atoms: C_12  and  C_14
REMARK    5  A    between atoms: N_21  and  C_22
REMARK                            x       y       z     vdW  Elec       q    Type
REMARK                         _______ _______ _______ _____ _____    ______ ____
ROOT
ATOM      1  C   UNL     1       3.937   5.822  18.622  0.00  0.00    +0.000 A 
ATOM      2  C   UNL     1       3.523   4.800  19.488  0.00  0.00    +0.000 A 
ATOM      3  C   UNL     1       2.475   4.978  20.388  0.00  0.00    +0.000 A 
ATOM      4  C   UNL     1       1.814   6.197  20.453  0.00  0.00    +0.000 A 
ATOM      5  C   UNL     1       2.193   7.247  19.622  0.00  0.00    +0.000 A 
ATOM      6  C   UNL     1       3.237   7.043  18.700  0.00  0.00    +0.000 A 
ENDROOT
BRANCH   1  11
ATOM      7  C   UNL     1       6.316   4.165  13.949  0.00  0.00    +0.000 C 
ATOM      8  N   UNL     1       6.272   4.760  15.281  0.00  0.00    +0.000 NA
ATOM      9  C   UNL     1       5.788   3.783  16.283  0.00  0.00    +0.000 C 
ATOM     10  C   UNL     1       5.771   4.386  17.705  0.00  0.00    +0.000 C 
ATOM     11  N   UNL     1       4.976   5.627  17.736  0.00  0.00    +0.000 N 
ATOM     12  C   UNL     1       5.332   6.616  16.709  0.00  0.00    +0.000 C 
ATOM     13  C   UNL     1       5.384   5.945  15.311  0.00  0.00    +0.000 C 
ENDBRANCH   1  11
BRANCH   5  14
ATOM     14  N   UNL     1       1.564   8.512  19.655  0.00  0.00    +0.000 N 
ATOM     15  C   UNL     1       1.332   9.352  18.576  0.00  0.00    +0.000 C 
ATOM     16  O   UNL     1       1.548   9.071  17.402  0.00  0.00    +0.000 OA
ATOM     17  H   UNL     1       1.140   8.784  20.532  0.00  0.00    +0.000 HD
BRANCH  15  18
ATOM     18  C   UNL     1       0.717  10.621  18.952  0.00  0.00    +0.000 A 
ATOM     19  C   UNL     1      -0.496  10.836  19.596  0.00  0.00    +0.000 A 
ATOM     20  C   UNL     1      -0.646  12.245  19.715  0.00  0.00    +0.000 A 
ATOM     21  S   UNL     1      -1.795  13.392  20.318  0.00  0.00    +0.000 S 
ATOM     22  C   UNL     1      -0.769  14.677  19.811  0.00  0.00    +0.000 A 
ATOM     23  C   UNL     1       0.414  14.263  19.238  0.00  0.00    +0.000 A 
ATOM     24  C   UNL     1       0.458  12.842  19.186  0.00  0.00    +0.000 A 
ATOM     25  N   UNL     1       1.308  11.854  18.739  0.00  0.00    +0.000 N 
ATOM     26  C   UNL     1       2.568  12.108  18.080  0.00  0.00    +0.000 C 
ENDBRANCH  15  18
ENDBRANCH   5  14
TORSDOF 3
ENDMDL
MODEL 9
REMARK VINA RESULT:      -6.9      2.489      4.711
REMARK  Name = 
REMARK  5 active torsions:
REMARK  status: ('A' for Active; 'I' for Inactive)
REMARK    1  A    between atoms: C_1  and  N_2
REMARK    2  A    between atoms: N_5  and  C_6
REMARK    3  A    between atoms: C_10  and  N_11
REMARK    4  A    between atoms: C_12  and  C_14
REMARK    5  A    between atoms: N_21  and  C_22
REMARK                            x       y       z     vdW  Elec       q    Type
REMARK                         _______ _______ _______ _____ _____    ______ ____
ROOT
ATOM      1  C   UNL     1       3.890   3.898  19.406  0.00  0.00    +0.000 A 
ATOM      2  C   UNL     1       3.553   2.791  20.198  0.00  0.00    +0.000 A 
ATOM      3  C   UNL     1       2.560   2.859  21.172  0.00  0.00    +0.000 A 
ATOM      4  C   UNL     1       1.878   4.049  21.388  0.00  0.00    +0.000 A 
ATOM      5  C   UNL     1       2.183   5.180  20.635  0.00  0.00    +0.000 A 
ATOM      6  C   UNL     1       3.171   5.088  19.638  0.00  0.00    +0.000 A 
ENDROOT
BRANCH   1  11
ATOM      7  C   UNL     1       6.662   5.397  14.899  0.00  0.00    +0.000 C 
ATOM      8  N   UNL     1       6.365   4.569  16.063  0.00  0.00    +0.000 NA
ATOM      9  C   UNL     1       5.005   3.991  15.970  0.00  0.00    +0.000 C 
ATOM     10  C   UNL     1       4.688   3.082  17.178  0.00  0.00    +0.000 C 
ATOM     11  N   UNL     1       4.876   3.812  18.444  0.00  0.00    +0.000 N 
ATOM     12  C   UNL     1       6.170   4.495  18.578  0.00  0.00    +0.000 C 
ATOM     13  C   UNL     1       6.459   5.352  17.317  0.00  0.00    +0.000 C 
ENDBRANCH   1  11
BRANCH   5  14
ATOM     14  N   UNL     1       1.530   6.420  20.822  0.00  0.00    +0.000 N 
ATOM     15  C   UNL     1       1.794   7.605  20.154  0.00  0.00    +0.000 C 
ATOM     16  O   UNL     1       2.573   7.730  19.215  0.00  0.00    +0.000 OA
ATOM     17  H   UNL     1       0.715   6.416  21.421  0.00  0.00    +0.000 HD
BRANCH  15  18
ATOM     18  C   UNL     1       0.986   8.727  20.624  0.00  0.00    +0.000 A 
ATOM     19  C   UNL     1       0.587   9.020  21.923  0.00  0.00    +0.000 A 
ATOM     20  C   UNL     1      -0.196  10.205  21.847  0.00  0.00    +0.000 A 
ATOM     21  S   UNL     1      -1.095  11.248  22.897  0.00  0.00    +0.000 S 
ATOM     22  C   UNL     1      -1.538  12.216  21.546  0.00  0.00    +0.000 A 
ATOM     23  C   UNL     1      -1.003  11.794  20.349  0.00  0.00    +0.000 A 
ATOM     24  C   UNL     1      -0.231  10.615  20.549  0.00  0.00    +0.000 A 
ATOM     25  N   UNL     1       0.510   9.730  19.798  0.00  0.00    +0.000 N 
ATOM     26  C   UNL     1       0.670   9.821  18.365  0.00  0.00    +0.000 C 
ENDBRANCH  15  18
ENDBRANCH   5  14
TORSDOF 3
ENDMDL
