MODEL 1
REMARK VINA RESULT:      -7.5      0.000      0.000
REMARK  Name = 
REMARK  2 active torsions:
REMARK  status: ('A' for Active; 'I' for Inactive)
REMARK    1  A    between atoms: N_3  and  C_4
REMARK    2  A    between atoms: C_9  and  C_10
REMARK                            x       y       z     vdW  Elec       q    Type
REMARK                         _______ _______ _______ _____ _____    ______ ____
ROOT
ATOM      1  C   UNL     1       6.766   4.713  15.221  0.00  0.00    +0.000 A 
ATOM      2  C   UNL     1       7.689   4.870  16.273  0.00  0.00    +0.000 A 
ATOM      3  C   UNL     1       7.351   4.625  17.608  0.00  0.00    +0.000 A 
ATOM      4  C   UNL     1       6.037   4.239  17.855  0.00  0.00    +0.000 A 
ATOM      5  N   UNL     1       5.375   3.940  19.012  0.00  0.00    +0.000 N 
ATOM      6  C   UNL     1       4.063   3.652  18.715  0.00  0.00    +0.000 A 
ATOM      7  N   UNL     1       3.874   3.711  17.408  0.00  0.00    +0.000 NA
ATOM      8  C   UNL     1       5.080   4.092  16.862  0.00  0.00    +0.000 A 
ATOM      9  C   UNL     1       5.444   4.333  15.527  0.00  0.00    +0.000 A 
ATOM     10  H   UNL     1       5.784   3.920  19.934  0.00  0.00    +0.000 HD
ENDROOT
BRANCH   6  11
ATOM     11  C   UNL     1       3.079   3.306  19.738  0.00  0.00    +0.000 A 
ATOM     12  C   UNL     1       1.711   3.546  19.567  0.00  0.00    +0.000 A 
ATOM     13  C   UNL     1       0.811   3.223  20.582  0.00  0.00    +0.000 A 
ATOM     14  C   UNL     1       1.311   2.668  21.747  0.00  0.00    +0.000 A 
ATOM     15  N   UNL     1       2.620   2.414  21.952  0.00  0.00    +0.000 NA
ATOM     16  C   UNL     1       3.471   2.729  20.941  0.00  0.00    +0.000 A 
ENDBRANCH   6  11
BRANCH   1  19
ATOM     17  S   UNL     1       6.101   3.162  12.008  0.00  0.00    +0.000 S 
ATOM     18  C   UNL     1       6.634   4.206  13.091  0.00  0.00    +0.000 C 
ATOM     19  N   UNL     1       7.065   4.979  13.863  0.00  0.00    +0.000 NA
ENDBRANCH   1  19
TORSDOF 2
ENDMDL
MODEL 2
REMARK VINA RESULT:      -7.0      0.775      1.175
REMARK  Name = 
REMARK  2 active torsions:
REMARK  status: ('A' for Active; 'I' for Inactive)
REMARK    1  A    between atoms: N_3  and  C_4
REMARK    2  A    between atoms: C_9  and  C_10
REMARK                            x       y       z     vdW  Elec       q    Type
REMARK                         _______ _______ _______ _____ _____    ______ ____
ROOT
ATOM      1  C   UNL     1       6.666   4.481  14.867  0.00  0.00    +0.000 A 
ATOM      2  C   UNL     1       7.616   4.747  15.872  0.00  0.00    +0.000 A 
ATOM      3  C   UNL     1       7.319   4.627  17.234  0.00  0.00    +0.000 A 
ATOM      4  C   UNL     1       6.017   4.254  17.555  0.00  0.00    +0.000 A 
ATOM      5  N   UNL     1       5.392   4.060  18.753  0.00  0.00    +0.000 N 
ATOM      6  C   UNL     1       4.076   3.732  18.524  0.00  0.00    +0.000 A 
ATOM      7  N   UNL     1       3.850   3.664  17.223  0.00  0.00    +0.000 NA
ATOM      8  C   UNL     1       5.035   4.003  16.608  0.00  0.00    +0.000 A 
ATOM      9  C   UNL     1       5.358   4.119  15.246  0.00  0.00    +0.000 A 
ATOM     10  H   UNL     1       5.826   4.132  19.661  0.00  0.00    +0.000 HD
ENDROOT
BRANCH   6  11
ATOM     11  C   UNL     1       3.126   3.475  19.603  0.00  0.00    +0.000 A 
ATOM     12  C   UNL     1       3.431   2.635  20.680  0.00  0.00    +0.000 A 
ATOM     13  C   UNL     1       2.483   2.398  21.674  0.00  0.00    +0.000 A 
ATOM     14  C   UNL     1       1.248   3.011  21.560  0.00  0.00    +0.000 A 
ATOM     15  N   UNL     1       0.913   3.833  20.543  0.00  0.00    +0.000 NA
ATOM     16  C   UNL     1       1.861   4.053  19.595  0.00  0.00    +0.000 A 
ENDBRANCH   6  11
BRANCH   1  19
ATOM     17  S   UNL     1       5.713   2.772  11.811  0.00  0.00    +0.000 S 
ATOM     18  C   UNL     1       6.388   3.837  12.789  0.00  0.00    +0.000 C 
ATOM     19  N   UNL     1       6.923   4.620  13.482  0.00  0.00    +0.000 NA
ENDBRANCH   1  19
TORSDOF 2
ENDMDL
MODEL 3
REMARK VINA RESULT:      -6.9      3.674      4.033
REMARK  Name = 
REMARK  2 active torsions:
REMARK  status: ('A' for Active; 'I' for Inactive)
REMARK    1  A    between atoms: N_3  and  C_4
REMARK    2  A    between atoms: C_9  and  C_10
REMARK                            x       y       z     vdW  Elec       q    Type
REMARK                         _______ _______ _______ _____ _____    ______ ____
ROOT
ATOM      1  C   UNL     1       7.528   7.555  17.843  0.00  0.00    +0.000 A 
ATOM      2  C   UNL     1       8.155   6.683  18.754  0.00  0.00    +0.000 A 
ATOM      3  C   UNL     1       7.508   5.561  19.283  0.00  0.00    +0.000 A 
ATOM      4  C   UNL     1       6.190   5.359  18.884  0.00  0.00    +0.000 A 
ATOM      5  N   UNL     1       5.275   4.398  19.207  0.00  0.00    +0.000 N 
ATOM      6  C   UNL     1       4.090   4.674  18.567  0.00  0.00    +0.000 A 
ATOM      7  N   UNL     1       4.228   5.750  17.811  0.00  0.00    +0.000 NA
ATOM      8  C   UNL     1       5.515   6.198  18.009  0.00  0.00    +0.000 A 
ATOM      9  C   UNL     1       6.188   7.312  17.482  0.00  0.00    +0.000 A 
ATOM     10  H   UNL     1       5.444   3.605  19.808  0.00  0.00    +0.000 HD
ENDROOT
BRANCH   6  11
ATOM     11  C   UNL     1       2.899   3.843  18.715  0.00  0.00    +0.000 A 
ATOM     12  C   UNL     1       1.995   4.018  19.769  0.00  0.00    +0.000 A 
ATOM     13  C   UNL     1       0.884   3.182  19.886  0.00  0.00    +0.000 A 
ATOM     14  C   UNL     1       0.712   2.187  18.939  0.00  0.00    +0.000 A 
ATOM     15  N   UNL     1       1.554   1.987  17.905  0.00  0.00    +0.000 NA
ATOM     16  C   UNL     1       2.621   2.823  17.811  0.00  0.00    +0.000 A 
ENDBRANCH   6  11
BRANCH   1  19
ATOM     17  S   UNL     1       9.239  10.481  19.138  0.00  0.00    +0.000 S 
ATOM     18  C   UNL     1       8.615   9.442  18.100  0.00  0.00    +0.000 C 
ATOM     19  N   UNL     1       8.142   8.713  17.310  0.00  0.00    +0.000 NA
ENDBRANCH   1  19
TORSDOF 2
ENDMDL
MODEL 4
REMARK VINA RESULT:      -6.8      5.118      7.468
REMARK  Name = 
REMARK  2 active torsions:
REMARK  status: ('A' for Active; 'I' for Inactive)
REMARK    1  A    between atoms: N_3  and  C_4
REMARK    2  A    between atoms: C_9  and  C_10
REMARK                            x       y       z     vdW  Elec       q    Type
REMARK                         _______ _______ _______ _____ _____    ______ ____
ROOT
ATOM      1  C   UNL     1       6.472   5.099  17.219  0.00  0.00    +0.000 A 
ATOM      2  C   UNL     1       7.247   4.711  18.329  0.00  0.00    +0.000 A 
ATOM      3  C   UNL     1       8.034   5.619  19.047  0.00  0.00    +0.000 A 
ATOM      4  C   UNL     1       8.035   6.934  18.591  0.00  0.00    +0.000 A 
ATOM      5  N   UNL     1       8.684   8.053  19.032  0.00  0.00    +0.000 N 
ATOM      6  C   UNL     1       8.375   9.106  18.203  0.00  0.00    +0.000 A 
ATOM      7  N   UNL     1       7.516   8.712  17.277  0.00  0.00    +0.000 NA
ATOM      8  C   UNL     1       7.310   7.367  17.491  0.00  0.00    +0.000 A 
ATOM      9  C   UNL     1       6.519   6.440  16.792  0.00  0.00    +0.000 A 
ATOM     10  H   UNL     1       9.283   8.103  19.842  0.00  0.00    +0.000 HD
ENDROOT
BRANCH   6  11
ATOM     11  C   UNL     1       8.921  10.446  18.391  0.00  0.00    +0.000 A 
ATOM     12  C   UNL     1       8.485  11.542  17.637  0.00  0.00    +0.000 A 
ATOM     13  C   UNL     1       9.054  12.799  17.833  0.00  0.00    +0.000 A 
ATOM     14  C   UNL     1      10.052  12.924  18.784  0.00  0.00    +0.000 A 
ATOM     15  N   UNL     1      10.498  11.898  19.537  0.00  0.00    +0.000 NA
ATOM     16  C   UNL     1       9.917  10.688  19.332  0.00  0.00    +0.000 A 
ENDBRANCH   6  11
BRANCH   1  19
ATOM     17  S   UNL     1       6.283   4.038  13.754  0.00  0.00    +0.000 S 
ATOM     18  C   UNL     1       5.966   4.135  15.315  0.00  0.00    +0.000 C 
ATOM     19  N   UNL     1       5.687   4.203  16.454  0.00  0.00    +0.000 NA
ENDBRANCH   1  19
TORSDOF 2
ENDMDL
MODEL 5
REMARK VINA RESULT:      -6.8      5.201      7.646
REMARK  Name = 
REMARK  2 active torsions:
REMARK  status: ('A' for Active; 'I' for Inactive)
REMARK    1  A    between atoms: N_3  and  C_4
REMARK    2  A    between atoms: C_9  and  C_10
REMARK                            x       y       z     vdW  Elec       q    Type
REMARK                         _______ _______ _______ _____ _____    ______ ____
ROOT
ATOM      1  C   UNL     1       6.109   5.218  17.071  0.00  0.00    +0.000 A 
ATOM      2  C   UNL     1       6.963   4.688  18.058  0.00  0.00    +0.000 A 
ATOM      3  C   UNL     1       7.861   5.486  18.776  0.00  0.00    +0.000 A 
ATOM      4  C   UNL     1       7.891   6.838  18.447  0.00  0.00    +0.000 A 
ATOM      5  N   UNL     1       8.637   7.878  18.924  0.00  0.00    +0.000 N 
ATOM      6  C   UNL     1       8.309   9.020  18.231  0.00  0.00    +0.000 A 
ATOM      7  N   UNL     1       7.348   8.757  17.362  0.00  0.00    +0.000 NA
ATOM      8  C   UNL     1       7.090   7.408  17.468  0.00  0.00    +0.000 A 
ATOM      9  C   UNL     1       6.188   6.591  16.768  0.00  0.00    +0.000 A 
ATOM     10  H   UNL     1       9.312   7.822  19.672  0.00  0.00    +0.000 HD
ENDROOT
BRANCH   6  11
ATOM     11  C   UNL     1       8.942  10.310  18.489  0.00  0.00    +0.000 A 
ATOM     12  C   UNL     1       9.899  10.482  19.496  0.00  0.00    +0.000 A 
ATOM     13  C   UNL     1      10.458  11.739  19.723  0.00  0.00    +0.000 A 
ATOM     14  C   UNL     1      10.038  12.794  18.933  0.00  0.00    +0.000 A 
ATOM     15  N   UNL     1       9.124  12.673  17.949  0.00  0.00    +0.000 NA
ATOM     16  C   UNL     1       8.605  11.434  17.743  0.00  0.00    +0.000 A 
ENDBRANCH   6  11
BRANCH   1  19
ATOM     17  S   UNL     1       3.470   2.814  17.727  0.00  0.00    +0.000 S 
ATOM     18  C   UNL     1       4.469   3.768  16.928  0.00  0.00    +0.000 C 
ATOM     19  N   UNL     1       5.209   4.436  16.307  0.00  0.00    +0.000 NA
ENDBRANCH   1  19
TORSDOF 2
ENDMDL
MODEL 6
REMARK VINA RESULT:      -6.6      3.856      4.432
REMARK  Name = 
REMARK  2 active torsions:
REMARK  status: ('A' for Active; 'I' for Inactive)
REMARK    1  A    between atoms: N_3  and  C_4
REMARK    2  A    between atoms: C_9  and  C_10
REMARK                            x       y       z     vdW  Elec       q    Type
REMARK                         _______ _______ _______ _____ _____    ______ ____
ROOT
ATOM      1  C   UNL     1       5.551   4.596  16.011  0.00  0.00    +0.000 A 
ATOM      2  C   UNL     1       4.784   3.594  16.638  0.00  0.00    +0.000 A 
ATOM      3  C   UNL     1       3.716   3.893  17.492  0.00  0.00    +0.000 A 
ATOM      4  C   UNL     1       3.461   5.242  17.717  0.00  0.00    +0.000 A 
ATOM      5  N   UNL     1       2.529   5.880  18.486  0.00  0.00    +0.000 N 
ATOM      6  C   UNL     1       2.726   7.238  18.394  0.00  0.00    +0.000 A 
ATOM      7  N   UNL     1       3.719   7.493  17.559  0.00  0.00    +0.000 NA
ATOM      8  C   UNL     1       4.198   6.270  17.145  0.00  0.00    +0.000 A 
ATOM      9  C   UNL     1       5.258   5.947  16.283  0.00  0.00    +0.000 A 
ATOM     10  H   UNL     1       1.805   5.429  19.024  0.00  0.00    +0.000 HD
ENDROOT
BRANCH   6  11
ATOM     11  C   UNL     1       1.902   8.206  19.113  0.00  0.00    +0.000 A 
ATOM     12  C   UNL     1       1.605   8.067  20.473  0.00  0.00    +0.000 A 
ATOM     13  C   UNL     1       0.792   9.002  21.112  0.00  0.00    +0.000 A 
ATOM     14  C   UNL     1       0.294  10.055  20.365  0.00  0.00    +0.000 A 
ATOM     15  N   UNL     1       0.559  10.231  19.054  0.00  0.00    +0.000 NA
ATOM     16  C   UNL     1       1.363   9.311  18.461  0.00  0.00    +0.000 A 
ENDBRANCH   6  11
BRANCH   1  19
ATOM     17  S   UNL     1       6.060   3.527  12.580  0.00  0.00    +0.000 S 
ATOM     18  C   UNL     1       6.381   4.006  14.068  0.00  0.00    +0.000 C 
ATOM     19  N   UNL     1       6.654   4.329  15.164  0.00  0.00    +0.000 NA
ENDBRANCH   1  19
TORSDOF 2
ENDMDL
MODEL 7
REMARK VINA RESULT:      -6.6      3.609      3.935
REMARK  Name = 
REMARK  2 active torsions:
REMARK  status: ('A' for Active; 'I' for Inactive)
REMARK    1  A    between atoms: N_3  and  C_4
REMARK    2  A    between atoms: C_9  and  C_10
REMARK                            x       y       z     vdW  Elec       q    Type
REMARK                         _______ _______ _______ _____ _____    ______ ____
ROOT
ATOM      1  C   UNL     1       7.529   7.466  17.815  0.00  0.00    +0.000 A 
ATOM      2  C   UNL     1       8.163   6.635  18.759  0.00  0.00    +0.000 A 
ATOM      3  C   UNL     1       7.521   5.536  19.340  0.00  0.00    +0.000 A 
ATOM      4  C   UNL     1       6.202   5.315  18.957  0.00  0.00    +0.000 A 
ATOM      5  N   UNL     1       5.290   4.366  19.325  0.00  0.00    +0.000 N 
ATOM      6  C   UNL     1       4.101   4.613  18.680  0.00  0.00    +0.000 A 
ATOM      7  N   UNL     1       4.233   5.656  17.878  0.00  0.00    +0.000 NA
ATOM      8  C   UNL     1       5.520   6.114  18.050  0.00  0.00    +0.000 A 
ATOM      9  C   UNL     1       6.188   7.206  17.472  0.00  0.00    +0.000 A 
ATOM     10  H   UNL     1       5.463   3.601  19.959  0.00  0.00    +0.000 HD
ENDROOT
BRANCH   6  11
ATOM     11  C   UNL     1       2.912   3.787  18.870  0.00  0.00    +0.000 A 
ATOM     12  C   UNL     1       2.668   2.644  18.099  0.00  0.00    +0.000 A 
ATOM     13  C   UNL     1       1.506   1.900  18.298  0.00  0.00    +0.000 A 
ATOM     14  C   UNL     1       0.615   2.324  19.268  0.00  0.00    +0.000 A 
ATOM     15  N   UNL     1       0.813   3.414  20.038  0.00  0.00    +0.000 NA
ATOM     16  C   UNL     1       1.959   4.113  19.829  0.00  0.00    +0.000 A 
ENDBRANCH   6  11
BRANCH   1  19
ATOM     17  S   UNL     1       9.127  10.510  18.977  0.00  0.00    +0.000 S 
ATOM     18  C   UNL     1       8.566   9.392  17.987  0.00  0.00    +0.000 C 
ATOM     19  N   UNL     1       8.139   8.602  17.230  0.00  0.00    +0.000 NA
ENDBRANCH   1  19
TORSDOF 2
ENDMDL
MODEL 8
REMARK VINA RESULT:      -6.6      4.634      5.488
REMARK  Name = 
REMARK  2 active torsions:
REMARK  status: ('A' for Active; 'I' for Inactive)
REMARK    1  A    between atoms: N_3  and  C_4
REMARK    2  A    between atoms: C_9  and  C_10
REMARK                            x       y       z     vdW  Elec       q    Type
REMARK                         _______ _______ _______ _____ _____    ______ ____
ROOT
ATOM      1  C   UNL     1       3.871   4.273  17.922  0.00  0.00    +0.000 A 
ATOM      2  C   UNL     1       3.587   3.598  19.125  0.00  0.00    +0.000 A 
ATOM      3  C   UNL     1       2.891   4.203  20.177  0.00  0.00    +0.000 A 
ATOM      4  C   UNL     1       2.510   5.528  19.988  0.00  0.00    +0.000 A 
ATOM      5  N   UNL     1       1.845   6.412  20.790  0.00  0.00    +0.000 N 
ATOM      6  C   UNL     1       1.753   7.622  20.144  0.00  0.00    +0.000 A 
ATOM      7  N   UNL     1       2.293   7.532  18.940  0.00  0.00    +0.000 NA
ATOM      8  C   UNL     1       2.783   6.249  18.834  0.00  0.00    +0.000 A 
ATOM      9  C   UNL     1       3.474   5.618  17.786  0.00  0.00    +0.000 A 
ATOM     10  H   UNL     1       1.471   6.207  21.704  0.00  0.00    +0.000 HD
ENDROOT
BRANCH   6  11
ATOM     11  C   UNL     1       1.110   8.789  20.741  0.00  0.00    +0.000 A 
ATOM     12  C   UNL     1       0.451   9.753  19.969  0.00  0.00    +0.000 A 
ATOM     13  C   UNL     1      -0.126  10.866  20.580  0.00  0.00    +0.000 A 
ATOM     14  C   UNL     1      -0.024  10.983  21.955  0.00  0.00    +0.000 A 
ATOM     15  N   UNL     1       0.596  10.076  22.738  0.00  0.00    +0.000 NA
ATOM     16  C   UNL     1       1.139   8.998  22.116  0.00  0.00    +0.000 A 
ENDBRANCH   6  11
BRANCH   1  19
ATOM     17  S   UNL     1       6.920   5.006  16.097  0.00  0.00    +0.000 S 
ATOM     18  C   UNL     1       5.587   4.259  16.556  0.00  0.00    +0.000 C 
ATOM     19  N   UNL     1       4.597   3.700  16.850  0.00  0.00    +0.000 NA
ENDBRANCH   1  19
TORSDOF 2
ENDMDL
MODEL 9
REMARK VINA RESULT:      -6.5      3.969      7.181
REMARK  Name = 
REMARK  2 active torsions:
REMARK  status: ('A' for Active; 'I' for Inactive)
REMARK    1  A    between atoms: N_3  and  C_4
REMARK    2  A    between atoms: C_9  and  C_10
REMARK                            x       y       z     vdW  Elec       q    Type
REMARK                         _______ _______ _______ _____ _____    ______ ____
ROOT
ATOM      1  C   UNL     1       1.631   6.966  20.537  0.00  0.00    +0.000 A 
ATOM      2  C   UNL     1       1.620   5.586  20.819  0.00  0.00    +0.000 A 
ATOM      3  C   UNL     1       2.390   4.668  20.095  0.00  0.00    +0.000 A 
ATOM      4  C   UNL     1       3.155   5.185  19.054  0.00  0.00    +0.000 A 
ATOM      5  N   UNL     1       3.993   4.590  18.154  0.00  0.00    +0.000 N 
ATOM      6  C   UNL     1       4.481   5.547  17.295  0.00  0.00    +0.000 A 
ATOM      7  N   UNL     1       4.022   6.738  17.642  0.00  0.00    +0.000 NA
ATOM      8  C   UNL     1       3.185   6.530  18.716  0.00  0.00    +0.000 A 
ATOM      9  C   UNL     1       2.413   7.435  19.463  0.00  0.00    +0.000 A 
ATOM     10  H   UNL     1       4.227   3.609  18.130  0.00  0.00    +0.000 HD
ENDROOT
BRANCH   6  11
ATOM     11  C   UNL     1       5.395   5.234  16.201  0.00  0.00    +0.000 A 
ATOM     12  C   UNL     1       5.030   4.395  15.142  0.00  0.00    +0.000 A 
ATOM     13  C   UNL     1       5.947   4.103  14.132  0.00  0.00    +0.000 A 
ATOM     14  C   UNL     1       7.210   4.662  14.213  0.00  0.00    +0.000 A 
ATOM     15  N   UNL     1       7.602   5.480  15.211  0.00  0.00    +0.000 NA
ATOM     16  C   UNL     1       6.685   5.755  16.175  0.00  0.00    +0.000 A 
ENDBRANCH   6  11
BRANCH   1  19
ATOM     17  S   UNL     1       0.671  10.437  20.091  0.00  0.00    +0.000 S 
ATOM     18  C   UNL     1       0.770   8.975  20.722  0.00  0.00    +0.000 C 
ATOM     19  N   UNL     1       0.844   7.918  21.229  0.00  0.00    +0.000 NA
ENDBRANCH   1  19
TORSDOF 2
ENDMDL
