MODEL 1
REMARK VINA RESULT:      -7.4      0.000      0.000
REMARK  Name = 
REMARK  10 active torsions:
REMARK  status: ('A' for Active; 'I' for Inactive)
REMARK    1  A    between atoms: C_1  and  C_2
REMARK    2  A    between atoms: C_2  and  N_3
REMARK    3  A    between atoms: N_7  and  C_8
REMARK    4  A    between atoms: C_8  and  C_9
REMARK    5  A    between atoms: C_11  and  S_12
REMARK    6  A    between atoms: S_12  and  C_13
REMARK    7  A    between atoms: C_13  and  C_14
REMARK    8  A    between atoms: N_16  and  C_17
REMARK    9  A    between atoms: C_22  and  O_23
REMARK   10  A    between atoms: O_23  and  C_24
REMARK                            x       y       z     vdW  Elec       q    Type
REMARK                         _______ _______ _______ _____ _____    ______ ____
ROOT
ATOM      1  N   UNL     1       6.414   4.272  17.064  0.00  0.00    +0.000 N 
ATOM      2  C   UNL     1       5.342   4.900  17.636  0.00  0.00    +0.000 A 
ATOM      3  N   UNL     1       4.647   4.146  18.541  0.00  0.00    +0.000 NA
ATOM      4  C   UNL     1       3.600   4.636  19.157  0.00  0.00    +0.000 A 
ATOM      5  N   UNL     1       2.986   3.728  19.991  0.00  0.00    +0.000 N 
ATOM      6  N   UNL     1       3.207   5.955  18.873  0.00  0.00    +0.000 N 
ATOM      7  C   UNL     1       2.230   6.852  19.269  0.00  0.00    +0.000 A 
ATOM      8  N   UNL     1       2.319   7.959  18.566  0.00  0.00    +0.000 NA
ATOM      9  N   UNL     1       3.392   7.838  17.728  0.00  0.00    +0.000 NA
ATOM     10  C   UNL     1       3.930   6.649  17.916  0.00  0.00    +0.000 A 
ATOM     11  N   UNL     1       5.010   6.111  17.309  0.00  0.00    +0.000 NA
ATOM     12  H   UNL     1       6.423   3.283  17.284  0.00  0.00    +0.000 HD
ATOM     13  H   UNL     1       3.490   2.846  19.979  0.00  0.00    +0.000 HD
ENDROOT
BRANCH   1  15
ATOM     14  C   UNL     1       6.057   3.805  14.690  0.00  0.00    +0.000 C 
ATOM     15  C   UNL     1       6.838   4.609  15.716  0.00  0.00    +0.000 C 
ENDBRANCH   1  15
BRANCH   5  16
ATOM     16  C   UNL     1       2.259   3.967  21.209  0.00  0.00    +0.000 C 
ATOM     17  C   UNL     1       1.356   2.808  21.581  0.00  0.00    +0.000 C 
ENDBRANCH   5  16
BRANCH   7  18
ATOM     18  S   UNL     1       1.210   6.777  20.660  0.00  0.00    +0.000 S 
BRANCH  18  19
ATOM     19  C   UNL     1       1.583   8.280  21.576  0.00  0.00    +0.000 C 
BRANCH  19  20
ATOM     20  C   UNL     1       0.676   9.473  21.295  0.00  0.00    +0.000 C 
ATOM     21  O   UNL     1      -0.293   9.783  21.978  0.00  0.00    +0.000 OA
ATOM     22  N   UNL     1       1.121  10.167  20.171  0.00  0.00    +0.000 N 
ATOM     23  H   UNL     1       1.726   9.653  19.544  0.00  0.00    +0.000 HD
BRANCH  22  24
ATOM     24  C   UNL     1       0.574  11.364  19.669  0.00  0.00    +0.000 A 
ATOM     25  C   UNL     1       1.367  12.526  19.705  0.00  0.00    +0.000 A 
ATOM     26  C   UNL     1       0.939  13.711  19.100  0.00  0.00    +0.000 A 
ATOM     27  C   UNL     1      -0.306  13.766  18.489  0.00  0.00    +0.000 A 
ATOM     28  C   UNL     1      -1.113  12.630  18.476  0.00  0.00    +0.000 A 
ATOM     29  C   UNL     1      -0.683  11.412  19.035  0.00  0.00    +0.000 A 
BRANCH  29  30
ATOM     30  O   UNL     1      -1.651  10.454  18.918  0.00  0.00    +0.000 OA
BRANCH  30  31
ATOM     31  C   UNL     1      -2.175  10.062  17.668  0.00  0.00    +0.000 C 
ATOM     32  F   UNL     1      -1.214   9.424  16.950  0.00  0.00    +0.000 F 
ATOM     33  F   UNL     1      -3.191   9.186  17.840  0.00  0.00    +0.000 F 
ENDBRANCH  30  31
ENDBRANCH  29  30
ENDBRANCH  22  24
ENDBRANCH  19  20
ENDBRANCH  18  19
ENDBRANCH   7  18
TORSDOF 8
ENDMDL
MODEL 2
REMARK VINA RESULT:      -7.1      1.627      1.903
REMARK  Name = 
REMARK  10 active torsions:
REMARK  status: ('A' for Active; 'I' for Inactive)
REMARK    1  A    between atoms: C_1  and  C_2
REMARK    2  A    between atoms: C_2  and  N_3
REMARK    3  A    between atoms: N_7  and  C_8
REMARK    4  A    between atoms: C_8  and  C_9
REMARK    5  A    between atoms: C_11  and  S_12
REMARK    6  A    between atoms: S_12  and  C_13
REMARK    7  A    between atoms: C_13  and  C_14
REMARK    8  A    between atoms: N_16  and  C_17
REMARK    9  A    between atoms: C_22  and  O_23
REMARK   10  A    between atoms: O_23  and  C_24
REMARK                            x       y       z     vdW  Elec       q    Type
REMARK                         _______ _______ _______ _____ _____    ______ ____
ROOT
ATOM      1  N   UNL     1       6.692   4.125  17.068  0.00  0.00    +0.000 N 
ATOM      2  C   UNL     1       5.606   4.727  17.642  0.00  0.00    +0.000 A 
ATOM      3  N   UNL     1       4.964   3.978  18.588  0.00  0.00    +0.000 NA
ATOM      4  C   UNL     1       3.910   4.446  19.210  0.00  0.00    +0.000 A 
ATOM      5  N   UNL     1       3.353   3.544  20.088  0.00  0.00    +0.000 N 
ATOM      6  N   UNL     1       3.454   5.735  18.888  0.00  0.00    +0.000 N 
ATOM      7  C   UNL     1       2.449   6.604  19.273  0.00  0.00    +0.000 A 
ATOM      8  N   UNL     1       2.475   7.688  18.530  0.00  0.00    +0.000 NA
ATOM      9  N   UNL     1       3.535   7.582  17.673  0.00  0.00    +0.000 NA
ATOM     10  C   UNL     1       4.127   6.425  17.890  0.00  0.00    +0.000 A 
ATOM     11  N   UNL     1       5.216   5.911  17.279  0.00  0.00    +0.000 NA
ATOM     12  H   UNL     1       6.749   3.146  17.323  0.00  0.00    +0.000 HD
ATOM     13  H   UNL     1       3.894   2.684  20.097  0.00  0.00    +0.000 HD
ENDROOT
BRANCH   1  15
ATOM     14  C   UNL     1       6.047   3.885  14.722  0.00  0.00    +0.000 C 
ATOM     15  C   UNL     1       7.074   4.430  15.701  0.00  0.00    +0.000 C 
ENDBRANCH   1  15
BRANCH   5  16
ATOM     16  C   UNL     1       2.642   3.796  21.313  0.00  0.00    +0.000 C 
ATOM     17  C   UNL     1       1.567   2.762  21.583  0.00  0.00    +0.000 C 
ENDBRANCH   5  16
BRANCH   7  18
ATOM     18  S   UNL     1       1.462   6.537  20.689  0.00  0.00    +0.000 S 
BRANCH  18  19
ATOM     19  C   UNL     1       1.452   8.224  21.314  0.00  0.00    +0.000 C 
BRANCH  19  20
ATOM     20  C   UNL     1       0.076   8.849  21.520  0.00  0.00    +0.000 C 
ATOM     21  O   UNL     1      -0.932   8.221  21.820  0.00  0.00    +0.000 OA
ATOM     22  N   UNL     1       0.139  10.230  21.344  0.00  0.00    +0.000 N 
ATOM     23  H   UNL     1       0.933  10.574  20.821  0.00  0.00    +0.000 HD
BRANCH  22  24
ATOM     24  C   UNL     1      -0.922  11.137  21.536  0.00  0.00    +0.000 A 
ATOM     25  C   UNL     1      -1.423  11.312  22.839  0.00  0.00    +0.000 A 
ATOM     26  C   UNL     1      -2.378  12.292  23.121  0.00  0.00    +0.000 A 
ATOM     27  C   UNL     1      -2.879  13.084  22.097  0.00  0.00    +0.000 A 
ATOM     28  C   UNL     1      -2.414  12.898  20.796  0.00  0.00    +0.000 A 
ATOM     29  C   UNL     1      -1.417  11.950  20.498  0.00  0.00    +0.000 A 
BRANCH  29  30
ATOM     30  O   UNL     1      -1.142  11.938  19.159  0.00  0.00    +0.000 OA
BRANCH  30  31
ATOM     31  C   UNL     1      -1.301  10.781  18.367  0.00  0.00    +0.000 C 
ATOM     32  F   UNL     1      -2.378  10.077  18.800  0.00  0.00    +0.000 F 
ATOM     33  F   UNL     1      -1.540  11.124  17.080  0.00  0.00    +0.000 F 
ENDBRANCH  30  31
ENDBRANCH  29  30
ENDBRANCH  22  24
ENDBRANCH  19  20
ENDBRANCH  18  19
ENDBRANCH   7  18
TORSDOF 8
ENDMDL
MODEL 3
REMARK VINA RESULT:      -7.1      2.189      2.654
REMARK  Name = 
REMARK  10 active torsions:
REMARK  status: ('A' for Active; 'I' for Inactive)
REMARK    1  A    between atoms: C_1  and  C_2
REMARK    2  A    between atoms: C_2  and  N_3
REMARK    3  A    between atoms: N_7  and  C_8
REMARK    4  A    between atoms: C_8  and  C_9
REMARK    5  A    between atoms: C_11  and  S_12
REMARK    6  A    between atoms: S_12  and  C_13
REMARK    7  A    between atoms: C_13  and  C_14
REMARK    8  A    between atoms: N_16  and  C_17
REMARK    9  A    between atoms: C_22  and  O_23
REMARK   10  A    between atoms: O_23  and  C_24
REMARK                            x       y       z     vdW  Elec       q    Type
REMARK                         _______ _______ _______ _____ _____    ______ ____
ROOT
ATOM      1  N   UNL     1       6.205   4.308  16.032  0.00  0.00    +0.000 N 
ATOM      2  C   UNL     1       5.264   4.900  16.829  0.00  0.00    +0.000 A 
ATOM      3  N   UNL     1       4.687   4.073  17.752  0.00  0.00    +0.000 NA
ATOM      4  C   UNL     1       3.772   4.523  18.575  0.00  0.00    +0.000 A 
ATOM      5  N   UNL     1       3.257   3.548  19.399  0.00  0.00    +0.000 N 
ATOM      6  N   UNL     1       3.397   5.874  18.492  0.00  0.00    +0.000 N 
ATOM      7  C   UNL     1       2.535   6.750  19.128  0.00  0.00    +0.000 A 
ATOM      8  N   UNL     1       2.562   7.923  18.535  0.00  0.00    +0.000 NA
ATOM      9  N   UNL     1       3.484   7.863  17.529  0.00  0.00    +0.000 NA
ATOM     10  C   UNL     1       3.992   6.647  17.506  0.00  0.00    +0.000 A 
ATOM     11  N   UNL     1       4.939   6.147  16.683  0.00  0.00    +0.000 NA
ATOM     12  H   UNL     1       6.206   3.301  16.146  0.00  0.00    +0.000 HD
ATOM     13  H   UNL     1       3.713   2.658  19.218  0.00  0.00    +0.000 HD
ENDROOT
BRANCH   1  15
ATOM     14  C   UNL     1       5.945   3.747  13.666  0.00  0.00    +0.000 C 
ATOM     15  C   UNL     1       6.429   4.775  14.675  0.00  0.00    +0.000 C 
ENDBRANCH   1  15
BRANCH   5  16
ATOM     16  C   UNL     1       2.740   3.674  20.735  0.00  0.00    +0.000 C 
ATOM     17  C   UNL     1       2.612   2.337  21.437  0.00  0.00    +0.000 C 
ENDBRANCH   5  16
BRANCH   7  18
ATOM     18  S   UNL     1       1.742   6.554  20.649  0.00  0.00    +0.000 S 
BRANCH  18  19
ATOM     19  C   UNL     1       1.546   8.230  21.275  0.00  0.00    +0.000 C 
BRANCH  19  20
ATOM     20  C   UNL     1       0.167   8.853  21.085  0.00  0.00    +0.000 C 
ATOM     21  O   UNL     1      -0.812   8.593  21.775  0.00  0.00    +0.000 OA
ATOM     22  N   UNL     1       0.190   9.773  20.039  0.00  0.00    +0.000 N 
ATOM     23  H   UNL     1       0.952   9.674  19.380  0.00  0.00    +0.000 HD
BRANCH  22  24
ATOM     24  C   UNL     1      -0.881  10.594  19.636  0.00  0.00    +0.000 A 
ATOM     25  C   UNL     1      -1.579  10.255  18.462  0.00  0.00    +0.000 A 
ATOM     26  C   UNL     1      -2.732  10.945  18.082  0.00  0.00    +0.000 A 
ATOM     27  C   UNL     1      -3.182  12.014  18.844  0.00  0.00    +0.000 A 
ATOM     28  C   UNL     1      -2.480  12.381  19.991  0.00  0.00    +0.000 A 
ATOM     29  C   UNL     1      -1.344  11.669  20.420  0.00  0.00    +0.000 A 
BRANCH  29  30
ATOM     30  O   UNL     1      -0.820  12.227  21.553  0.00  0.00    +0.000 OA
BRANCH  30  31
ATOM     31  C   UNL     1      -1.499  12.199  22.790  0.00  0.00    +0.000 C 
ATOM     32  F   UNL     1      -1.259  11.018  23.416  0.00  0.00    +0.000 F 
ATOM     33  F   UNL     1      -1.037  13.180  23.599  0.00  0.00    +0.000 F 
ENDBRANCH  30  31
ENDBRANCH  29  30
ENDBRANCH  22  24
ENDBRANCH  19  20
ENDBRANCH  18  19
ENDBRANCH   7  18
TORSDOF 8
ENDMDL
MODEL 4
REMARK VINA RESULT:      -7.0      1.672      2.410
REMARK  Name = 
REMARK  10 active torsions:
REMARK  status: ('A' for Active; 'I' for Inactive)
REMARK    1  A    between atoms: C_1  and  C_2
REMARK    2  A    between atoms: C_2  and  N_3
REMARK    3  A    between atoms: N_7  and  C_8
REMARK    4  A    between atoms: C_8  and  C_9
REMARK    5  A    between atoms: C_11  and  S_12
REMARK    6  A    between atoms: S_12  and  C_13
REMARK    7  A    between atoms: C_13  and  C_14
REMARK    8  A    between atoms: N_16  and  C_17
REMARK    9  A    between atoms: C_22  and  O_23
REMARK   10  A    between atoms: O_23  and  C_24
REMARK                            x       y       z     vdW  Elec       q    Type
REMARK                         _______ _______ _______ _____ _____    ______ ____
ROOT
ATOM      1  N   UNL     1       5.876   3.532  16.342  0.00  0.00    +0.000 N 
ATOM      2  C   UNL     1       5.010   4.283  17.088  0.00  0.00    +0.000 A 
ATOM      3  N   UNL     1       4.363   3.601  18.080  0.00  0.00    +0.000 NA
ATOM      4  C   UNL     1       3.508   4.211  18.864  0.00  0.00    +0.000 A 
ATOM      5  N   UNL     1       2.905   3.367  19.770  0.00  0.00    +0.000 N 
ATOM      6  N   UNL     1       3.273   5.582  18.668  0.00  0.00    +0.000 N 
ATOM      7  C   UNL     1       2.512   6.592  19.229  0.00  0.00    +0.000 A 
ATOM      8  N   UNL     1       2.652   7.702  18.539  0.00  0.00    +0.000 NA
ATOM      9  N   UNL     1       3.551   7.462  17.538  0.00  0.00    +0.000 NA
ATOM     10  C   UNL     1       3.931   6.203  17.618  0.00  0.00    +0.000 A 
ATOM     11  N   UNL     1       4.813   5.541  16.838  0.00  0.00    +0.000 NA
ATOM     12  H   UNL     1       5.775   2.544  16.541  0.00  0.00    +0.000 HD
ATOM     13  H   UNL     1       3.266   2.423  19.664  0.00  0.00    +0.000 HD
ENDROOT
BRANCH   1  15
ATOM     14  C   UNL     1       7.300   4.820  14.827  0.00  0.00    +0.000 C 
ATOM     15  C   UNL     1       6.130   3.858  14.949  0.00  0.00    +0.000 C 
ENDBRANCH   1  15
BRANCH   5  16
ATOM     16  C   UNL     1       2.421   3.659  21.093  0.00  0.00    +0.000 C 
ATOM     17  C   UNL     1       1.343   2.693  21.542  0.00  0.00    +0.000 C 
ENDBRANCH   5  16
BRANCH   7  18
ATOM     18  S   UNL     1       1.722   6.608  20.764  0.00  0.00    +0.000 S 
BRANCH  18  19
ATOM     19  C   UNL     1       1.680   8.345  21.233  0.00  0.00    +0.000 C 
BRANCH  19  20
ATOM     20  C   UNL     1       0.466   9.134  20.756  0.00  0.00    +0.000 C 
ATOM     21  O   UNL     1      -0.502   9.409  21.457  0.00  0.00    +0.000 OA
ATOM     22  N   UNL     1       0.626   9.515  19.425  0.00  0.00    +0.000 N 
ATOM     23  H   UNL     1       1.303   8.985  18.892  0.00  0.00    +0.000 HD
BRANCH  22  24
ATOM     24  C   UNL     1      -0.259  10.322  18.683  0.00  0.00    +0.000 A 
ATOM     25  C   UNL     1      -1.130   9.695  17.772  0.00  0.00    +0.000 A 
ATOM     26  C   UNL     1      -2.123  10.419  17.107  0.00  0.00    +0.000 A 
ATOM     27  C   UNL     1      -2.233  11.788  17.308  0.00  0.00    +0.000 A 
ATOM     28  C   UNL     1      -1.355  12.425  18.183  0.00  0.00    +0.000 A 
ATOM     29  C   UNL     1      -0.379  11.708  18.901  0.00  0.00    +0.000 A 
BRANCH  29  30
ATOM     30  O   UNL     1       0.370  12.549  19.676  0.00  0.00    +0.000 OA
BRANCH  30  31
ATOM     31  C   UNL     1       1.631  13.030  19.264  0.00  0.00    +0.000 C 
ATOM     32  F   UNL     1       1.877  12.630  17.989  0.00  0.00    +0.000 F 
ATOM     33  F   UNL     1       1.640  14.383  19.266  0.00  0.00    +0.000 F 
ENDBRANCH  30  31
ENDBRANCH  29  30
ENDBRANCH  22  24
ENDBRANCH  19  20
ENDBRANCH  18  19
ENDBRANCH   7  18
TORSDOF 8
ENDMDL
MODEL 5
REMARK VINA RESULT:      -7.0      2.036      2.592
REMARK  Name = 
REMARK  10 active torsions:
REMARK  status: ('A' for Active; 'I' for Inactive)
REMARK    1  A    between atoms: C_1  and  C_2
REMARK    2  A    between atoms: C_2  and  N_3
REMARK    3  A    between atoms: N_7  and  C_8
REMARK    4  A    between atoms: C_8  and  C_9
REMARK    5  A    between atoms: C_11  and  S_12
REMARK    6  A    between atoms: S_12  and  C_13
REMARK    7  A    between atoms: C_13  and  C_14
REMARK    8  A    between atoms: N_16  and  C_17
REMARK    9  A    between atoms: C_22  and  O_23
REMARK   10  A    between atoms: O_23  and  C_24
REMARK                            x       y       z     vdW  Elec       q    Type
REMARK                         _______ _______ _______ _____ _____    ______ ____
ROOT
ATOM      1  N   UNL     1       6.041   3.458  15.603  0.00  0.00    +0.000 N 
ATOM      2  C   UNL     1       5.178   4.140  16.416  0.00  0.00    +0.000 A 
ATOM      3  N   UNL     1       4.349   3.353  17.166  0.00  0.00    +0.000 NA
ATOM      4  C   UNL     1       3.477   3.888  17.985  0.00  0.00    +0.000 A 
ATOM      5  N   UNL     1       2.686   2.957  18.619  0.00  0.00    +0.000 N 
ATOM      6  N   UNL     1       3.414   5.288  18.079  0.00  0.00    +0.000 N 
ATOM      7  C   UNL     1       2.704   6.247  18.781  0.00  0.00    +0.000 A 
ATOM      8  N   UNL     1       3.040   7.450  18.373  0.00  0.00    +0.000 NA
ATOM      9  N   UNL     1       4.021   7.313  17.431  0.00  0.00    +0.000 NA
ATOM     10  C   UNL     1       4.254   6.027  17.261  0.00  0.00    +0.000 A 
ATOM     11  N   UNL     1       5.146   5.437  16.436  0.00  0.00    +0.000 NA
ATOM     12  H   UNL     1       5.813   2.472  15.566  0.00  0.00    +0.000 HD
ATOM     13  H   UNL     1       2.955   2.019  18.338  0.00  0.00    +0.000 HD
ENDROOT
BRANCH   1  15
ATOM     14  C   UNL     1       5.577   3.619  13.207  0.00  0.00    +0.000 C 
ATOM     15  C   UNL     1       6.491   4.035  14.348  0.00  0.00    +0.000 C 
ENDBRANCH   1  15
BRANCH   5  16
ATOM     16  C   UNL     1       2.082   3.023  19.923  0.00  0.00    +0.000 C 
ATOM     17  C   UNL     1       3.028   2.585  21.023  0.00  0.00    +0.000 C 
ENDBRANCH   5  16
BRANCH   7  18
ATOM     18  S   UNL     1       1.744   6.040  20.201  0.00  0.00    +0.000 S 
BRANCH  18  19
ATOM     19  C   UNL     1       1.817   7.634  21.033  0.00  0.00    +0.000 C 
BRANCH  19  20
ATOM     20  C   UNL     1       0.631   8.563  20.798  0.00  0.00    +0.000 C 
ATOM     21  O   UNL     1      -0.349   8.634  21.530  0.00  0.00    +0.000 OA
ATOM     22  N   UNL     1       0.833   9.329  19.652  0.00  0.00    +0.000 N 
ATOM     23  H   UNL     1       1.515   8.972  18.995  0.00  0.00    +0.000 HD
BRANCH  22  24
ATOM     24  C   UNL     1      -0.017  10.348  19.177  0.00  0.00    +0.000 A 
ATOM     25  C   UNL     1      -0.896  10.045  18.121  0.00  0.00    +0.000 A 
ATOM     26  C   UNL     1      -1.857  10.965  17.695  0.00  0.00    +0.000 A 
ATOM     27  C   UNL     1      -1.926  12.218  18.288  0.00  0.00    +0.000 A 
ATOM     28  C   UNL     1      -1.039  12.541  19.313  0.00  0.00    +0.000 A 
ATOM     29  C   UNL     1      -0.095  11.613  19.791  0.00  0.00    +0.000 A 
BRANCH  29  30
ATOM     30  O   UNL     1       0.671  12.164  20.780  0.00  0.00    +0.000 OA
BRANCH  30  31
ATOM     31  C   UNL     1       1.885  12.831  20.509  0.00  0.00    +0.000 C 
ATOM     32  F   UNL     1       2.250  12.608  19.220  0.00  0.00    +0.000 F 
ATOM     33  F   UNL     1       1.727  14.167  20.653  0.00  0.00    +0.000 F 
ENDBRANCH  30  31
ENDBRANCH  29  30
ENDBRANCH  22  24
ENDBRANCH  19  20
ENDBRANCH  18  19
ENDBRANCH   7  18
TORSDOF 8
ENDMDL
MODEL 6
REMARK VINA RESULT:      -6.9      4.007      9.427
REMARK  Name = 
REMARK  10 active torsions:
REMARK  status: ('A' for Active; 'I' for Inactive)
REMARK    1  A    between atoms: C_1  and  C_2
REMARK    2  A    between atoms: C_2  and  N_3
REMARK    3  A    between atoms: N_7  and  C_8
REMARK    4  A    between atoms: C_8  and  C_9
REMARK    5  A    between atoms: C_11  and  S_12
REMARK    6  A    between atoms: S_12  and  C_13
REMARK    7  A    between atoms: C_13  and  C_14
REMARK    8  A    between atoms: N_16  and  C_17
REMARK    9  A    between atoms: C_22  and  O_23
REMARK   10  A    between atoms: O_23  and  C_24
REMARK                            x       y       z     vdW  Elec       q    Type
REMARK                         _______ _______ _______ _____ _____    ______ ____
ROOT
ATOM      1  N   UNL     1      -4.392  14.327  22.220  0.00  0.00    +0.000 N 
ATOM      2  C   UNL     1      -3.364  13.548  21.764  0.00  0.00    +0.000 A 
ATOM      3  N   UNL     1      -3.505  13.103  20.478  0.00  0.00    +0.000 NA
ATOM      4  C   UNL     1      -2.585  12.350  19.926  0.00  0.00    +0.000 A 
ATOM      5  N   UNL     1      -2.910  11.945  18.651  0.00  0.00    +0.000 N 
ATOM      6  N   UNL     1      -1.450  12.010  20.681  0.00  0.00    +0.000 N 
ATOM      7  C   UNL     1      -0.278  11.292  20.521  0.00  0.00    +0.000 A 
ATOM      8  N   UNL     1       0.392  11.259  21.652  0.00  0.00    +0.000 NA
ATOM      9  N   UNL     1      -0.298  12.002  22.568  0.00  0.00    +0.000 NA
ATOM     10  C   UNL     1      -1.390  12.460  21.991  0.00  0.00    +0.000 A 
ATOM     11  N   UNL     1      -2.355  13.244  22.520  0.00  0.00    +0.000 NA
ATOM     12  H   UNL     1      -5.178  14.313  21.581  0.00  0.00    +0.000 HD
ATOM     13  H   UNL     1      -3.806  12.337  18.376  0.00  0.00    +0.000 HD
ENDROOT
BRANCH   1  15
ATOM     14  C   UNL     1      -5.771  13.264  23.938  0.00  0.00    +0.000 C 
ATOM     15  C   UNL     1      -4.743  14.340  23.630  0.00  0.00    +0.000 C 
ENDBRANCH   1  15
BRANCH   5  16
ATOM     16  C   UNL     1      -2.037  11.658  17.544  0.00  0.00    +0.000 C 
ATOM     17  C   UNL     1      -2.772  11.049  16.368  0.00  0.00    +0.000 C 
ENDBRANCH   5  16
BRANCH   7  18
ATOM     18  S   UNL     1       0.454  10.753  19.053  0.00  0.00    +0.000 S 
BRANCH  18  19
ATOM     19  C   UNL     1       1.328   9.248  19.510  0.00  0.00    +0.000 C 
BRANCH  19  20
ATOM     20  C   UNL     1       2.058   8.533  18.378  0.00  0.00    +0.000 C 
ATOM     21  O   UNL     1       2.158   8.966  17.235  0.00  0.00    +0.000 OA
ATOM     22  N   UNL     1       2.611   7.338  18.834  0.00  0.00    +0.000 N 
ATOM     23  H   UNL     1       2.213   6.963  19.686  0.00  0.00    +0.000 HD
BRANCH  22  24
ATOM     24  C   UNL     1       3.420   6.462  18.085  0.00  0.00    +0.000 A 
ATOM     25  C   UNL     1       4.388   7.016  17.227  0.00  0.00    +0.000 A 
ATOM     26  C   UNL     1       5.312   6.206  16.562  0.00  0.00    +0.000 A 
ATOM     27  C   UNL     1       5.255   4.827  16.708  0.00  0.00    +0.000 A 
ATOM     28  C   UNL     1       4.280   4.265  17.530  0.00  0.00    +0.000 A 
ATOM     29  C   UNL     1       3.370   5.063  18.248  0.00  0.00    +0.000 A 
BRANCH  29  30
ATOM     30  O   UNL     1       2.502   4.288  18.965  0.00  0.00    +0.000 OA
BRANCH  30  31
ATOM     31  C   UNL     1       1.307   3.784  18.409  0.00  0.00    +0.000 C 
ATOM     32  F   UNL     1       0.961   4.524  17.324  0.00  0.00    +0.000 F 
ATOM     33  F   UNL     1       1.489   2.513  17.983  0.00  0.00    +0.000 F 
ENDBRANCH  30  31
ENDBRANCH  29  30
ENDBRANCH  22  24
ENDBRANCH  19  20
ENDBRANCH  18  19
ENDBRANCH   7  18
TORSDOF 8
ENDMDL
MODEL 7
REMARK VINA RESULT:      -6.9      2.045      2.448
REMARK  Name = 
REMARK  10 active torsions:
REMARK  status: ('A' for Active; 'I' for Inactive)
REMARK    1  A    between atoms: C_1  and  C_2
REMARK    2  A    between atoms: C_2  and  N_3
REMARK    3  A    between atoms: N_7  and  C_8
REMARK    4  A    between atoms: C_8  and  C_9
REMARK    5  A    between atoms: C_11  and  S_12
REMARK    6  A    between atoms: S_12  and  C_13
REMARK    7  A    between atoms: C_13  and  C_14
REMARK    8  A    between atoms: N_16  and  C_17
REMARK    9  A    between atoms: C_22  and  O_23
REMARK   10  A    between atoms: O_23  and  C_24
REMARK                            x       y       z     vdW  Elec       q    Type
REMARK                         _______ _______ _______ _____ _____    ______ ____
ROOT
ATOM      1  N   UNL     1       6.217   4.314  15.997  0.00  0.00    +0.000 N 
ATOM      2  C   UNL     1       5.260   4.896  16.782  0.00  0.00    +0.000 A 
ATOM      3  N   UNL     1       4.657   4.054  17.675  0.00  0.00    +0.000 NA
ATOM      4  C   UNL     1       3.725   4.492  18.484  0.00  0.00    +0.000 A 
ATOM      5  N   UNL     1       3.185   3.504  19.276  0.00  0.00    +0.000 N 
ATOM      6  N   UNL     1       3.359   5.847  18.419  0.00  0.00    +0.000 N 
ATOM      7  C   UNL     1       2.486   6.715  19.051  0.00  0.00    +0.000 A 
ATOM      8  N   UNL     1       2.532   7.900  18.482  0.00  0.00    +0.000 NA
ATOM      9  N   UNL     1       3.478   7.854  17.497  0.00  0.00    +0.000 NA
ATOM     10  C   UNL     1       3.980   6.636  17.463  0.00  0.00    +0.000 A 
ATOM     11  N   UNL     1       4.945   6.148  16.653  0.00  0.00    +0.000 NA
ATOM     12  H   UNL     1       6.210   3.306  16.091  0.00  0.00    +0.000 HD
ATOM     13  H   UNL     1       3.641   2.616  19.089  0.00  0.00    +0.000 HD
ENDROOT
BRANCH   1  15
ATOM     14  C   UNL     1       6.018   3.797  13.614  0.00  0.00    +0.000 C 
ATOM     15  C   UNL     1       6.476   4.807  14.655  0.00  0.00    +0.000 C 
ENDBRANCH   1  15
BRANCH   5  16
ATOM     16  C   UNL     1       2.637   3.608  20.602  0.00  0.00    +0.000 C 
ATOM     17  C   UNL     1       1.370   2.793  20.772  0.00  0.00    +0.000 C 
ENDBRANCH   5  16
BRANCH   7  18
ATOM     18  S   UNL     1       1.656   6.494  20.549  0.00  0.00    +0.000 S 
BRANCH  18  19
ATOM     19  C   UNL     1       1.594   8.137  21.279  0.00  0.00    +0.000 C 
BRANCH  19  20
ATOM     20  C   UNL     1       0.201   8.712  21.507  0.00  0.00    +0.000 C 
ATOM     21  O   UNL     1      -0.806   8.038  21.693  0.00  0.00    +0.000 OA
ATOM     22  N   UNL     1       0.242  10.105  21.498  0.00  0.00    +0.000 N 
ATOM     23  H   UNL     1       1.048  10.521  21.048  0.00  0.00    +0.000 HD
BRANCH  22  24
ATOM     24  C   UNL     1      -0.842  10.967  21.756  0.00  0.00    +0.000 A 
ATOM     25  C   UNL     1      -1.347  11.029  23.068  0.00  0.00    +0.000 A 
ATOM     26  C   UNL     1      -2.327  11.960  23.422  0.00  0.00    +0.000 A 
ATOM     27  C   UNL     1      -2.850  12.814  22.460  0.00  0.00    +0.000 A 
ATOM     28  C   UNL     1      -2.380  12.739  21.150  0.00  0.00    +0.000 A 
ATOM     29  C   UNL     1      -1.359  11.843  20.782  0.00  0.00    +0.000 A 
BRANCH  29  30
ATOM     30  O   UNL     1      -1.083  11.941  19.446  0.00  0.00    +0.000 OA
BRANCH  30  31
ATOM     31  C   UNL     1      -0.012  12.717  18.953  0.00  0.00    +0.000 C 
ATOM     32  F   UNL     1       0.616  13.335  19.986  0.00  0.00    +0.000 F 
ATOM     33  F   UNL     1       0.901  11.923  18.348  0.00  0.00    +0.000 F 
ENDBRANCH  30  31
ENDBRANCH  29  30
ENDBRANCH  22  24
ENDBRANCH  19  20
ENDBRANCH  18  19
ENDBRANCH   7  18
TORSDOF 8
ENDMDL
MODEL 8
REMARK VINA RESULT:      -6.9      3.751      6.066
REMARK  Name = 
REMARK  10 active torsions:
REMARK  status: ('A' for Active; 'I' for Inactive)
REMARK    1  A    between atoms: C_1  and  C_2
REMARK    2  A    between atoms: C_2  and  N_3
REMARK    3  A    between atoms: N_7  and  C_8
REMARK    4  A    between atoms: C_8  and  C_9
REMARK    5  A    between atoms: C_11  and  S_12
REMARK    6  A    between atoms: S_12  and  C_13
REMARK    7  A    between atoms: C_13  and  C_14
REMARK    8  A    between atoms: N_16  and  C_17
REMARK    9  A    between atoms: C_22  and  O_23
REMARK   10  A    between atoms: O_23  and  C_24
REMARK                            x       y       z     vdW  Elec       q    Type
REMARK                         _______ _______ _______ _____ _____    ______ ____
ROOT
ATOM      1  N   UNL     1       8.481   8.443  17.568  0.00  0.00    +0.000 N 
ATOM      2  C   UNL     1       7.679   7.339  17.668  0.00  0.00    +0.000 A 
ATOM      3  N   UNL     1       7.126   6.919  16.490  0.00  0.00    +0.000 NA
ATOM      4  C   UNL     1       6.341   5.871  16.455  0.00  0.00    +0.000 A 
ATOM      5  N   UNL     1       5.826   5.620  15.203  0.00  0.00    +0.000 N 
ATOM      6  N   UNL     1       6.080   5.184  17.653  0.00  0.00    +0.000 N 
ATOM      7  C   UNL     1       5.366   4.077  18.077  0.00  0.00    +0.000 A 
ATOM      8  N   UNL     1       5.437   3.965  19.385  0.00  0.00    +0.000 NA
ATOM      9  N   UNL     1       6.245   4.965  19.847  0.00  0.00    +0.000 NA
ATOM     10  C   UNL     1       6.639   5.687  18.817  0.00  0.00    +0.000 A 
ATOM     11  N   UNL     1       7.452   6.765  18.810  0.00  0.00    +0.000 NA
ATOM     12  H   UNL     1       8.404   8.874  16.655  0.00  0.00    +0.000 HD
ATOM     13  H   UNL     1       6.182   6.298  14.536  0.00  0.00    +0.000 HD
ENDROOT
BRANCH   1  15
ATOM     14  C   UNL     1       9.233  10.677  18.220  0.00  0.00    +0.000 C 
ATOM     15  C   UNL     1       8.609   9.369  18.679  0.00  0.00    +0.000 C 
ENDBRANCH   1  15
BRANCH   5  16
ATOM     16  C   UNL     1       5.458   4.361  14.613  0.00  0.00    +0.000 C 
ATOM     17  C   UNL     1       6.325   4.003  13.423  0.00  0.00    +0.000 C 
ENDBRANCH   5  16
BRANCH   7  18
ATOM     18  S   UNL     1       4.714   2.795  17.121  0.00  0.00    +0.000 S 
BRANCH  18  19
ATOM     19  C   UNL     1       3.192   3.469  16.438  0.00  0.00    +0.000 C 
BRANCH  19  20
ATOM     20  C   UNL     1       2.337   4.288  17.400  0.00  0.00    +0.000 C 
ATOM     21  O   UNL     1       1.235   3.943  17.813  0.00  0.00    +0.000 OA
ATOM     22  N   UNL     1       2.995   5.463  17.756  0.00  0.00    +0.000 N 
ATOM     23  H   UNL     1       3.735   5.762  17.133  0.00  0.00    +0.000 HD
BRANCH  22  24
ATOM     24  C   UNL     1       2.540   6.417  18.686  0.00  0.00    +0.000 A 
ATOM     25  C   UNL     1       2.193   7.697  18.215  0.00  0.00    +0.000 A 
ATOM     26  C   UNL     1       1.608   8.644  19.059  0.00  0.00    +0.000 A 
ATOM     27  C   UNL     1       1.399   8.342  20.398  0.00  0.00    +0.000 A 
ATOM     28  C   UNL     1       1.769   7.089  20.883  0.00  0.00    +0.000 A 
ATOM     29  C   UNL     1       2.315   6.103  20.041  0.00  0.00    +0.000 A 
BRANCH  29  30
ATOM     30  O   UNL     1       2.613   4.971  20.747  0.00  0.00    +0.000 OA
BRANCH  30  31
ATOM     31  C   UNL     1       1.619   4.061  21.166  0.00  0.00    +0.000 C 
ATOM     32  F   UNL     1       0.468   4.299  20.486  0.00  0.00    +0.000 F 
ATOM     33  F   UNL     1       1.995   2.793  20.881  0.00  0.00    +0.000 F 
ENDBRANCH  30  31
ENDBRANCH  29  30
ENDBRANCH  22  24
ENDBRANCH  19  20
ENDBRANCH  18  19
ENDBRANCH   7  18
TORSDOF 8
ENDMDL
MODEL 9
REMARK VINA RESULT:      -6.8      3.436      7.786
REMARK  Name = 
REMARK  10 active torsions:
REMARK  status: ('A' for Active; 'I' for Inactive)
REMARK    1  A    between atoms: C_1  and  C_2
REMARK    2  A    between atoms: C_2  and  N_3
REMARK    3  A    between atoms: N_7  and  C_8
REMARK    4  A    between atoms: C_8  and  C_9
REMARK    5  A    between atoms: C_11  and  S_12
REMARK    6  A    between atoms: S_12  and  C_13
REMARK    7  A    between atoms: C_13  and  C_14
REMARK    8  A    between atoms: N_16  and  C_17
REMARK    9  A    between atoms: C_22  and  O_23
REMARK   10  A    between atoms: O_23  and  C_24
REMARK                            x       y       z     vdW  Elec       q    Type
REMARK                         _______ _______ _______ _____ _____    ______ ____
ROOT
ATOM      1  N   UNL     1      -3.565  10.924  16.338  0.00  0.00    +0.000 N 
ATOM      2  C   UNL     1      -2.557  10.845  17.259  0.00  0.00    +0.000 A 
ATOM      3  N   UNL     1      -2.783  11.528  18.422  0.00  0.00    +0.000 NA
ATOM      4  C   UNL     1      -1.892  11.528  19.383  0.00  0.00    +0.000 A 
ATOM      5  N   UNL     1      -2.254  12.308  20.458  0.00  0.00    +0.000 N 
ATOM      6  N   UNL     1      -0.700  10.810  19.196  0.00  0.00    +0.000 N 
ATOM      7  C   UNL     1       0.458  10.525  19.899  0.00  0.00    +0.000 A 
ATOM      8  N   UNL     1       1.288   9.837  19.146  0.00  0.00    +0.000 NA
ATOM      9  N   UNL     1       0.673   9.605  17.948  0.00  0.00    +0.000 NA
ATOM     10  C   UNL     1      -0.516  10.174  17.978  0.00  0.00    +0.000 A 
ATOM     11  N   UNL     1      -1.464  10.189  17.016  0.00  0.00    +0.000 NA
ATOM     12  H   UNL     1      -4.254  11.616  16.603  0.00  0.00    +0.000 HD
ATOM     13  H   UNL     1      -3.169  12.720  20.300  0.00  0.00    +0.000 HD
ENDROOT
BRANCH   1  15
ATOM     14  C   UNL     1      -3.912   9.613  14.303  0.00  0.00    +0.000 C 
ATOM     15  C   UNL     1      -3.278  10.851  14.916  0.00  0.00    +0.000 C 
ENDBRANCH   1  15
BRANCH   5  16
ATOM     16  C   UNL     1      -1.924  12.141  21.848  0.00  0.00    +0.000 C 
ATOM     17  C   UNL     1      -2.767  13.016  22.754  0.00  0.00    +0.000 C 
ENDBRANCH   5  16
BRANCH   7  18
ATOM     18  S   UNL     1       0.754  10.707  21.590  0.00  0.00    +0.000 S 
BRANCH  18  19
ATOM     19  C   UNL     1       1.496   9.146  22.090  0.00  0.00    +0.000 C 
BRANCH  19  20
ATOM     20  C   UNL     1       0.980   7.904  21.372  0.00  0.00    +0.000 C 
ATOM     21  O   UNL     1      -0.206   7.616  21.250  0.00  0.00    +0.000 OA
ATOM     22  N   UNL     1       2.041   7.163  20.857  0.00  0.00    +0.000 N 
ATOM     23  H   UNL     1       2.947   7.340  21.273  0.00  0.00    +0.000 HD
BRANCH  22  24
ATOM     24  C   UNL     1       1.934   6.001  20.068  0.00  0.00    +0.000 A 
ATOM     25  C   UNL     1       1.386   4.845  20.653  0.00  0.00    +0.000 A 
ATOM     26  C   UNL     1       1.126   3.703  19.890  0.00  0.00    +0.000 A 
ATOM     27  C   UNL     1       1.449   3.684  18.540  0.00  0.00    +0.000 A 
ATOM     28  C   UNL     1       2.022   4.813  17.958  0.00  0.00    +0.000 A 
ATOM     29  C   UNL     1       2.249   5.990  18.695  0.00  0.00    +0.000 A 
BRANCH  29  30
ATOM     30  O   UNL     1       2.834   6.948  17.915  0.00  0.00    +0.000 OA
BRANCH  30  31
ATOM     31  C   UNL     1       4.214   6.940  17.620  0.00  0.00    +0.000 C 
ATOM     32  F   UNL     1       4.858   6.104  18.476  0.00  0.00    +0.000 F 
ATOM     33  F   UNL     1       4.423   6.468  16.370  0.00  0.00    +0.000 F 
ENDBRANCH  30  31
ENDBRANCH  29  30
ENDBRANCH  22  24
ENDBRANCH  19  20
ENDBRANCH  18  19
ENDBRANCH   7  18
TORSDOF 8
ENDMDL
