MODEL 1
REMARK VINA RESULT:      -9.9      0.000      0.000
REMARK  Name = 
REMARK  5 active torsions:
REMARK  status: ('A' for Active; 'I' for Inactive)
REMARK    1  A    between atoms: C_9  and  C_10
REMARK    2  A    between atoms: C_10  and  C_11
REMARK    3  A    between atoms: C_14  and  C_15
REMARK    4  A    between atoms: N_24  and  C_25
REMARK    5  A    between atoms: C_25  and  C_26
REMARK                            x       y       z     vdW  Elec       q    Type
REMARK                         _______ _______ _______ _____ _____    ______ ____
ROOT
ATOM      1  O   UNL     1       2.823   3.966  17.230  0.00  0.00    +0.000 OA
ATOM      2  C   UNL     1       3.929   4.403  17.543  0.00  0.00    +0.000 A 
ATOM      3  C   UNL     1       5.023   4.392  16.558  0.00  0.00    +0.000 A 
ATOM      4  C   UNL     1       4.773   3.951  15.250  0.00  0.00    +0.000 A 
ATOM      5  C   UNL     1       5.787   3.991  14.296  0.00  0.00    +0.000 A 
ATOM      6  C   UNL     1       7.052   4.450  14.651  0.00  0.00    +0.000 A 
ATOM      7  C   UNL     1       7.307   4.876  15.960  0.00  0.00    +0.000 A 
ATOM      8  C   UNL     1       6.283   4.862  16.916  0.00  0.00    +0.000 A 
ATOM      9  C   UNL     1       6.444   5.376  18.299  0.00  0.00    +0.000 A 
ATOM     10  N   UNL     1       5.463   5.416  19.153  0.00  0.00    +0.000 NA
ATOM     11  N   UNL     1       4.219   4.955  18.784  0.00  0.00    +0.000 N 
ENDROOT
BRANCH   9  12
ATOM     12  C   UNL     1       7.774   5.956  18.750  0.00  0.00    +0.000 C 
BRANCH  12  13
ATOM     13  C   UNL     1       7.922   7.346  18.274  0.00  0.00    +0.000 A 
ATOM     14  N   UNL     1       7.270   7.983  17.326  0.00  0.00    +0.000 NA
ATOM     15  N   UNL     1       7.704   9.295  17.372  0.00  0.00    +0.000 NA
ATOM     16  C   UNL     1       8.587   9.371  18.347  0.00  0.00    +0.000 A 
ATOM     17  O   UNL     1       8.776   8.162  18.970  0.00  0.00    +0.000 OA
BRANCH  16  18
ATOM     18  C   UNL     1       9.355  10.507  18.852  0.00  0.00    +0.000 A 
ATOM     19  C   UNL     1       9.493  10.707  20.237  0.00  0.00    +0.000 A 
ATOM     20  C   UNL     1      10.206  11.808  20.732  0.00  0.00    +0.000 A 
ATOM     21  C   UNL     1      10.783  12.711  19.843  0.00  0.00    +0.000 A 
ATOM     22  F   UNL     1      11.452  13.767  20.316  0.00  0.00    +0.000 F 
ATOM     23  C   UNL     1      10.668  12.527  18.471  0.00  0.00    +0.000 A 
ATOM     24  C   UNL     1       9.959  11.428  17.977  0.00  0.00    +0.000 A 
ENDBRANCH  16  18
ENDBRANCH  12  13
ENDBRANCH   9  12
BRANCH  11  25
ATOM     25  C   UNL     1       3.140   5.114  19.758  0.00  0.00    +0.000 C 
BRANCH  25  26
ATOM     26  C   UNL     1       2.538   6.473  19.642  0.00  0.00    +0.000 A 
ATOM     27  C   UNL     1       1.809   7.193  20.571  0.00  0.00    +0.000 A 
ATOM     28  N   UNL     1       1.418   8.461  20.178  0.00  0.00    +0.000 NA
ATOM     29  C   UNL     1       1.867   8.671  18.966  0.00  0.00    +0.000 A 
ATOM     30 CL   UNL     1       1.673  10.171  18.155  0.00  0.00    +0.000 Cl
ATOM     31  S   UNL     1       2.688   7.398  18.200  0.00  0.00    +0.000 S 
ENDBRANCH  25  26
ENDBRANCH  11  25
TORSDOF 5
ENDMDL
MODEL 2
REMARK VINA RESULT:      -9.7      0.808      1.225
REMARK  Name = 
REMARK  5 active torsions:
REMARK  status: ('A' for Active; 'I' for Inactive)
REMARK    1  A    between atoms: C_9  and  C_10
REMARK    2  A    between atoms: C_10  and  C_11
REMARK    3  A    between atoms: C_14  and  C_15
REMARK    4  A    between atoms: N_24  and  C_25
REMARK    5  A    between atoms: C_25  and  C_26
REMARK                            x       y       z     vdW  Elec       q    Type
REMARK                         _______ _______ _______ _____ _____    ______ ____
ROOT
ATOM      1  O   UNL     1       2.832   4.132  17.128  0.00  0.00    +0.000 OA
ATOM      2  C   UNL     1       3.937   4.560  17.451  0.00  0.00    +0.000 A 
ATOM      3  C   UNL     1       5.053   4.494  16.494  0.00  0.00    +0.000 A 
ATOM      4  C   UNL     1       4.826   4.009  15.198  0.00  0.00    +0.000 A 
ATOM      5  C   UNL     1       5.862   3.996  14.267  0.00  0.00    +0.000 A 
ATOM      6  C   UNL     1       7.127   4.446  14.636  0.00  0.00    +0.000 A 
ATOM      7  C   UNL     1       7.360   4.914  15.934  0.00  0.00    +0.000 A 
ATOM      8  C   UNL     1       6.314   4.954  16.865  0.00  0.00    +0.000 A 
ATOM      9  C   UNL     1       6.452   5.515  18.232  0.00  0.00    +0.000 A 
ATOM     10  N   UNL     1       5.453   5.604  19.060  0.00  0.00    +0.000 NA
ATOM     11  N   UNL     1       4.209   5.152  18.679  0.00  0.00    +0.000 N 
ENDROOT
BRANCH   9  12
ATOM     12  C   UNL     1       7.782   6.088  18.693  0.00  0.00    +0.000 C 
BRANCH  12  13
ATOM     13  C   UNL     1       7.941   7.477  18.220  0.00  0.00    +0.000 A 
ATOM     14  N   UNL     1       7.321   8.109  17.247  0.00  0.00    +0.000 NA
ATOM     15  N   UNL     1       7.746   9.423  17.307  0.00  0.00    +0.000 NA
ATOM     16  C   UNL     1       8.594   9.505  18.313  0.00  0.00    +0.000 A 
ATOM     17  O   UNL     1       8.764   8.298  18.945  0.00  0.00    +0.000 OA
BRANCH  16  18
ATOM     18  C   UNL     1       9.337  10.646  18.843  0.00  0.00    +0.000 A 
ATOM     19  C   UNL     1       9.686  11.715  17.999  0.00  0.00    +0.000 A 
ATOM     20  C   UNL     1      10.421  12.803  18.492  0.00  0.00    +0.000 A 
ATOM     21  C   UNL     1      10.807  12.824  19.830  0.00  0.00    +0.000 A 
ATOM     22  F   UNL     1      11.517  13.856  20.295  0.00  0.00    +0.000 F 
ATOM     23  C   UNL     1      10.463  11.784  20.684  0.00  0.00    +0.000 A 
ATOM     24  C   UNL     1       9.728  10.700  20.193  0.00  0.00    +0.000 A 
ENDBRANCH  16  18
ENDBRANCH  12  13
ENDBRANCH   9  12
BRANCH  11  25
ATOM     25  C   UNL     1       3.110   5.366  19.620  0.00  0.00    +0.000 C 
BRANCH  25  26
ATOM     26  C   UNL     1       2.529   6.726  19.433  0.00  0.00    +0.000 A 
ATOM     27  C   UNL     1       2.557   7.547  18.319  0.00  0.00    +0.000 A 
ATOM     28  N   UNL     1       1.883   8.748  18.441  0.00  0.00    +0.000 NA
ATOM     29  C   UNL     1       1.355   8.804  19.638  0.00  0.00    +0.000 A 
ATOM     30 CL   UNL     1       0.354  10.101  20.148  0.00  0.00    +0.000 Cl
ATOM     31  S   UNL     1       1.675   7.518  20.698  0.00  0.00    +0.000 S 
ENDBRANCH  25  26
ENDBRANCH  11  25
TORSDOF 5
ENDMDL
MODEL 3
REMARK VINA RESULT:      -8.7      6.090      9.379
REMARK  Name = 
REMARK  5 active torsions:
REMARK  status: ('A' for Active; 'I' for Inactive)
REMARK    1  A    between atoms: C_9  and  C_10
REMARK    2  A    between atoms: C_10  and  C_11
REMARK    3  A    between atoms: C_14  and  C_15
REMARK    4  A    between atoms: N_24  and  C_25
REMARK    5  A    between atoms: C_25  and  C_26
REMARK                            x       y       z     vdW  Elec       q    Type
REMARK                         _______ _______ _______ _____ _____    ______ ____
ROOT
ATOM      1  O   UNL     1      -1.242  13.336  20.531  0.00  0.00    +0.000 OA
ATOM      2  C   UNL     1      -0.617  12.466  19.931  0.00  0.00    +0.000 A 
ATOM      3  C   UNL     1      -1.330  11.548  19.026  0.00  0.00    +0.000 A 
ATOM      4  C   UNL     1      -2.703  11.724  18.803  0.00  0.00    +0.000 A 
ATOM      5  C   UNL     1      -3.374  10.897  17.906  0.00  0.00    +0.000 A 
ATOM      6  C   UNL     1      -2.681   9.885  17.248  0.00  0.00    +0.000 A 
ATOM      7  C   UNL     1      -1.314   9.698  17.482  0.00  0.00    +0.000 A 
ATOM      8  C   UNL     1      -0.629  10.544  18.364  0.00  0.00    +0.000 A 
ATOM      9  C   UNL     1       0.834  10.471  18.602  0.00  0.00    +0.000 A 
ATOM     10  N   UNL     1       1.463  11.308  19.375  0.00  0.00    +0.000 NA
ATOM     11  N   UNL     1       0.760  12.302  20.018  0.00  0.00    +0.000 N 
ENDROOT
BRANCH   9  12
ATOM     12  C   UNL     1       1.677   9.438  17.875  0.00  0.00    +0.000 C 
BRANCH  12  13
ATOM     13  C   UNL     1       1.925   8.267  18.740  0.00  0.00    +0.000 A 
ATOM     14  N   UNL     1       1.720   8.119  20.031  0.00  0.00    +0.000 NA
ATOM     15  N   UNL     1       1.995   6.795  20.317  0.00  0.00    +0.000 NA
ATOM     16  C   UNL     1       2.346   6.224  19.182  0.00  0.00    +0.000 A 
ATOM     17  O   UNL     1       2.321   7.106  18.131  0.00  0.00    +0.000 OA
BRANCH  16  18
ATOM     18  C   UNL     1       2.729   4.845  18.887  0.00  0.00    +0.000 A 
ATOM     19  C   UNL     1       1.808   3.971  18.284  0.00  0.00    +0.000 A 
ATOM     20  C   UNL     1       2.156   2.639  18.019  0.00  0.00    +0.000 A 
ATOM     21  C   UNL     1       3.426   2.179  18.357  0.00  0.00    +0.000 A 
ATOM     22  F   UNL     1       3.753   0.905  18.115  0.00  0.00    +0.000 F 
ATOM     23  C   UNL     1       4.355   3.028  18.944  0.00  0.00    +0.000 A 
ATOM     24  C   UNL     1       4.009   4.357  19.205  0.00  0.00    +0.000 A 
ENDBRANCH  16  18
ENDBRANCH  12  13
ENDBRANCH   9  12
BRANCH  11  25
ATOM     25  C   UNL     1       1.540  13.264  20.797  0.00  0.00    +0.000 C 
BRANCH  25  26
ATOM     26  C   UNL     1       1.708  14.531  20.029  0.00  0.00    +0.000 A 
ATOM     27  C   UNL     1       1.402  15.829  20.398  0.00  0.00    +0.000 A 
ATOM     28  N   UNL     1       1.718  16.807  19.472  0.00  0.00    +0.000 NA
ATOM     29  C   UNL     1       2.262  16.228  18.431  0.00  0.00    +0.000 A 
ATOM     30 CL   UNL     1       2.882  17.114  17.099  0.00  0.00    +0.000 Cl
ATOM     31  S   UNL     1       2.362  14.534  18.438  0.00  0.00    +0.000 S 
ENDBRANCH  25  26
ENDBRANCH  11  25
TORSDOF 5
ENDMDL
MODEL 4
REMARK VINA RESULT:      -8.6      5.805      9.423
REMARK  Name = 
REMARK  5 active torsions:
REMARK  status: ('A' for Active; 'I' for Inactive)
REMARK    1  A    between atoms: C_9  and  C_10
REMARK    2  A    between atoms: C_10  and  C_11
REMARK    3  A    between atoms: C_14  and  C_15
REMARK    4  A    between atoms: N_24  and  C_25
REMARK    5  A    between atoms: C_25  and  C_26
REMARK                            x       y       z     vdW  Elec       q    Type
REMARK                         _______ _______ _______ _____ _____    ______ ____
ROOT
ATOM      1  O   UNL     1      -1.881  13.343  20.500  0.00  0.00    +0.000 OA
ATOM      2  C   UNL     1      -1.136  12.560  19.916  0.00  0.00    +0.000 A 
ATOM      3  C   UNL     1      -1.698  11.593  18.959  0.00  0.00    +0.000 A 
ATOM      4  C   UNL     1      -3.070  11.624  18.669  0.00  0.00    +0.000 A 
ATOM      5  C   UNL     1      -3.602  10.752  17.723  0.00  0.00    +0.000 A 
ATOM      6  C   UNL     1      -2.770   9.837  17.082  0.00  0.00    +0.000 A 
ATOM      7  C   UNL     1      -1.404   9.793  17.382  0.00  0.00    +0.000 A 
ATOM      8  C   UNL     1      -0.860  10.687  18.315  0.00  0.00    +0.000 A 
ATOM      9  C   UNL     1       0.589  10.767  18.626  0.00  0.00    +0.000 A 
ATOM     10  N   UNL     1       1.084  11.649  19.446  0.00  0.00    +0.000 NA
ATOM     11  N   UNL     1       0.245  12.545  20.071  0.00  0.00    +0.000 N 
ENDROOT
BRANCH   9  12
ATOM     12  C   UNL     1       1.575   9.850  17.924  0.00  0.00    +0.000 C 
BRANCH  12  13
ATOM     13  C   UNL     1       1.828   8.642  18.734  0.00  0.00    +0.000 A 
ATOM     14  N   UNL     1       1.640   8.439  20.020  0.00  0.00    +0.000 NA
ATOM     15  N   UNL     1       1.914   7.103  20.245  0.00  0.00    +0.000 NA
ATOM     16  C   UNL     1       2.247   6.581  19.082  0.00  0.00    +0.000 A 
ATOM     17  O   UNL     1       2.212   7.507  18.070  0.00  0.00    +0.000 OA
BRANCH  16  18
ATOM     18  C   UNL     1       2.619   5.214  18.723  0.00  0.00    +0.000 A 
ATOM     19  C   UNL     1       3.898   4.944  18.205  0.00  0.00    +0.000 A 
ATOM     20  C   UNL     1       4.257   3.641  17.833  0.00  0.00    +0.000 A 
ATOM     21  C   UNL     1       3.338   2.605  17.979  0.00  0.00    +0.000 A 
ATOM     22  F   UNL     1       3.678   1.365  17.614  0.00  0.00    +0.000 F 
ATOM     23  C   UNL     1       2.073   2.847  18.499  0.00  0.00    +0.000 A 
ATOM     24  C   UNL     1       1.716   4.147  18.872  0.00  0.00    +0.000 A 
ENDBRANCH  16  18
ENDBRANCH  12  13
ENDBRANCH   9  12
BRANCH  11  25
ATOM     25  C   UNL     1       0.875  13.566  20.907  0.00  0.00    +0.000 C 
BRANCH  25  26
ATOM     26  C   UNL     1       1.645  14.521  20.059  0.00  0.00    +0.000 A 
ATOM     27  C   UNL     1       1.184  15.442  19.135  0.00  0.00    +0.000 A 
ATOM     28  N   UNL     1       2.153  16.225  18.533  0.00  0.00    +0.000 NA
ATOM     29  C   UNL     1       3.319  15.883  19.020  0.00  0.00    +0.000 A 
ATOM     30 CL   UNL     1       4.772  16.691  18.596  0.00  0.00    +0.000 Cl
ATOM     31  S   UNL     1       3.361  14.600  20.131  0.00  0.00    +0.000 S 
ENDBRANCH  25  26
ENDBRANCH  11  25
TORSDOF 5
ENDMDL
MODEL 5
REMARK VINA RESULT:      -8.5      5.079      7.504
REMARK  Name = 
REMARK  5 active torsions:
REMARK  status: ('A' for Active; 'I' for Inactive)
REMARK    1  A    between atoms: C_9  and  C_10
REMARK    2  A    between atoms: C_10  and  C_11
REMARK    3  A    between atoms: C_14  and  C_15
REMARK    4  A    between atoms: N_24  and  C_25
REMARK    5  A    between atoms: C_25  and  C_26
REMARK                            x       y       z     vdW  Elec       q    Type
REMARK                         _______ _______ _______ _____ _____    ______ ____
ROOT
ATOM      1  O   UNL     1       5.614   2.983  19.923  0.00  0.00    +0.000 OA
ATOM      2  C   UNL     1       4.763   3.694  19.394  0.00  0.00    +0.000 A 
ATOM      3  C   UNL     1       3.354   3.574  19.802  0.00  0.00    +0.000 A 
ATOM      4  C   UNL     1       3.007   2.699  20.842  0.00  0.00    +0.000 A 
ATOM      5  C   UNL     1       1.686   2.620  21.275  0.00  0.00    +0.000 A 
ATOM      6  C   UNL     1       0.709   3.396  20.656  0.00  0.00    +0.000 A 
ATOM      7  C   UNL     1       1.051   4.258  19.607  0.00  0.00    +0.000 A 
ATOM      8  C   UNL     1       2.384   4.360  19.187  0.00  0.00    +0.000 A 
ATOM      9  C   UNL     1       2.845   5.309  18.144  0.00  0.00    +0.000 A 
ATOM     10  N   UNL     1       4.097   5.437  17.813  0.00  0.00    +0.000 NA
ATOM     11  N   UNL     1       5.049   4.659  18.435  0.00  0.00    +0.000 N 
ENDROOT
BRANCH   9  12
ATOM     12  C   UNL     1       1.855   6.240  17.464  0.00  0.00    +0.000 C 
BRANCH  12  13
ATOM     13  C   UNL     1       1.932   7.594  18.046  0.00  0.00    +0.000 A 
ATOM     14  N   UNL     1       2.555   8.665  17.603  0.00  0.00    +0.000 NA
ATOM     15  N   UNL     1       2.201   9.698  18.451  0.00  0.00    +0.000 NA
ATOM     16  C   UNL     1       1.383   9.189  19.351  0.00  0.00    +0.000 A 
ATOM     17  O   UNL     1       1.164   7.849  19.153  0.00  0.00    +0.000 OA
BRANCH  16  18
ATOM     18  C   UNL     1       0.693   9.818  20.475  0.00  0.00    +0.000 A 
ATOM     19  C   UNL     1       0.597   9.150  21.708  0.00  0.00    +0.000 A 
ATOM     20  C   UNL     1      -0.085   9.733  22.786  0.00  0.00    +0.000 A 
ATOM     21  C   UNL     1      -0.671  10.986  22.631  0.00  0.00    +0.000 A 
ATOM     22  F   UNL     1      -1.332  11.537  23.656  0.00  0.00    +0.000 F 
ATOM     23  C   UNL     1      -0.579  11.670  21.426  0.00  0.00    +0.000 A 
ATOM     24  C   UNL     1       0.103  11.089  20.352  0.00  0.00    +0.000 A 
ENDBRANCH  16  18
ENDBRANCH  12  13
ENDBRANCH   9  12
BRANCH  11  25
ATOM     25  C   UNL     1       6.445   4.917  18.084  0.00  0.00    +0.000 C 
BRANCH  25  26
ATOM     26  C   UNL     1       6.619   4.878  16.603  0.00  0.00    +0.000 A 
ATOM     27  C   UNL     1       7.414   5.667  15.792  0.00  0.00    +0.000 A 
ATOM     28  N   UNL     1       7.394   5.355  14.444  0.00  0.00    +0.000 NA
ATOM     29  C   UNL     1       6.591   4.335  14.270  0.00  0.00    +0.000 A 
ATOM     30 CL   UNL     1       6.368   3.583  12.744  0.00  0.00    +0.000 Cl
ATOM     31  S   UNL     1       5.770   3.741  15.632  0.00  0.00    +0.000 S 
ENDBRANCH  25  26
ENDBRANCH  11  25
TORSDOF 5
ENDMDL
MODEL 6
REMARK VINA RESULT:      -8.5      4.244      7.562
REMARK  Name = 
REMARK  5 active torsions:
REMARK  status: ('A' for Active; 'I' for Inactive)
REMARK    1  A    between atoms: C_9  and  C_10
REMARK    2  A    between atoms: C_10  and  C_11
REMARK    3  A    between atoms: C_14  and  C_15
REMARK    4  A    between atoms: N_24  and  C_25
REMARK    5  A    between atoms: C_25  and  C_26
REMARK                            x       y       z     vdW  Elec       q    Type
REMARK                         _______ _______ _______ _____ _____    ______ ____
ROOT
ATOM      1  O   UNL     1       4.467   2.318  17.105  0.00  0.00    +0.000 OA
ATOM      2  C   UNL     1       4.113   3.301  17.751  0.00  0.00    +0.000 A 
ATOM      3  C   UNL     1       2.808   3.295  18.432  0.00  0.00    +0.000 A 
ATOM      4  C   UNL     1       2.014   2.141  18.397  0.00  0.00    +0.000 A 
ATOM      5  C   UNL     1       0.804   2.106  19.086  0.00  0.00    +0.000 A 
ATOM      6  C   UNL     1       0.378   3.228  19.791  0.00  0.00    +0.000 A 
ATOM      7  C   UNL     1       1.162   4.388  19.814  0.00  0.00    +0.000 A 
ATOM      8  C   UNL     1       2.393   4.418  19.144  0.00  0.00    +0.000 A 
ATOM      9  C   UNL     1       3.323   5.572  19.189  0.00  0.00    +0.000 A 
ATOM     10  N   UNL     1       4.491   5.557  18.615  0.00  0.00    +0.000 NA
ATOM     11  N   UNL     1       4.895   4.438  17.921  0.00  0.00    +0.000 N 
ENDROOT
BRANCH   9  12
ATOM     12  C   UNL     1       2.966   6.813  19.990  0.00  0.00    +0.000 C 
BRANCH  12  13
ATOM     13  C   UNL     1       2.353   7.835  19.118  0.00  0.00    +0.000 A 
ATOM     14  N   UNL     1       2.622   8.142  17.867  0.00  0.00    +0.000 NA
ATOM     15  N   UNL     1       1.676   9.076  17.487  0.00  0.00    +0.000 NA
ATOM     16  C   UNL     1       0.893   9.273  18.528  0.00  0.00    +0.000 A 
ATOM     17  O   UNL     1       1.266   8.510  19.607  0.00  0.00    +0.000 OA
BRANCH  16  18
ATOM     18  C   UNL     1      -0.274  10.136  18.694  0.00  0.00    +0.000 A 
ATOM     19  C   UNL     1      -1.324  10.092  17.760  0.00  0.00    +0.000 A 
ATOM     20  C   UNL     1      -2.436  10.934  17.896  0.00  0.00    +0.000 A 
ATOM     21  C   UNL     1      -2.501  11.822  18.966  0.00  0.00    +0.000 A 
ATOM     22  F   UNL     1      -3.557  12.633  19.088  0.00  0.00    +0.000 F 
ATOM     23  C   UNL     1      -1.480  11.876  19.907  0.00  0.00    +0.000 A 
ATOM     24  C   UNL     1      -0.372  11.034  19.773  0.00  0.00    +0.000 A 
ENDBRANCH  16  18
ENDBRANCH  12  13
ENDBRANCH   9  12
BRANCH  11  25
ATOM     25  C   UNL     1       6.253   4.451  17.379  0.00  0.00    +0.000 C 
BRANCH  25  26
ATOM     26  C   UNL     1       6.819   5.829  17.441  0.00  0.00    +0.000 A 
ATOM     27  C   UNL     1       6.592   6.909  16.606  0.00  0.00    +0.000 A 
ATOM     28  N   UNL     1       7.238   8.082  16.953  0.00  0.00    +0.000 NA
ATOM     29  C   UNL     1       7.928   7.864  18.044  0.00  0.00    +0.000 A 
ATOM     30 CL   UNL     1       8.797   9.104  18.852  0.00  0.00    +0.000 Cl
ATOM     31  S   UNL     1       7.927   6.288  18.673  0.00  0.00    +0.000 S 
ENDBRANCH  25  26
ENDBRANCH  11  25
TORSDOF 5
ENDMDL
MODEL 7
REMARK VINA RESULT:      -8.4      5.703      9.489
REMARK  Name = 
REMARK  5 active torsions:
REMARK  status: ('A' for Active; 'I' for Inactive)
REMARK    1  A    between atoms: C_9  and  C_10
REMARK    2  A    between atoms: C_10  and  C_11
REMARK    3  A    between atoms: C_14  and  C_15
REMARK    4  A    between atoms: N_24  and  C_25
REMARK    5  A    between atoms: C_25  and  C_26
REMARK                            x       y       z     vdW  Elec       q    Type
REMARK                         _______ _______ _______ _____ _____    ______ ____
ROOT
ATOM      1  O   UNL     1      -0.557  13.943  20.956  0.00  0.00    +0.000 OA
ATOM      2  C   UNL     1      -0.104  13.025  20.277  0.00  0.00    +0.000 A 
ATOM      3  C   UNL     1      -1.022  12.139  19.542  0.00  0.00    +0.000 A 
ATOM      4  C   UNL     1      -2.400  12.396  19.566  0.00  0.00    +0.000 A 
ATOM      5  C   UNL     1      -3.271  11.599  18.829  0.00  0.00    +0.000 A 
ATOM      6  C   UNL     1      -2.769  10.534  18.085  0.00  0.00    +0.000 A 
ATOM      7  C   UNL     1      -1.396  10.265  18.072  0.00  0.00    +0.000 A 
ATOM      8  C   UNL     1      -0.513  11.082  18.792  0.00  0.00    +0.000 A 
ATOM      9  C   UNL     1       0.962  10.922  18.763  0.00  0.00    +0.000 A 
ATOM     10  N   UNL     1       1.769  11.731  19.386  0.00  0.00    +0.000 NA
ATOM     11  N   UNL     1       1.254  12.777  20.118  0.00  0.00    +0.000 N 
ENDROOT
BRANCH   9  12
ATOM     12  C   UNL     1       1.596   9.826  17.925  0.00  0.00    +0.000 C 
BRANCH  12  13
ATOM     13  C   UNL     1       1.857   8.628  18.747  0.00  0.00    +0.000 A 
ATOM     14  N   UNL     1       1.640   8.425  20.029  0.00  0.00    +0.000 NA
ATOM     15  N   UNL     1       1.939   7.097  20.267  0.00  0.00    +0.000 NA
ATOM     16  C   UNL     1       2.315   6.578  19.115  0.00  0.00    +0.000 A 
ATOM     17  O   UNL     1       2.285   7.499  18.098  0.00  0.00    +0.000 OA
BRANCH  16  18
ATOM     18  C   UNL     1       2.729   5.219  18.772  0.00  0.00    +0.000 A 
ATOM     19  C   UNL     1       2.057   4.511  17.760  0.00  0.00    +0.000 A 
ATOM     20  C   UNL     1       2.429   3.198  17.439  0.00  0.00    +0.000 A 
ATOM     21  C   UNL     1       3.474   2.591  18.131  0.00  0.00    +0.000 A 
ATOM     22  F   UNL     1       3.821   1.334  17.832  0.00  0.00    +0.000 F 
ATOM     23  C   UNL     1       4.159   3.275  19.126  0.00  0.00    +0.000 A 
ATOM     24  C   UNL     1       3.790   4.586  19.444  0.00  0.00    +0.000 A 
ENDBRANCH  16  18
ENDBRANCH  12  13
ENDBRANCH   9  12
BRANCH  11  25
ATOM     25  C   UNL     1       2.217  13.702  20.716  0.00  0.00    +0.000 C 
BRANCH  25  26
ATOM     26  C   UNL     1       2.772  14.611  19.673  0.00  0.00    +0.000 A 
ATOM     27  C   UNL     1       4.084  14.788  19.270  0.00  0.00    +0.000 A 
ATOM     28  N   UNL     1       4.279  15.684  18.235  0.00  0.00    +0.000 NA
ATOM     29  C   UNL     1       3.113  16.157  17.875  0.00  0.00    +0.000 A 
ATOM     30 CL   UNL     1       2.918  17.231  16.551  0.00  0.00    +0.000 Cl
ATOM     31  S   UNL     1       1.754  15.652  18.758  0.00  0.00    +0.000 S 
ENDBRANCH  25  26
ENDBRANCH  11  25
TORSDOF 5
ENDMDL
MODEL 8
REMARK VINA RESULT:      -8.4      2.243      2.798
REMARK  Name = 
REMARK  5 active torsions:
REMARK  status: ('A' for Active; 'I' for Inactive)
REMARK    1  A    between atoms: C_9  and  C_10
REMARK    2  A    between atoms: C_10  and  C_11
REMARK    3  A    between atoms: C_14  and  C_15
REMARK    4  A    between atoms: N_24  and  C_25
REMARK    5  A    between atoms: C_25  and  C_26
REMARK                            x       y       z     vdW  Elec       q    Type
REMARK                         _______ _______ _______ _____ _____    ______ ____
ROOT
ATOM      1  O   UNL     1       2.935   4.184  16.425  0.00  0.00    +0.000 OA
ATOM      2  C   UNL     1       4.000   4.613  16.863  0.00  0.00    +0.000 A 
ATOM      3  C   UNL     1       5.215   4.531  16.036  0.00  0.00    +0.000 A 
ATOM      4  C   UNL     1       5.131   4.031  14.729  0.00  0.00    +0.000 A 
ATOM      5  C   UNL     1       6.263   4.002  13.919  0.00  0.00    +0.000 A 
ATOM      6  C   UNL     1       7.482   4.453  14.420  0.00  0.00    +0.000 A 
ATOM      7  C   UNL     1       7.572   4.937  15.730  0.00  0.00    +0.000 A 
ATOM      8  C   UNL     1       6.429   4.992  16.539  0.00  0.00    +0.000 A 
ATOM      9  C   UNL     1       6.418   5.571  17.906  0.00  0.00    +0.000 A 
ATOM     10  N   UNL     1       5.333   5.673  18.617  0.00  0.00    +0.000 NA
ATOM     11  N   UNL     1       4.137   5.221  18.106  0.00  0.00    +0.000 N 
ENDROOT
BRANCH   9  12
ATOM     12  C   UNL     1       7.691   6.145  18.504  0.00  0.00    +0.000 C 
BRANCH  12  13
ATOM     13  C   UNL     1       7.862   7.556  18.104  0.00  0.00    +0.000 A 
ATOM     14  N   UNL     1       7.215   8.256  17.199  0.00  0.00    +0.000 NA
ATOM     15  N   UNL     1       7.674   9.555  17.313  0.00  0.00    +0.000 NA
ATOM     16  C   UNL     1       8.568   9.560  18.282  0.00  0.00    +0.000 A 
ATOM     17  O   UNL     1       8.738   8.315  18.835  0.00  0.00    +0.000 OA
BRANCH  16  18
ATOM     18  C   UNL     1       9.362  10.652  18.840  0.00  0.00    +0.000 A 
ATOM     19  C   UNL     1       9.930  11.618  17.992  0.00  0.00    +0.000 A 
ATOM     20  C   UNL     1      10.715  12.656  18.515  0.00  0.00    +0.000 A 
ATOM     21  C   UNL     1      10.931  12.729  19.889  0.00  0.00    +0.000 A 
ATOM     22  F   UNL     1      11.690  13.712  20.385  0.00  0.00    +0.000 F 
ATOM     23  C   UNL     1      10.371  11.792  20.747  0.00  0.00    +0.000 A 
ATOM     24  C   UNL     1       9.586  10.758  20.225  0.00  0.00    +0.000 A 
ENDBRANCH  16  18
ENDBRANCH  12  13
ENDBRANCH   9  12
BRANCH  11  25
ATOM     25  C   UNL     1       2.943   5.450  18.917  0.00  0.00    +0.000 C 
BRANCH  25  26
ATOM     26  C   UNL     1       2.709   4.292  19.828  0.00  0.00    +0.000 A 
ATOM     27  C   UNL     1       3.557   3.249  20.155  0.00  0.00    +0.000 A 
ATOM     28  N   UNL     1       3.063   2.340  21.073  0.00  0.00    +0.000 NA
ATOM     29  C   UNL     1       1.860   2.721  21.424  0.00  0.00    +0.000 A 
ATOM     30 CL   UNL     1       0.944   1.905  22.624  0.00  0.00    +0.000 Cl
ATOM     31  S   UNL     1       1.217   4.092  20.659  0.00  0.00    +0.000 S 
ENDBRANCH  25  26
ENDBRANCH  11  25
TORSDOF 5
ENDMDL
MODEL 9
REMARK VINA RESULT:      -8.4      3.974      7.075
REMARK  Name = 
REMARK  5 active torsions:
REMARK  status: ('A' for Active; 'I' for Inactive)
REMARK    1  A    between atoms: C_9  and  C_10
REMARK    2  A    between atoms: C_10  and  C_11
REMARK    3  A    between atoms: C_14  and  C_15
REMARK    4  A    between atoms: N_24  and  C_25
REMARK    5  A    between atoms: C_25  and  C_26
REMARK                            x       y       z     vdW  Elec       q    Type
REMARK                         _______ _______ _______ _____ _____    ______ ____
ROOT
ATOM      1  O   UNL     1       4.643   3.222  16.227  0.00  0.00    +0.000 OA
ATOM      2  C   UNL     1       4.128   4.029  16.998  0.00  0.00    +0.000 A 
ATOM      3  C   UNL     1       3.024   3.599  17.873  0.00  0.00    +0.000 A 
ATOM      4  C   UNL     1       2.621   2.256  17.869  0.00  0.00    +0.000 A 
ATOM      5  C   UNL     1       1.617   1.828  18.734  0.00  0.00    +0.000 A 
ATOM      6  C   UNL     1       1.002   2.742  19.585  0.00  0.00    +0.000 A 
ATOM      7  C   UNL     1       1.392   4.087  19.579  0.00  0.00    +0.000 A 
ATOM      8  C   UNL     1       2.420   4.516  18.729  0.00  0.00    +0.000 A 
ATOM      9  C   UNL     1       2.954   5.901  18.720  0.00  0.00    +0.000 A 
ATOM     10  N   UNL     1       3.953   6.265  17.971  0.00  0.00    +0.000 NA
ATOM     11  N   UNL     1       4.548   5.347  17.134  0.00  0.00    +0.000 N 
ENDROOT
BRANCH   9  12
ATOM     12  C   UNL     1       2.385   6.946  19.664  0.00  0.00    +0.000 C 
BRANCH  12  13
ATOM     13  C   UNL     1       2.092   8.198  18.938  0.00  0.00    +0.000 A 
ATOM     14  N   UNL     1       2.324   8.514  17.682  0.00  0.00    +0.000 NA
ATOM     15  N   UNL     1       1.741   9.750  17.480  0.00  0.00    +0.000 NA
ATOM     16  C   UNL     1       1.189  10.104  18.624  0.00  0.00    +0.000 A 
ATOM     17  O   UNL     1       1.373   9.157  19.601  0.00  0.00    +0.000 OA
BRANCH  16  18
ATOM     18  C   UNL     1       0.431  11.299  18.987  0.00  0.00    +0.000 A 
ATOM     19  C   UNL     1       1.022  12.570  18.880  0.00  0.00    +0.000 A 
ATOM     20  C   UNL     1       0.311  13.721  19.250  0.00  0.00    +0.000 A 
ATOM     21  C   UNL     1      -0.991  13.602  19.727  0.00  0.00    +0.000 A 
ATOM     22  F   UNL     1      -1.663  14.700  20.091  0.00  0.00    +0.000 F 
ATOM     23  C   UNL     1      -1.598  12.358  19.832  0.00  0.00    +0.000 A 
ATOM     24  C   UNL     1      -0.891  11.210  19.460  0.00  0.00    +0.000 A 
ENDBRANCH  16  18
ENDBRANCH  12  13
ENDBRANCH   9  12
BRANCH  11  25
ATOM     25  C   UNL     1       5.723   5.795  16.388  0.00  0.00    +0.000 C 
BRANCH  25  26
ATOM     26  C   UNL     1       6.694   6.455  17.308  0.00  0.00    +0.000 A 
ATOM     27  C   UNL     1       7.473   5.899  18.307  0.00  0.00    +0.000 A 
ATOM     28  N   UNL     1       8.318   6.774  18.967  0.00  0.00    +0.000 NA
ATOM     29  C   UNL     1       8.164   7.965  18.447  0.00  0.00    +0.000 A 
ATOM     30 CL   UNL     1       9.108   9.314  18.929  0.00  0.00    +0.000 Cl
ATOM     31  S   UNL     1       6.990   8.147  17.234  0.00  0.00    +0.000 S 
ENDBRANCH  25  26
ENDBRANCH  11  25
TORSDOF 5
ENDMDL
