MODEL 1
REMARK VINA RESULT:      -7.6      0.000      0.000
REMARK  Name = 
REMARK  14 active torsions:
REMARK  status: ('A' for Active; 'I' for Inactive)
REMARK    1  A    between atoms: N_1  and  C_2
REMARK    2  A    between atoms: C_2  and  C_3
REMARK    3  A    between atoms: C_2  and  P_13
REMARK    4  A    between atoms: C_3  and  C_4
REMARK    5  A    between atoms: C_4  and  C_5
REMARK    6  A    between atoms: C_8  and  C_9
REMARK    7  A    between atoms: C_9  and  O_10
REMARK    8  A    between atoms: P_13  and  O_15
REMARK    9  A    between atoms: P_13  and  C_16
REMARK   10  A    between atoms: C_16  and  C_17
REMARK   11  A    between atoms: C_17  and  C_18
REMARK   12  A    between atoms: C_17  and  C_25
REMARK   13  A    between atoms: C_18  and  C_19
REMARK   14  A    between atoms: C_25  and  O_27
REMARK                            x       y       z     vdW  Elec       q    Type
REMARK                         _______ _______ _______ _____ _____    ______ ____
ROOT
ATOM      1  P   UNL     1       5.057   4.537  18.528  0.00  0.00    +0.000 P 
ATOM      2  O   UNL     1       5.413   5.363  19.777  0.00  0.00    +0.000 OA
ENDROOT
BRANCH   1   3
ATOM      3  O   UNL     1       5.185   2.946  18.984  0.00  0.00    +0.000 OA
ATOM      4  H   UNL     1       4.782   2.851  19.889  0.00  0.00    +0.000 HD
ENDBRANCH   1   3
BRANCH   1   5
ATOM      5  C   UNL     1       3.286   4.538  18.986  0.00  0.00    +0.000 C 
BRANCH   5   6
ATOM      6  N   UNL     1       3.257   4.944  20.427  0.00  0.00    +0.000 NA
ATOM      7  H   UNL     1       2.372   4.631  20.836  0.00  0.00    +0.000 HD
ATOM      8  H   UNL     1       3.169   5.975  20.405  0.00  0.00    +0.000 HD
ENDBRANCH   5   6
BRANCH   5   9
ATOM      9  C   UNL     1       2.414   5.487  18.153  0.00  0.00    +0.000 C 
BRANCH   9  10
ATOM     10  C   UNL     1       3.049   6.871  17.985  0.00  0.00    +0.000 C 
BRANCH  10  11
ATOM     11  C   UNL     1       2.186   7.934  18.621  0.00  0.00    +0.000 A 
ATOM     12  C   UNL     1       1.708   9.008  17.862  0.00  0.00    +0.000 A 
ATOM     13  C   UNL     1       0.963  10.027  18.463  0.00  0.00    +0.000 A 
ATOM     14  C   UNL     1       0.678   9.992  19.835  0.00  0.00    +0.000 A 
ATOM     15  C   UNL     1       1.175   8.925  20.596  0.00  0.00    +0.000 A 
ATOM     16  C   UNL     1       1.915   7.902  19.994  0.00  0.00    +0.000 A 
BRANCH  14  17
ATOM     17  C   UNL     1      -0.073  11.134  20.472  0.00  0.00    +0.000 C 
BRANCH  17  18
ATOM     18  O   UNL     1       0.510  11.532  21.706  0.00  0.00    +0.000 OA
ATOM     19  H   UNL     1       0.005  11.087  22.407  0.00  0.00    +0.000 HD
ENDBRANCH  17  18
ENDBRANCH  14  17
ENDBRANCH  10  11
ENDBRANCH   9  10
ENDBRANCH   5   9
ENDBRANCH   1   5
BRANCH   1  20
ATOM     20  C   UNL     1       6.829   4.536  18.070  0.00  0.00    +0.000 C 
BRANCH  20  21
ATOM     21  C   UNL     1       7.178   5.590  17.002  0.00  0.00    +0.000 C 
BRANCH  21  22
ATOM     22  C   UNL     1       7.583   6.917  17.621  0.00  0.00    +0.000 C 
ATOM     23  O   UNL     1       7.529   8.007  17.067  0.00  0.00    +0.000 OA
BRANCH  22  24
ATOM     24  O   UNL     1       8.120   6.795  18.859  0.00  0.00    +0.000 OA
ATOM     25  H   UNL     1       8.896   7.362  19.027  0.00  0.00    +0.000 HD
ENDBRANCH  22  24
ENDBRANCH  21  22
BRANCH  21  26
ATOM     26  C   UNL     1       6.111   5.755  15.894  0.00  0.00    +0.000 C 
BRANCH  26  27
ATOM     27  C   UNL     1       6.366   5.037  14.587  0.00  0.00    +0.000 A 
ATOM     28  C   UNL     1       7.506   5.359  13.832  0.00  0.00    +0.000 A 
ATOM     29  C   UNL     1       7.724   4.773  12.584  0.00  0.00    +0.000 A 
ATOM     30  C   UNL     1       6.807   3.860  12.073  0.00  0.00    +0.000 A 
ATOM     31  C   UNL     1       5.692   3.504  12.824  0.00  0.00    +0.000 A 
ATOM     32  C   UNL     1       5.491   4.066  14.084  0.00  0.00    +0.000 A 
ENDBRANCH  26  27
ENDBRANCH  21  26
ENDBRANCH  20  21
ENDBRANCH   1  20
TORSDOF 14
ENDMDL
MODEL 2
REMARK VINA RESULT:      -7.1      2.628      3.919
REMARK  Name = 
REMARK  14 active torsions:
REMARK  status: ('A' for Active; 'I' for Inactive)
REMARK    1  A    between atoms: N_1  and  C_2
REMARK    2  A    between atoms: C_2  and  C_3
REMARK    3  A    between atoms: C_2  and  P_13
REMARK    4  A    between atoms: C_3  and  C_4
REMARK    5  A    between atoms: C_4  and  C_5
REMARK    6  A    between atoms: C_8  and  C_9
REMARK    7  A    between atoms: C_9  and  O_10
REMARK    8  A    between atoms: P_13  and  O_15
REMARK    9  A    between atoms: P_13  and  C_16
REMARK   10  A    between atoms: C_16  and  C_17
REMARK   11  A    between atoms: C_17  and  C_18
REMARK   12  A    between atoms: C_17  and  C_25
REMARK   13  A    between atoms: C_18  and  C_19
REMARK   14  A    between atoms: C_25  and  O_27
REMARK                            x       y       z     vdW  Elec       q    Type
REMARK                         _______ _______ _______ _____ _____    ______ ____
ROOT
ATOM      1  P   UNL     1       2.367   3.095  18.650  0.00  0.00    +0.000 P 
ATOM      2  O   UNL     1       3.418   2.168  19.289  0.00  0.00    +0.000 OA
ENDROOT
BRANCH   1   3
ATOM      3  O   UNL     1       1.223   2.093  17.985  0.00  0.00    +0.000 OA
ATOM      4  H   UNL     1       0.328   2.396  18.298  0.00  0.00    +0.000 HD
ENDBRANCH   1   3
BRANCH   1   5
ATOM      5  C   UNL     1       1.419   3.158  20.214  0.00  0.00    +0.000 C 
BRANCH   5   6
ATOM      6  N   UNL     1       2.261   2.421  21.209  0.00  0.00    +0.000 NA
ATOM      7  H   UNL     1       2.319   2.981  22.064  0.00  0.00    +0.000 HD
ATOM      8  H   UNL     1       3.220   2.463  20.821  0.00  0.00    +0.000 HD
ENDBRANCH   5   6
BRANCH   5   9
ATOM      9  C   UNL     1       1.123   4.576  20.720  0.00  0.00    +0.000 C 
BRANCH   9  10
ATOM     10  C   UNL     1       2.369   5.468  20.730  0.00  0.00    +0.000 C 
BRANCH  10  11
ATOM     11  C   UNL     1       2.044   6.844  20.199  0.00  0.00    +0.000 A 
ATOM     12  C   UNL     1       1.327   7.756  20.982  0.00  0.00    +0.000 A 
ATOM     13  C   UNL     1       0.969   9.005  20.469  0.00  0.00    +0.000 A 
ATOM     14  C   UNL     1       1.323   9.371  19.163  0.00  0.00    +0.000 A 
ATOM     15  C   UNL     1       2.023   8.449  18.375  0.00  0.00    +0.000 A 
ATOM     16  C   UNL     1       2.387   7.200  18.890  0.00  0.00    +0.000 A 
BRANCH  14  17
ATOM     17  C   UNL     1       0.871  10.699  18.611  0.00  0.00    +0.000 C 
BRANCH  17  18
ATOM     18  O   UNL     1      -0.299  10.573  17.812  0.00  0.00    +0.000 OA
ATOM     19  H   UNL     1      -0.926  10.035  18.323  0.00  0.00    +0.000 HD
ENDBRANCH  17  18
ENDBRANCH  14  17
ENDBRANCH  10  11
ENDBRANCH   9  10
ENDBRANCH   5   9
ENDBRANCH   1   5
BRANCH   1  20
ATOM     20  C   UNL     1       3.316   3.031  17.086  0.00  0.00    +0.000 C 
BRANCH  20  21
ATOM     21  C   UNL     1       4.254   4.238  16.899  0.00  0.00    +0.000 C 
BRANCH  21  22
ATOM     22  C   UNL     1       5.245   4.021  15.767  0.00  0.00    +0.000 C 
ATOM     23  O   UNL     1       5.337   4.710  14.760  0.00  0.00    +0.000 OA
BRANCH  22  24
ATOM     24  O   UNL     1       5.997   2.904  15.914  0.00  0.00    +0.000 OA
ATOM     25  H   UNL     1       5.650   2.257  16.557  0.00  0.00    +0.000 HD
ENDBRANCH  22  24
ENDBRANCH  21  22
BRANCH  21  26
ATOM     26  C   UNL     1       4.937   4.725  18.199  0.00  0.00    +0.000 C 
BRANCH  26  27
ATOM     27  C   UNL     1       5.999   5.793  18.055  0.00  0.00    +0.000 A 
ATOM     28  C   UNL     1       7.222   5.647  18.728  0.00  0.00    +0.000 A 
ATOM     29  C   UNL     1       8.187   6.654  18.680  0.00  0.00    +0.000 A 
ATOM     30  C   UNL     1       7.943   7.820  17.961  0.00  0.00    +0.000 A 
ATOM     31  C   UNL     1       6.752   7.964  17.260  0.00  0.00    +0.000 A 
ATOM     32  C   UNL     1       5.801   6.944  17.282  0.00  0.00    +0.000 A 
ENDBRANCH  26  27
ENDBRANCH  21  26
ENDBRANCH  20  21
ENDBRANCH   1  20
TORSDOF 14
ENDMDL
MODEL 3
REMARK VINA RESULT:      -7.0      2.053      3.747
REMARK  Name = 
REMARK  14 active torsions:
REMARK  status: ('A' for Active; 'I' for Inactive)
REMARK    1  A    between atoms: N_1  and  C_2
REMARK    2  A    between atoms: C_2  and  C_3
REMARK    3  A    between atoms: C_2  and  P_13
REMARK    4  A    between atoms: C_3  and  C_4
REMARK    5  A    between atoms: C_4  and  C_5
REMARK    6  A    between atoms: C_8  and  C_9
REMARK    7  A    between atoms: C_9  and  O_10
REMARK    8  A    between atoms: P_13  and  O_15
REMARK    9  A    between atoms: P_13  and  C_16
REMARK   10  A    between atoms: C_16  and  C_17
REMARK   11  A    between atoms: C_17  and  C_18
REMARK   12  A    between atoms: C_17  and  C_25
REMARK   13  A    between atoms: C_18  and  C_19
REMARK   14  A    between atoms: C_25  and  O_27
REMARK                            x       y       z     vdW  Elec       q    Type
REMARK                         _______ _______ _______ _____ _____    ______ ____
ROOT
ATOM      1  P   UNL     1       3.197   3.751  17.861  0.00  0.00    +0.000 P 
ATOM      2  O   UNL     1       3.689   2.625  18.790  0.00  0.00    +0.000 OA
ENDROOT
BRANCH   1   3
ATOM      3  O   UNL     1       2.266   3.010  16.704  0.00  0.00    +0.000 OA
ATOM      4  H   UNL     1       1.356   2.867  17.084  0.00  0.00    +0.000 HD
ENDBRANCH   1   3
BRANCH   1   5
ATOM      5  C   UNL     1       1.715   4.012  18.903  0.00  0.00    +0.000 C 
BRANCH   5   6
ATOM      6  N   UNL     1       1.387   2.661  19.459  0.00  0.00    +0.000 NA
ATOM      7  H   UNL     1       0.382   2.499  19.348  0.00  0.00    +0.000 HD
ATOM      8  H   UNL     1       1.510   2.763  20.482  0.00  0.00    +0.000 HD
ENDBRANCH   5   6
BRANCH   5   9
ATOM      9  C   UNL     1       1.911   5.019  20.044  0.00  0.00    +0.000 C 
BRANCH   9  10
ATOM     10  C   UNL     1       2.953   6.091  19.710  0.00  0.00    +0.000 C 
BRANCH  10  11
ATOM     11  C   UNL     1       2.287   7.425  19.470  0.00  0.00    +0.000 A 
ATOM     12  C   UNL     1       1.573   8.057  20.495  0.00  0.00    +0.000 A 
ATOM     13  C   UNL     1       0.903   9.259  20.257  0.00  0.00    +0.000 A 
ATOM     14  C   UNL     1       0.934   9.858  18.990  0.00  0.00    +0.000 A 
ATOM     15  C   UNL     1       1.633   9.214  17.961  0.00  0.00    +0.000 A 
ATOM     16  C   UNL     1       2.309   8.013  18.200  0.00  0.00    +0.000 A 
BRANCH  14  17
ATOM     17  C   UNL     1       0.151  11.123  18.742  0.00  0.00    +0.000 C 
BRANCH  17  18
ATOM     18  O   UNL     1      -0.520  11.571  19.912  0.00  0.00    +0.000 OA
ATOM     19  H   UNL     1      -1.466  11.601  19.695  0.00  0.00    +0.000 HD
ENDBRANCH  17  18
ENDBRANCH  14  17
ENDBRANCH  10  11
ENDBRANCH   9  10
ENDBRANCH   5   9
ENDBRANCH   1   5
BRANCH   1  20
ATOM     20  C   UNL     1       4.679   3.488  16.820  0.00  0.00    +0.000 C 
BRANCH  20  21
ATOM     21  C   UNL     1       4.960   4.661  15.862  0.00  0.00    +0.000 C 
BRANCH  21  22
ATOM     22  C   UNL     1       6.186   4.412  14.999  0.00  0.00    +0.000 C 
ATOM     23  O   UNL     1       7.336   4.702  15.296  0.00  0.00    +0.000 OA
BRANCH  22  24
ATOM     24  O   UNL     1       5.893   3.904  13.777  0.00  0.00    +0.000 OA
ATOM     25  H   UNL     1       4.996   3.530  13.692  0.00  0.00    +0.000 HD
ENDBRANCH  22  24
ENDBRANCH  21  22
BRANCH  21  26
ATOM     26  C   UNL     1       4.986   6.050  16.542  0.00  0.00    +0.000 C 
BRANCH  26  27
ATOM     27  C   UNL     1       6.206   6.381  17.374  0.00  0.00    +0.000 A 
ATOM     28  C   UNL     1       6.554   5.551  18.451  0.00  0.00    +0.000 A 
ATOM     29  C   UNL     1       7.624   5.876  19.286  0.00  0.00    +0.000 A 
ATOM     30  C   UNL     1       8.360   7.035  19.056  0.00  0.00    +0.000 A 
ATOM     31  C   UNL     1       8.050   7.848  17.972  0.00  0.00    +0.000 A 
ATOM     32  C   UNL     1       7.001   7.505  17.120  0.00  0.00    +0.000 A 
ENDBRANCH  26  27
ENDBRANCH  21  26
ENDBRANCH  20  21
ENDBRANCH   1  20
TORSDOF 14
ENDMDL
MODEL 4
REMARK VINA RESULT:      -7.0      1.749      2.465
REMARK  Name = 
REMARK  14 active torsions:
REMARK  status: ('A' for Active; 'I' for Inactive)
REMARK    1  A    between atoms: N_1  and  C_2
REMARK    2  A    between atoms: C_2  and  C_3
REMARK    3  A    between atoms: C_2  and  P_13
REMARK    4  A    between atoms: C_3  and  C_4
REMARK    5  A    between atoms: C_4  and  C_5
REMARK    6  A    between atoms: C_8  and  C_9
REMARK    7  A    between atoms: C_9  and  O_10
REMARK    8  A    between atoms: P_13  and  O_15
REMARK    9  A    between atoms: P_13  and  C_16
REMARK   10  A    between atoms: C_16  and  C_17
REMARK   11  A    between atoms: C_17  and  C_18
REMARK   12  A    between atoms: C_17  and  C_25
REMARK   13  A    between atoms: C_18  and  C_19
REMARK   14  A    between atoms: C_25  and  O_27
REMARK                            x       y       z     vdW  Elec       q    Type
REMARK                         _______ _______ _______ _____ _____    ______ ____
ROOT
ATOM      1  P   UNL     1       2.815   3.378  18.439  0.00  0.00    +0.000 P 
ATOM      2  O   UNL     1       3.384   2.746  19.723  0.00  0.00    +0.000 OA
ENDROOT
BRANCH   1   3
ATOM      3  O   UNL     1       1.797   2.242  17.785  0.00  0.00    +0.000 OA
ATOM      4  H   UNL     1       1.015   2.717  17.392  0.00  0.00    +0.000 HD
ENDBRANCH   1   3
BRANCH   1   5
ATOM      5  C   UNL     1       1.420   4.107  19.373  0.00  0.00    +0.000 C 
BRANCH   5   6
ATOM      6  N   UNL     1       0.761   2.949  20.054  0.00  0.00    +0.000 NA
ATOM      7  H   UNL     1       1.236   2.089  19.766  0.00  0.00    +0.000 HD
ATOM      8  H   UNL     1      -0.171   2.878  19.606  0.00  0.00    +0.000 HD
ENDBRANCH   5   6
BRANCH   5   9
ATOM      9  C   UNL     1       1.831   5.163  20.407  0.00  0.00    +0.000 C 
BRANCH   9  10
ATOM     10  C   UNL     1       2.855   6.160  19.855  0.00  0.00    +0.000 C 
BRANCH  10  11
ATOM     11  C   UNL     1       2.202   7.488  19.559  0.00  0.00    +0.000 A 
ATOM     12  C   UNL     1       1.470   8.155  20.549  0.00  0.00    +0.000 A 
ATOM     13  C   UNL     1       0.811   9.352  20.259  0.00  0.00    +0.000 A 
ATOM     14  C   UNL     1       0.870   9.910  18.975  0.00  0.00    +0.000 A 
ATOM     15  C   UNL     1       1.587   9.231  17.982  0.00  0.00    +0.000 A 
ATOM     16  C   UNL     1       2.253   8.035  18.272  0.00  0.00    +0.000 A 
BRANCH  14  17
ATOM     17  C   UNL     1       0.099  11.170  18.671  0.00  0.00    +0.000 C 
BRANCH  17  18
ATOM     18  O   UNL     1      -1.121  11.235  19.399  0.00  0.00    +0.000 OA
ATOM     19  H   UNL     1      -0.897  11.565  20.285  0.00  0.00    +0.000 HD
ENDBRANCH  17  18
ENDBRANCH  14  17
ENDBRANCH  10  11
ENDBRANCH   9  10
ENDBRANCH   5   9
ENDBRANCH   1   5
BRANCH   1  20
ATOM     20  C   UNL     1       4.211   2.649  17.506  0.00  0.00    +0.000 C 
BRANCH  20  21
ATOM     21  C   UNL     1       5.171   3.706  16.930  0.00  0.00    +0.000 C 
BRANCH  21  22
ATOM     22  C   UNL     1       5.645   4.685  17.992  0.00  0.00    +0.000 C 
ATOM     23  O   UNL     1       5.617   5.904  17.899  0.00  0.00    +0.000 OA
BRANCH  22  24
ATOM     24  O   UNL     1       6.212   4.085  19.066  0.00  0.00    +0.000 OA
ATOM     25  H   UNL     1       5.735   4.212  19.907  0.00  0.00    +0.000 HD
ENDBRANCH  22  24
ENDBRANCH  21  22
BRANCH  21  26
ATOM     26  C   UNL     1       4.651   4.418  15.659  0.00  0.00    +0.000 C 
BRANCH  26  27
ATOM     27  C   UNL     1       5.548   4.384  14.441  0.00  0.00    +0.000 A 
ATOM     28  C   UNL     1       5.142   3.670  13.303  0.00  0.00    +0.000 A 
ATOM     29  C   UNL     1       5.985   3.553  12.196  0.00  0.00    +0.000 A 
ATOM     30  C   UNL     1       7.244   4.145  12.213  0.00  0.00    +0.000 A 
ATOM     31  C   UNL     1       7.646   4.885  13.318  0.00  0.00    +0.000 A 
ATOM     32  C   UNL     1       6.791   5.029  14.411  0.00  0.00    +0.000 A 
ENDBRANCH  26  27
ENDBRANCH  21  26
ENDBRANCH  20  21
ENDBRANCH   1  20
TORSDOF 14
ENDMDL
MODEL 5
REMARK VINA RESULT:      -6.9      3.646      7.284
REMARK  Name = 
REMARK  14 active torsions:
REMARK  status: ('A' for Active; 'I' for Inactive)
REMARK    1  A    between atoms: N_1  and  C_2
REMARK    2  A    between atoms: C_2  and  C_3
REMARK    3  A    between atoms: C_2  and  P_13
REMARK    4  A    between atoms: C_3  and  C_4
REMARK    5  A    between atoms: C_4  and  C_5
REMARK    6  A    between atoms: C_8  and  C_9
REMARK    7  A    between atoms: C_9  and  O_10
REMARK    8  A    between atoms: P_13  and  O_15
REMARK    9  A    between atoms: P_13  and  C_16
REMARK   10  A    between atoms: C_16  and  C_17
REMARK   11  A    between atoms: C_17  and  C_18
REMARK   12  A    between atoms: C_17  and  C_25
REMARK   13  A    between atoms: C_18  and  C_19
REMARK   14  A    between atoms: C_25  and  O_27
REMARK                            x       y       z     vdW  Elec       q    Type
REMARK                         _______ _______ _______ _____ _____    ______ ____
ROOT
ATOM      1  P   UNL     1       6.422   5.471  18.619  0.00  0.00    +0.000 P 
ATOM      2  O   UNL     1       6.844   4.212  17.838  0.00  0.00    +0.000 OA
ENDROOT
BRANCH   1   3
ATOM      3  O   UNL     1       7.230   5.399  20.067  0.00  0.00    +0.000 OA
ATOM      4  H   UNL     1       8.117   5.836  19.947  0.00  0.00    +0.000 HD
ENDBRANCH   1   3
BRANCH   1   5
ATOM      5  C   UNL     1       7.796   6.431  17.885  0.00  0.00    +0.000 C 
BRANCH   5   6
ATOM      6  N   UNL     1       7.376   6.691  16.472  0.00  0.00    +0.000 NA
ATOM      7  H   UNL     1       6.880   7.587  16.439  0.00  0.00    +0.000 HD
ATOM      8  H   UNL     1       6.636   5.992  16.286  0.00  0.00    +0.000 HD
ENDBRANCH   5   6
BRANCH   5   9
ATOM      9  C   UNL     1       8.096   7.756  18.599  0.00  0.00    +0.000 C 
BRANCH   9  10
ATOM     10  C   UNL     1       7.981   8.965  17.666  0.00  0.00    +0.000 C 
BRANCH  10  11
ATOM     11  C   UNL     1       8.656  10.172  18.271  0.00  0.00    +0.000 A 
ATOM     12  C   UNL     1       9.360  10.062  19.476  0.00  0.00    +0.000 A 
ATOM     13  C   UNL     1       9.931  11.190  20.071  0.00  0.00    +0.000 A 
ATOM     14  C   UNL     1       9.813  12.453  19.473  0.00  0.00    +0.000 A 
ATOM     15  C   UNL     1       9.092  12.563  18.278  0.00  0.00    +0.000 A 
ATOM     16  C   UNL     1       8.525  11.433  17.678  0.00  0.00    +0.000 A 
BRANCH  14  17
ATOM     17  C   UNL     1      10.383  13.664  20.167  0.00  0.00    +0.000 C 
BRANCH  17  18
ATOM     18  O   UNL     1      10.170  13.622  21.572  0.00  0.00    +0.000 OA
ATOM     19  H   UNL     1       9.912  14.519  21.840  0.00  0.00    +0.000 HD
ENDBRANCH  17  18
ENDBRANCH  14  17
ENDBRANCH  10  11
ENDBRANCH   9  10
ENDBRANCH   5   9
ENDBRANCH   1   5
BRANCH   1  20
ATOM     20  C   UNL     1       5.048   4.509  19.353  0.00  0.00    +0.000 C 
BRANCH  20  21
ATOM     21  C   UNL     1       3.784   5.354  19.601  0.00  0.00    +0.000 C 
BRANCH  21  22
ATOM     22  C   UNL     1       2.645   4.524  20.169  0.00  0.00    +0.000 C 
ATOM     23  O   UNL     1       1.834   3.885  19.513  0.00  0.00    +0.000 OA
BRANCH  22  24
ATOM     24  O   UNL     1       2.528   4.617  21.515  0.00  0.00    +0.000 OA
ATOM     25  H   UNL     1       2.559   5.526  21.868  0.00  0.00    +0.000 HD
ENDBRANCH  22  24
ENDBRANCH  21  22
BRANCH  21  26
ATOM     26  C   UNL     1       3.344   6.216  18.394  0.00  0.00    +0.000 C 
BRANCH  26  27
ATOM     27  C   UNL     1       2.562   7.474  18.701  0.00  0.00    +0.000 A 
ATOM     28  C   UNL     1       1.998   7.644  19.975  0.00  0.00    +0.000 A 
ATOM     29  C   UNL     1       1.203   8.755  20.261  0.00  0.00    +0.000 A 
ATOM     30  C   UNL     1       0.960   9.710  19.279  0.00  0.00    +0.000 A 
ATOM     31  C   UNL     1       1.541   9.574  18.023  0.00  0.00    +0.000 A 
ATOM     32  C   UNL     1       2.361   8.480  17.748  0.00  0.00    +0.000 A 
ENDBRANCH  26  27
ENDBRANCH  21  26
ENDBRANCH  20  21
ENDBRANCH   1  20
TORSDOF 14
ENDMDL
MODEL 6
REMARK VINA RESULT:      -6.9      1.841      2.382
REMARK  Name = 
REMARK  14 active torsions:
REMARK  status: ('A' for Active; 'I' for Inactive)
REMARK    1  A    between atoms: N_1  and  C_2
REMARK    2  A    between atoms: C_2  and  C_3
REMARK    3  A    between atoms: C_2  and  P_13
REMARK    4  A    between atoms: C_3  and  C_4
REMARK    5  A    between atoms: C_4  and  C_5
REMARK    6  A    between atoms: C_8  and  C_9
REMARK    7  A    between atoms: C_9  and  O_10
REMARK    8  A    between atoms: P_13  and  O_15
REMARK    9  A    between atoms: P_13  and  C_16
REMARK   10  A    between atoms: C_16  and  C_17
REMARK   11  A    between atoms: C_17  and  C_18
REMARK   12  A    between atoms: C_17  and  C_25
REMARK   13  A    between atoms: C_18  and  C_19
REMARK   14  A    between atoms: C_25  and  O_27
REMARK                            x       y       z     vdW  Elec       q    Type
REMARK                         _______ _______ _______ _____ _____    ______ ____
ROOT
ATOM      1  P   UNL     1       2.840   3.456  18.614  0.00  0.00    +0.000 P 
ATOM      2  O   UNL     1       3.027   2.357  19.677  0.00  0.00    +0.000 OA
ENDROOT
BRANCH   1   3
ATOM      3  O   UNL     1       1.806   2.821  17.481  0.00  0.00    +0.000 OA
ATOM      4  H   UNL     1       1.172   2.212  17.949  0.00  0.00    +0.000 HD
ENDBRANCH   1   3
BRANCH   1   5
ATOM      5  C   UNL     1       1.422   4.156  19.534  0.00  0.00    +0.000 C 
BRANCH   5   6
ATOM      6  N   UNL     1       0.853   3.006  20.306  0.00  0.00    +0.000 NA
ATOM      7  H   UNL     1       0.601   2.265  19.646  0.00  0.00    +0.000 HD
ATOM      8  H   UNL     1      -0.060   3.350  20.652  0.00  0.00    +0.000 HD
ENDBRANCH   5   6
BRANCH   5   9
ATOM      9  C   UNL     1       1.786   5.302  20.487  0.00  0.00    +0.000 C 
BRANCH   9  10
ATOM     10  C   UNL     1       2.743   6.315  19.849  0.00  0.00    +0.000 C 
BRANCH  10  11
ATOM     11  C   UNL     1       2.040   7.627  19.597  0.00  0.00    +0.000 A 
ATOM     12  C   UNL     1       2.143   8.260  18.352  0.00  0.00    +0.000 A 
ATOM     13  C   UNL     1       1.547   9.505  18.138  0.00  0.00    +0.000 A 
ATOM     14  C   UNL     1       0.833  10.144  19.161  0.00  0.00    +0.000 A 
ATOM     15  C   UNL     1       0.747   9.517  20.410  0.00  0.00    +0.000 A 
ATOM     16  C   UNL     1       1.338   8.267  20.625  0.00  0.00    +0.000 A 
BRANCH  14  17
ATOM     17  C   UNL     1       0.253  11.515  18.923  0.00  0.00    +0.000 C 
BRANCH  17  18
ATOM     18  O   UNL     1      -0.647  11.529  17.822  0.00  0.00    +0.000 OA
ATOM     19  H   UNL     1      -0.637  10.633  17.446  0.00  0.00    +0.000 HD
ENDBRANCH  17  18
ENDBRANCH  14  17
ENDBRANCH  10  11
ENDBRANCH   9  10
ENDBRANCH   5   9
ENDBRANCH   1   5
BRANCH   1  20
ATOM     20  C   UNL     1       4.259   2.755  17.694  0.00  0.00    +0.000 C 
BRANCH  20  21
ATOM     21  C   UNL     1       5.184   3.832  17.098  0.00  0.00    +0.000 C 
BRANCH  21  22
ATOM     22  C   UNL     1       5.623   4.848  18.139  0.00  0.00    +0.000 C 
ATOM     23  O   UNL     1       5.576   6.064  18.012  0.00  0.00    +0.000 OA
BRANCH  22  24
ATOM     24  O   UNL     1       6.181   4.288  19.239  0.00  0.00    +0.000 OA
ATOM     25  H   UNL     1       5.889   3.376  19.429  0.00  0.00    +0.000 HD
ENDBRANCH  22  24
ENDBRANCH  21  22
BRANCH  21  26
ATOM     26  C   UNL     1       4.642   4.500  15.811  0.00  0.00    +0.000 C 
BRANCH  26  27
ATOM     27  C   UNL     1       5.511   4.409  14.576  0.00  0.00    +0.000 A 
ATOM     28  C   UNL     1       5.083   3.635  13.485  0.00  0.00    +0.000 A 
ATOM     29  C   UNL     1       5.901   3.466  12.366  0.00  0.00    +0.000 A 
ATOM     30  C   UNL     1       7.155   4.066  12.323  0.00  0.00    +0.000 A 
ATOM     31  C   UNL     1       7.578   4.864  13.379  0.00  0.00    +0.000 A 
ATOM     32  C   UNL     1       6.748   5.058  14.483  0.00  0.00    +0.000 A 
ENDBRANCH  26  27
ENDBRANCH  21  26
ENDBRANCH  20  21
ENDBRANCH   1  20
TORSDOF 14
ENDMDL
MODEL 7
REMARK VINA RESULT:      -6.7      1.672      2.099
REMARK  Name = 
REMARK  14 active torsions:
REMARK  status: ('A' for Active; 'I' for Inactive)
REMARK    1  A    between atoms: N_1  and  C_2
REMARK    2  A    between atoms: C_2  and  C_3
REMARK    3  A    between atoms: C_2  and  P_13
REMARK    4  A    between atoms: C_3  and  C_4
REMARK    5  A    between atoms: C_4  and  C_5
REMARK    6  A    between atoms: C_8  and  C_9
REMARK    7  A    between atoms: C_9  and  O_10
REMARK    8  A    between atoms: P_13  and  O_15
REMARK    9  A    between atoms: P_13  and  C_16
REMARK   10  A    between atoms: C_16  and  C_17
REMARK   11  A    between atoms: C_17  and  C_18
REMARK   12  A    between atoms: C_17  and  C_25
REMARK   13  A    between atoms: C_18  and  C_19
REMARK   14  A    between atoms: C_25  and  O_27
REMARK                            x       y       z     vdW  Elec       q    Type
REMARK                         _______ _______ _______ _____ _____    ______ ____
ROOT
ATOM      1  P   UNL     1       3.217   4.005  17.905  0.00  0.00    +0.000 P 
ATOM      2  O   UNL     1       4.384   3.469  18.755  0.00  0.00    +0.000 OA
ENDROOT
BRANCH   1   3
ATOM      3  O   UNL     1       2.476   2.669  17.256  0.00  0.00    +0.000 OA
ATOM      4  H   UNL     1       2.765   2.587  16.306  0.00  0.00    +0.000 HD
ENDBRANCH   1   3
BRANCH   1   5
ATOM      5  C   UNL     1       2.091   3.944  19.346  0.00  0.00    +0.000 C 
BRANCH   5   6
ATOM      6  N   UNL     1       2.502   2.723  20.108  0.00  0.00    +0.000 NA
ATOM      7  H   UNL     1       1.705   2.405  20.667  0.00  0.00    +0.000 HD
ATOM      8  H   UNL     1       3.175   3.070  20.814  0.00  0.00    +0.000 HD
ENDBRANCH   5   6
BRANCH   5   9
ATOM      9  C   UNL     1       2.154   5.180  20.254  0.00  0.00    +0.000 C 
BRANCH   9  10
ATOM     10  C   UNL     1       2.994   6.310  19.651  0.00  0.00    +0.000 C 
BRANCH  10  11
ATOM     11  C   UNL     1       2.156   7.549  19.450  0.00  0.00    +0.000 A 
ATOM     12  C   UNL     1       2.094   8.168  18.197  0.00  0.00    +0.000 A 
ATOM     13  C   UNL     1       1.370   9.351  18.024  0.00  0.00    +0.000 A 
ATOM     14  C   UNL     1       0.692   9.940  19.100  0.00  0.00    +0.000 A 
ATOM     15  C   UNL     1       0.772   9.328  20.358  0.00  0.00    +0.000 A 
ATOM     16  C   UNL     1       1.490   8.140  20.530  0.00  0.00    +0.000 A 
BRANCH  14  17
ATOM     17  C   UNL     1      -0.029  11.249  18.903  0.00  0.00    +0.000 C 
BRANCH  17  18
ATOM     18  O   UNL     1       0.805  12.230  18.299  0.00  0.00    +0.000 OA
ATOM     19  H   UNL     1       1.680  11.822  18.194  0.00  0.00    +0.000 HD
ENDBRANCH  17  18
ENDBRANCH  14  17
ENDBRANCH  10  11
ENDBRANCH   9  10
ENDBRANCH   5   9
ENDBRANCH   1   5
BRANCH   1  20
ATOM     20  C   UNL     1       4.344   4.066  16.463  0.00  0.00    +0.000 C 
BRANCH  20  21
ATOM     21  C   UNL     1       5.599   4.924  16.713  0.00  0.00    +0.000 C 
BRANCH  21  22
ATOM     22  C   UNL     1       5.352   6.395  16.423  0.00  0.00    +0.000 C 
ATOM     23  O   UNL     1       4.911   6.850  15.377  0.00  0.00    +0.000 OA
BRANCH  22  24
ATOM     24  O   UNL     1       5.758   7.218  17.420  0.00  0.00    +0.000 OA
ATOM     25  H   UNL     1       6.690   7.501  17.364  0.00  0.00    +0.000 HD
ENDBRANCH  22  24
ENDBRANCH  21  22
BRANCH  21  26
ATOM     26  C   UNL     1       6.882   4.393  16.031  0.00  0.00    +0.000 C 
BRANCH  26  27
ATOM     27  C   UNL     1       6.912   4.418  14.519  0.00  0.00    +0.000 A 
ATOM     28  C   UNL     1       6.111   3.520  13.795  0.00  0.00    +0.000 A 
ATOM     29  C   UNL     1       6.181   3.465  12.403  0.00  0.00    +0.000 A 
ATOM     30  C   UNL     1       7.052   4.303  11.714  0.00  0.00    +0.000 A 
ATOM     31  C   UNL     1       7.825   5.222  12.413  0.00  0.00    +0.000 A 
ATOM     32  C   UNL     1       7.732   5.299  13.802  0.00  0.00    +0.000 A 
ENDBRANCH  26  27
ENDBRANCH  21  26
ENDBRANCH  20  21
ENDBRANCH   1  20
TORSDOF 14
ENDMDL
MODEL 8
REMARK VINA RESULT:      -6.7      0.898      1.630
REMARK  Name = 
REMARK  14 active torsions:
REMARK  status: ('A' for Active; 'I' for Inactive)
REMARK    1  A    between atoms: N_1  and  C_2
REMARK    2  A    between atoms: C_2  and  C_3
REMARK    3  A    between atoms: C_2  and  P_13
REMARK    4  A    between atoms: C_3  and  C_4
REMARK    5  A    between atoms: C_4  and  C_5
REMARK    6  A    between atoms: C_8  and  C_9
REMARK    7  A    between atoms: C_9  and  O_10
REMARK    8  A    between atoms: P_13  and  O_15
REMARK    9  A    between atoms: P_13  and  C_16
REMARK   10  A    between atoms: C_16  and  C_17
REMARK   11  A    between atoms: C_17  and  C_18
REMARK   12  A    between atoms: C_17  and  C_25
REMARK   13  A    between atoms: C_18  and  C_19
REMARK   14  A    between atoms: C_25  and  O_27
REMARK                            x       y       z     vdW  Elec       q    Type
REMARK                         _______ _______ _______ _____ _____    ______ ____
ROOT
ATOM      1  P   UNL     1       4.911   4.427  18.736  0.00  0.00    +0.000 P 
ATOM      2  O   UNL     1       5.305   5.439  19.827  0.00  0.00    +0.000 OA
ENDROOT
BRANCH   1   3
ATOM      3  O   UNL     1       5.197   2.926  19.384  0.00  0.00    +0.000 OA
ATOM      4  H   UNL     1       4.965   2.243  18.697  0.00  0.00    +0.000 HD
ENDBRANCH   1   3
BRANCH   1   5
ATOM      5  C   UNL     1       3.189   4.378  19.351  0.00  0.00    +0.000 C 
BRANCH   5   6
ATOM      6  N   UNL     1       3.225   3.464  20.535  0.00  0.00    +0.000 NA
ATOM      7  H   UNL     1       3.055   2.507  20.213  0.00  0.00    +0.000 HD
ATOM      8  H   UNL     1       2.371   3.699  21.072  0.00  0.00    +0.000 HD
ENDBRANCH   5   6
BRANCH   5   9
ATOM      9  C   UNL     1       2.620   5.745  19.756  0.00  0.00    +0.000 C 
BRANCH   9  10
ATOM     10  C   UNL     1       2.465   6.694  18.563  0.00  0.00    +0.000 C 
BRANCH  10  11
ATOM     11  C   UNL     1       1.959   8.042  19.017  0.00  0.00    +0.000 A 
ATOM     12  C   UNL     1       1.511   8.227  20.330  0.00  0.00    +0.000 A 
ATOM     13  C   UNL     1       0.983   9.456  20.733  0.00  0.00    +0.000 A 
ATOM     14  C   UNL     1       0.894  10.528  19.834  0.00  0.00    +0.000 A 
ATOM     15  C   UNL     1       1.326  10.334  18.516  0.00  0.00    +0.000 A 
ATOM     16  C   UNL     1       1.860   9.106  18.112  0.00  0.00    +0.000 A 
BRANCH  14  17
ATOM     17  C   UNL     1       0.263  11.824  20.276  0.00  0.00    +0.000 C 
BRANCH  17  18
ATOM     18  O   UNL     1       1.044  12.487  21.262  0.00  0.00    +0.000 OA
ATOM     19  H   UNL     1       1.423  13.272  20.832  0.00  0.00    +0.000 HD
ENDBRANCH  17  18
ENDBRANCH  14  17
ENDBRANCH  10  11
ENDBRANCH   9  10
ENDBRANCH   5   9
ENDBRANCH   1   5
BRANCH   1  20
ATOM     20  C   UNL     1       6.635   4.476  18.121  0.00  0.00    +0.000 C 
BRANCH  20  21
ATOM     21  C   UNL     1       6.746   4.991  16.674  0.00  0.00    +0.000 C 
BRANCH  21  22
ATOM     22  C   UNL     1       6.623   6.504  16.596  0.00  0.00    +0.000 C 
ATOM     23  O   UNL     1       5.615   7.121  16.282  0.00  0.00    +0.000 OA
BRANCH  22  24
ATOM     24  O   UNL     1       7.791   7.154  16.822  0.00  0.00    +0.000 OA
ATOM     25  H   UNL     1       8.396   7.187  16.058  0.00  0.00    +0.000 HD
ENDBRANCH  22  24
ENDBRANCH  21  22
BRANCH  21  26
ATOM     26  C   UNL     1       5.821   4.270  15.666  0.00  0.00    +0.000 C 
BRANCH  26  27
ATOM     27  C   UNL     1       6.254   4.277  14.216  0.00  0.00    +0.000 A 
ATOM     28  C   UNL     1       5.583   3.462  13.290  0.00  0.00    +0.000 A 
ATOM     29  C   UNL     1       6.012   3.386  11.964  0.00  0.00    +0.000 A 
ATOM     30  C   UNL     1       7.118   4.120  11.546  0.00  0.00    +0.000 A 
ATOM     31  C   UNL     1       7.770   4.959  12.441  0.00  0.00    +0.000 A 
ATOM     32  C   UNL     1       7.321   5.059  13.758  0.00  0.00    +0.000 A 
ENDBRANCH  26  27
ENDBRANCH  21  26
ENDBRANCH  20  21
ENDBRANCH   1  20
TORSDOF 14
ENDMDL
MODEL 9
REMARK VINA RESULT:      -6.6      2.396      3.925
REMARK  Name = 
REMARK  14 active torsions:
REMARK  status: ('A' for Active; 'I' for Inactive)
REMARK    1  A    between atoms: N_1  and  C_2
REMARK    2  A    between atoms: C_2  and  C_3
REMARK    3  A    between atoms: C_2  and  P_13
REMARK    4  A    between atoms: C_3  and  C_4
REMARK    5  A    between atoms: C_4  and  C_5
REMARK    6  A    between atoms: C_8  and  C_9
REMARK    7  A    between atoms: C_9  and  O_10
REMARK    8  A    between atoms: P_13  and  O_15
REMARK    9  A    between atoms: P_13  and  C_16
REMARK   10  A    between atoms: C_16  and  C_17
REMARK   11  A    between atoms: C_17  and  C_18
REMARK   12  A    between atoms: C_17  and  C_25
REMARK   13  A    between atoms: C_18  and  C_19
REMARK   14  A    between atoms: C_25  and  O_27
REMARK                            x       y       z     vdW  Elec       q    Type
REMARK                         _______ _______ _______ _____ _____    ______ ____
ROOT
ATOM      1  P   UNL     1       3.437   3.212  17.897  0.00  0.00    +0.000 P 
ATOM      2  O   UNL     1       3.594   1.690  17.724  0.00  0.00    +0.000 OA
ENDROOT
BRANCH   1   3
ATOM      3  O   UNL     1       2.071   3.627  17.051  0.00  0.00    +0.000 OA
ATOM      4  H   UNL     1       1.370   2.946  17.243  0.00  0.00    +0.000 HD
ENDBRANCH   1   3
BRANCH   1   5
ATOM      5  C   UNL     1       2.441   2.974  19.413  0.00  0.00    +0.000 C 
BRANCH   5   6
ATOM      6  N   UNL     1       3.436   2.664  20.488  0.00  0.00    +0.000 NA
ATOM      7  H   UNL     1       3.953   1.823  20.219  0.00  0.00    +0.000 HD
ATOM      8  H   UNL     1       2.863   2.356  21.293  0.00  0.00    +0.000 HD
ENDBRANCH   5   6
BRANCH   5   9
ATOM      9  C   UNL     1       1.593   4.189  19.813  0.00  0.00    +0.000 C 
BRANCH   9  10
ATOM     10  C   UNL     1       2.410   5.262  20.540  0.00  0.00    +0.000 C 
BRANCH  10  11
ATOM     11  C   UNL     1       2.143   6.626  19.952  0.00  0.00    +0.000 A 
ATOM     12  C   UNL     1       1.534   7.624  20.723  0.00  0.00    +0.000 A 
ATOM     13  C   UNL     1       1.226   8.866  20.161  0.00  0.00    +0.000 A 
ATOM     14  C   UNL     1       1.524   9.139  18.819  0.00  0.00    +0.000 A 
ATOM     15  C   UNL     1       2.116   8.132  18.046  0.00  0.00    +0.000 A 
ATOM     16  C   UNL     1       2.429   6.891  18.608  0.00  0.00    +0.000 A 
BRANCH  14  17
ATOM     17  C   UNL     1       1.125  10.464  18.220  0.00  0.00    +0.000 C 
BRANCH  17  18
ATOM     18  O   UNL     1       2.256  11.239  17.843  0.00  0.00    +0.000 OA
ATOM     19  H   UNL     1       3.040  10.711  18.068  0.00  0.00    +0.000 HD
ENDBRANCH  17  18
ENDBRANCH  14  17
ENDBRANCH  10  11
ENDBRANCH   9  10
ENDBRANCH   5   9
ENDBRANCH   1   5
BRANCH   1  20
ATOM     20  C   UNL     1       4.434   3.449  16.380  0.00  0.00    +0.000 C 
BRANCH  20  21
ATOM     21  C   UNL     1       5.282   4.735  16.409  0.00  0.00    +0.000 C 
BRANCH  21  22
ATOM     22  C   UNL     1       6.604   4.563  15.680  0.00  0.00    +0.000 C 
ATOM     23  O   UNL     1       7.587   3.981  16.117  0.00  0.00    +0.000 OA
BRANCH  22  24
ATOM     24  O   UNL     1       6.653   5.209  14.490  0.00  0.00    +0.000 OA
ATOM     25  H   UNL     1       6.980   4.672  13.744  0.00  0.00    +0.000 HD
ENDBRANCH  22  24
ENDBRANCH  21  22
BRANCH  21  26
ATOM     26  C   UNL     1       5.457   5.353  17.816  0.00  0.00    +0.000 C 
BRANCH  26  27
ATOM     27  C   UNL     1       6.526   6.413  17.969  0.00  0.00    +0.000 A 
ATOM     28  C   UNL     1       7.605   6.187  18.837  0.00  0.00    +0.000 A 
ATOM     29  C   UNL     1       8.561   7.179  19.060  0.00  0.00    +0.000 A 
ATOM     30  C   UNL     1       8.451   8.410  18.421  0.00  0.00    +0.000 A 
ATOM     31  C   UNL     1       7.407   8.636  17.531  0.00  0.00    +0.000 A 
ATOM     32  C   UNL     1       6.471   7.634  17.284  0.00  0.00    +0.000 A 
ENDBRANCH  26  27
ENDBRANCH  21  26
ENDBRANCH  20  21
ENDBRANCH   1  20
TORSDOF 14
ENDMDL
