MODEL 1
REMARK VINA RESULT:      -9.2      0.000      0.000
REMARK  Name = 
REMARK  8 active torsions:
REMARK  status: ('A' for Active; 'I' for Inactive)
REMARK    1  A    between atoms: C_1  and  C_2
REMARK    2  A    between atoms: C_2  and  C_3
REMARK    3  A    between atoms: C_4  and  C_5
REMARK    4  A    between atoms: C_5  and  N_6
REMARK    5  A    between atoms: C_17  and  S_18
REMARK    6  A    between atoms: S_18  and  C_19
REMARK    7  A    between atoms: C_19  and  C_20
REMARK    8  A    between atoms: C_20  and  C_22
REMARK                            x       y       z     vdW  Elec       q    Type
REMARK                         _______ _______ _______ _____ _____    ______ ____
ROOT
ATOM      1  C   UNL     1       2.633   4.264  18.740  0.00  0.00    +0.000 A 
ATOM      2  C   UNL     1       3.038   5.248  19.583  0.00  0.00    +0.000 A 
ATOM      3  N   UNL     1       4.372   5.630  19.716  0.00  0.00    +0.000 NA
ATOM      4  C   UNL     1       5.249   4.965  19.045  0.00  0.00    +0.000 A 
ATOM      5  N   UNL     1       4.966   3.932  18.221  0.00  0.00    +0.000 N 
ATOM      6  C   UNL     1       3.698   3.515  18.011  0.00  0.00    +0.000 A 
ATOM      7  O   UNL     1       3.450   2.594  17.239  0.00  0.00    +0.000 OA
ATOM      8  H   UNL     1       5.712   3.460  17.739  0.00  0.00    +0.000 HD
ENDROOT
BRANCH   1  10
ATOM      9  C   UNL     1       0.841   2.553  19.270  0.00  0.00    +0.000 C 
ATOM     10  C   UNL     1       1.236   3.778  18.450  0.00  0.00    +0.000 C 
ENDBRANCH   1  10
BRANCH   2  11
ATOM     11  C   UNL     1       2.066   6.147  20.368  0.00  0.00    +0.000 C 
BRANCH  11  12
ATOM     12  N   UNL     1       1.980   7.521  19.839  0.00  0.00    +0.000 N 
ATOM     13  C   UNL     1       2.552   7.779  18.513  0.00  0.00    +0.000 C 
ATOM     14  C   UNL     1       1.613   8.605  17.649  0.00  0.00    +0.000 C 
ATOM     15  C   UNL     1       1.341   9.936  18.322  0.00  0.00    +0.000 C 
ATOM     16  C   UNL     1       1.001   9.763  19.781  0.00  0.00    +0.000 A 
ATOM     17  C   UNL     1       0.395  10.854  20.436  0.00  0.00    +0.000 A 
ATOM     18  C   UNL     1       0.067  10.779  21.782  0.00  0.00    +0.000 A 
ATOM     19  C   UNL     1       0.322   9.605  22.472  0.00  0.00    +0.000 A 
ATOM     20  C   UNL     1       0.918   8.517  21.820  0.00  0.00    +0.000 A 
ATOM     21  C   UNL     1       1.309   8.566  20.473  0.00  0.00    +0.000 A 
ENDBRANCH  11  12
ENDBRANCH   2  11
BRANCH   4  22
ATOM     22  S   UNL     1       6.943   5.340  19.026  0.00  0.00    +0.000 S 
BRANCH  22  23
ATOM     23  C   UNL     1       7.468   4.557  17.483  0.00  0.00    +0.000 C 
BRANCH  23  24
ATOM     24  C   UNL     1       7.329   5.456  16.270  0.00  0.00    +0.000 C 
ATOM     25  O   UNL     1       7.576   6.661  16.279  0.00  0.00    +0.000 OA
BRANCH  24  26
ATOM     26  C   UNL     1       6.882   4.844  14.981  0.00  0.00    +0.000 A 
ATOM     27  C   UNL     1       7.608   4.986  13.788  0.00  0.00    +0.000 A 
ATOM     28  C   UNL     1       7.129   4.415  12.604  0.00  0.00    +0.000 A 
ATOM     29  C   UNL     1       5.936   3.702  12.614  0.00  0.00    +0.000 A 
ATOM     30  F   UNL     1       5.482   3.159  11.476  0.00  0.00    +0.000 F 
ATOM     31  C   UNL     1       5.207   3.546  13.785  0.00  0.00    +0.000 A 
ATOM     32  C   UNL     1       5.679   4.118  14.969  0.00  0.00    +0.000 A 
ENDBRANCH  24  26
ENDBRANCH  23  24
ENDBRANCH  22  23
ENDBRANCH   4  22
TORSDOF 7
ENDMDL
MODEL 2
REMARK VINA RESULT:      -8.5      1.188      1.340
REMARK  Name = 
REMARK  8 active torsions:
REMARK  status: ('A' for Active; 'I' for Inactive)
REMARK    1  A    between atoms: C_1  and  C_2
REMARK    2  A    between atoms: C_2  and  C_3
REMARK    3  A    between atoms: C_4  and  C_5
REMARK    4  A    between atoms: C_5  and  N_6
REMARK    5  A    between atoms: C_17  and  S_18
REMARK    6  A    between atoms: S_18  and  C_19
REMARK    7  A    between atoms: C_19  and  C_20
REMARK    8  A    between atoms: C_20  and  C_22
REMARK                            x       y       z     vdW  Elec       q    Type
REMARK                         _______ _______ _______ _____ _____    ______ ____
ROOT
ATOM      1  C   UNL     1       2.982   3.628  19.932  0.00  0.00    +0.000 A 
ATOM      2  C   UNL     1       3.119   4.975  20.024  0.00  0.00    +0.000 A 
ATOM      3  N   UNL     1       4.275   5.648  19.629  0.00  0.00    +0.000 NA
ATOM      4  C   UNL     1       5.266   4.932  19.219  0.00  0.00    +0.000 A 
ATOM      5  N   UNL     1       5.260   3.584  19.141  0.00  0.00    +0.000 N 
ATOM      6  C   UNL     1       4.173   2.855  19.475  0.00  0.00    +0.000 A 
ATOM      7  O   UNL     1       4.169   1.631  19.373  0.00  0.00    +0.000 OA
ATOM      8  H   UNL     1       6.080   3.100  18.817  0.00  0.00    +0.000 HD
ENDROOT
BRANCH   1  10
ATOM      9  C   UNL     1       1.604   2.549  21.765  0.00  0.00    +0.000 C 
ATOM     10  C   UNL     1       1.788   2.771  20.266  0.00  0.00    +0.000 C 
ENDBRANCH   1  10
BRANCH   2  11
ATOM     11  C   UNL     1       1.973   5.921  20.429  0.00  0.00    +0.000 C 
BRANCH  11  12
ATOM     12  N   UNL     1       2.048   7.243  19.781  0.00  0.00    +0.000 N 
ATOM     13  C   UNL     1       2.706   7.327  18.472  0.00  0.00    +0.000 C 
ATOM     14  C   UNL     1       1.894   8.156  17.489  0.00  0.00    +0.000 C 
ATOM     15  C   UNL     1       1.722   9.562  18.031  0.00  0.00    +0.000 C 
ATOM     16  C   UNL     1       1.298   9.553  19.478  0.00  0.00    +0.000 A 
ATOM     17  C   UNL     1       0.771  10.750  20.004  0.00  0.00    +0.000 A 
ATOM     18  C   UNL     1       0.373  10.827  21.330  0.00  0.00    +0.000 A 
ATOM     19  C   UNL     1       0.479   9.701  22.131  0.00  0.00    +0.000 A 
ATOM     20  C   UNL     1       0.995   8.508  21.608  0.00  0.00    +0.000 A 
ATOM     21  C   UNL     1       1.454   8.400  20.285  0.00  0.00    +0.000 A 
ENDBRANCH  11  12
ENDBRANCH   2  11
BRANCH   4  22
ATOM     22  S   UNL     1       6.755   5.592  18.620  0.00  0.00    +0.000 S 
BRANCH  22  23
ATOM     23  C   UNL     1       7.102   4.492  17.228  0.00  0.00    +0.000 C 
BRANCH  23  24
ATOM     24  C   UNL     1       6.038   4.528  16.148  0.00  0.00    +0.000 C 
ATOM     25  O   UNL     1       4.831   4.584  16.378  0.00  0.00    +0.000 OA
BRANCH  24  26
ATOM     26  C   UNL     1       6.478   4.512  14.719  0.00  0.00    +0.000 A 
ATOM     27  C   UNL     1       7.528   5.314  14.245  0.00  0.00    +0.000 A 
ATOM     28  C   UNL     1       7.879   5.279  12.891  0.00  0.00    +0.000 A 
ATOM     29  C   UNL     1       7.189   4.446  12.019  0.00  0.00    +0.000 A 
ATOM     30  F   UNL     1       7.530   4.419  10.724  0.00  0.00    +0.000 F 
ATOM     31  C   UNL     1       6.151   3.642  12.471  0.00  0.00    +0.000 A 
ATOM     32  C   UNL     1       5.794   3.675  13.820  0.00  0.00    +0.000 A 
ENDBRANCH  24  26
ENDBRANCH  23  24
ENDBRANCH  22  23
ENDBRANCH   4  22
TORSDOF 7
ENDMDL
MODEL 3
REMARK VINA RESULT:      -8.4      0.984      1.252
REMARK  Name = 
REMARK  8 active torsions:
REMARK  status: ('A' for Active; 'I' for Inactive)
REMARK    1  A    between atoms: C_1  and  C_2
REMARK    2  A    between atoms: C_2  and  C_3
REMARK    3  A    between atoms: C_4  and  C_5
REMARK    4  A    between atoms: C_5  and  N_6
REMARK    5  A    between atoms: C_17  and  S_18
REMARK    6  A    between atoms: S_18  and  C_19
REMARK    7  A    between atoms: C_19  and  C_20
REMARK    8  A    between atoms: C_20  and  C_22
REMARK                            x       y       z     vdW  Elec       q    Type
REMARK                         _______ _______ _______ _____ _____    ______ ____
ROOT
ATOM      1  C   UNL     1       2.800   4.030  18.787  0.00  0.00    +0.000 A 
ATOM      2  C   UNL     1       3.294   4.972  19.629  0.00  0.00    +0.000 A 
ATOM      3  N   UNL     1       4.658   5.232  19.758  0.00  0.00    +0.000 NA
ATOM      4  C   UNL     1       5.469   4.491  19.083  0.00  0.00    +0.000 A 
ATOM      5  N   UNL     1       5.091   3.489  18.260  0.00  0.00    +0.000 N 
ATOM      6  C   UNL     1       3.790   3.189  18.053  0.00  0.00    +0.000 A 
ATOM      7  O   UNL     1       3.457   2.294  17.282  0.00  0.00    +0.000 OA
ATOM      8  H   UNL     1       5.790   2.953  17.775  0.00  0.00    +0.000 HD
ENDROOT
BRANCH   1  10
ATOM      9  C   UNL     1       0.773   2.693  19.513  0.00  0.00    +0.000 C 
ATOM     10  C   UNL     1       1.364   3.672  18.502  0.00  0.00    +0.000 C 
ENDBRANCH   1  10
BRANCH   2  11
ATOM     11  C   UNL     1       2.410   5.954  20.419  0.00  0.00    +0.000 C 
BRANCH  11  12
ATOM     12  N   UNL     1       2.272   7.271  19.770  0.00  0.00    +0.000 N 
ATOM     13  C   UNL     1       2.900   7.454  18.457  0.00  0.00    +0.000 C 
ATOM     14  C   UNL     1       1.963   8.144  17.478  0.00  0.00    +0.000 C 
ATOM     15  C   UNL     1       1.575   9.506  18.020  0.00  0.00    +0.000 C 
ATOM     16  C   UNL     1       1.165   9.433  19.469  0.00  0.00    +0.000 A 
ATOM     17  C   UNL     1       0.459  10.533  19.997  0.00  0.00    +0.000 A 
ATOM     18  C   UNL     1       0.062  10.549  21.326  0.00  0.00    +0.000 A 
ATOM     19  C   UNL     1       0.349   9.455  22.127  0.00  0.00    +0.000 A 
ATOM     20  C   UNL     1       1.043   8.358  21.602  0.00  0.00    +0.000 A 
ATOM     21  C   UNL     1       1.505   8.320  20.276  0.00  0.00    +0.000 A 
ENDBRANCH  11  12
ENDBRANCH   2  11
BRANCH   4  22
ATOM     22  S   UNL     1       7.190   4.712  19.058  0.00  0.00    +0.000 S 
BRANCH  22  23
ATOM     23  C   UNL     1       7.319   6.508  18.884  0.00  0.00    +0.000 C 
BRANCH  23  24
ATOM     24  C   UNL     1       7.366   6.974  17.443  0.00  0.00    +0.000 C 
ATOM     25  O   UNL     1       7.886   8.029  17.081  0.00  0.00    +0.000 OA
BRANCH  24  26
ATOM     26  C   UNL     1       6.763   6.097  16.393  0.00  0.00    +0.000 A 
ATOM     27  C   UNL     1       7.495   5.097  15.734  0.00  0.00    +0.000 A 
ATOM     28  C   UNL     1       6.887   4.323  14.740  0.00  0.00    +0.000 A 
ATOM     29  C   UNL     1       5.554   4.544  14.410  0.00  0.00    +0.000 A 
ATOM     30  F   UNL     1       4.979   3.800  13.456  0.00  0.00    +0.000 F 
ATOM     31  C   UNL     1       4.813   5.525  15.055  0.00  0.00    +0.000 A 
ATOM     32  C   UNL     1       5.416   6.302  16.045  0.00  0.00    +0.000 A 
ENDBRANCH  24  26
ENDBRANCH  23  24
ENDBRANCH  22  23
ENDBRANCH   4  22
TORSDOF 7
ENDMDL
MODEL 4
REMARK VINA RESULT:      -8.2      4.875      7.820
REMARK  Name = 
REMARK  8 active torsions:
REMARK  status: ('A' for Active; 'I' for Inactive)
REMARK    1  A    between atoms: C_1  and  C_2
REMARK    2  A    between atoms: C_2  and  C_3
REMARK    3  A    between atoms: C_4  and  C_5
REMARK    4  A    between atoms: C_5  and  N_6
REMARK    5  A    between atoms: C_17  and  S_18
REMARK    6  A    between atoms: S_18  and  C_19
REMARK    7  A    between atoms: C_19  and  C_20
REMARK    8  A    between atoms: C_20  and  C_22
REMARK                            x       y       z     vdW  Elec       q    Type
REMARK                         _______ _______ _______ _____ _____    ______ ____
ROOT
ATOM      1  C   UNL     1      -1.209  11.565  21.819  0.00  0.00    +0.000 A 
ATOM      2  C   UNL     1      -1.314  11.974  20.529  0.00  0.00    +0.000 A 
ATOM      3  N   UNL     1      -0.579  11.402  19.491  0.00  0.00    +0.000 NA
ATOM      4  C   UNL     1       0.275  10.488  19.803  0.00  0.00    +0.000 A 
ATOM      5  N   UNL     1       0.502  10.044  21.058  0.00  0.00    +0.000 N 
ATOM      6  C   UNL     1      -0.186  10.522  22.119  0.00  0.00    +0.000 A 
ATOM      7  O   UNL     1       0.010  10.091  23.252  0.00  0.00    +0.000 OA
ATOM      8  H   UNL     1       1.194   9.331  21.217  0.00  0.00    +0.000 HD
ENDROOT
BRANCH   1  10
ATOM      9  C   UNL     1      -1.542  13.435  23.497  0.00  0.00    +0.000 C 
ATOM     10  C   UNL     1      -1.966  12.044  23.031  0.00  0.00    +0.000 C 
ENDBRANCH   1  10
BRANCH   2  11
ATOM     11  C   UNL     1      -2.352  13.002  20.045  0.00  0.00    +0.000 C 
BRANCH  11  12
ATOM     12  N   UNL     1      -3.548  12.387  19.439  0.00  0.00    +0.000 N 
ATOM     13  C   UNL     1      -3.419  11.830  18.088  0.00  0.00    +0.000 C 
ATOM     14  C   UNL     1      -4.058  10.454  17.986  0.00  0.00    +0.000 C 
ATOM     15  C   UNL     1      -5.533  10.552  18.327  0.00  0.00    +0.000 C 
ATOM     16  C   UNL     1      -5.761  11.354  19.583  0.00  0.00    +0.000 A 
ATOM     17  C   UNL     1      -7.023  11.237  20.202  0.00  0.00    +0.000 A 
ATOM     18  C   UNL     1      -7.316  11.955  21.352  0.00  0.00    +0.000 A 
ATOM     19  C   UNL     1      -6.343  12.775  21.900  0.00  0.00    +0.000 A 
ATOM     20  C   UNL     1      -5.087  12.887  21.290  0.00  0.00    +0.000 A 
ATOM     21  C   UNL     1      -4.764  12.215  20.100  0.00  0.00    +0.000 A 
ENDBRANCH  11  12
ENDBRANCH   2  11
BRANCH   4  22
ATOM     22  S   UNL     1       1.224   9.613  18.643  0.00  0.00    +0.000 S 
BRANCH  22  23
ATOM     23  C   UNL     1       1.842   8.241  19.646  0.00  0.00    +0.000 C 
BRANCH  23  24
ATOM     24  C   UNL     1       2.532   7.162  18.835  0.00  0.00    +0.000 C 
ATOM     25  O   UNL     1       3.420   7.385  18.013  0.00  0.00    +0.000 OA
BRANCH  24  26
ATOM     26  C   UNL     1       2.126   5.740  19.056  0.00  0.00    +0.000 A 
ATOM     27  C   UNL     1       1.825   5.231  20.329  0.00  0.00    +0.000 A 
ATOM     28  C   UNL     1       1.477   3.885  20.482  0.00  0.00    +0.000 A 
ATOM     29  C   UNL     1       1.427   3.053  19.369  0.00  0.00    +0.000 A 
ATOM     30  F   UNL     1       1.095   1.765  19.523  0.00  0.00    +0.000 F 
ATOM     31  C   UNL     1       1.717   3.539  18.101  0.00  0.00    +0.000 A 
ATOM     32  C   UNL     1       2.068   4.882  17.944  0.00  0.00    +0.000 A 
ENDBRANCH  24  26
ENDBRANCH  23  24
ENDBRANCH  22  23
ENDBRANCH   4  22
TORSDOF 7
ENDMDL
MODEL 5
REMARK VINA RESULT:      -8.1      3.748      8.199
REMARK  Name = 
REMARK  8 active torsions:
REMARK  status: ('A' for Active; 'I' for Inactive)
REMARK    1  A    between atoms: C_1  and  C_2
REMARK    2  A    between atoms: C_2  and  C_3
REMARK    3  A    between atoms: C_4  and  C_5
REMARK    4  A    between atoms: C_5  and  N_6
REMARK    5  A    between atoms: C_17  and  S_18
REMARK    6  A    between atoms: S_18  and  C_19
REMARK    7  A    between atoms: C_19  and  C_20
REMARK    8  A    between atoms: C_20  and  C_22
REMARK                            x       y       z     vdW  Elec       q    Type
REMARK                         _______ _______ _______ _____ _____    ______ ____
ROOT
ATOM      1  C   UNL     1       2.637   3.954  19.815  0.00  0.00    +0.000 A 
ATOM      2  C   UNL     1       2.651   4.887  18.830  0.00  0.00    +0.000 A 
ATOM      3  N   UNL     1       2.287   6.217  19.042  0.00  0.00    +0.000 NA
ATOM      4  C   UNL     1       1.866   6.536  20.218  0.00  0.00    +0.000 A 
ATOM      5  N   UNL     1       1.758   5.678  21.255  0.00  0.00    +0.000 N 
ATOM      6  C   UNL     1       2.115   4.379  21.146  0.00  0.00    +0.000 A 
ATOM      7  O   UNL     1       2.038   3.614  22.103  0.00  0.00    +0.000 OA
ATOM      8  H   UNL     1       1.411   6.007  22.140  0.00  0.00    +0.000 HD
ENDROOT
BRANCH   1  10
ATOM      9  C   UNL     1       4.541   2.289  19.980  0.00  0.00    +0.000 C 
ATOM     10  C   UNL     1       3.047   2.504  19.754  0.00  0.00    +0.000 C 
ENDBRANCH   1  10
BRANCH   2  11
ATOM     11  C   UNL     1       3.205   4.626  17.418  0.00  0.00    +0.000 C 
BRANCH  11  12
ATOM     12  N   UNL     1       4.601   5.066  17.245  0.00  0.00    +0.000 N 
ATOM     13  C   UNL     1       5.257   5.721  18.383  0.00  0.00    +0.000 C 
ATOM     14  C   UNL     1       6.656   5.173  18.615  0.00  0.00    +0.000 C 
ATOM     15  C   UNL     1       7.502   5.399  17.377  0.00  0.00    +0.000 C 
ATOM     16  C   UNL     1       6.774   4.989  16.122  0.00  0.00    +0.000 A 
ATOM     17  C   UNL     1       7.546   4.817  14.955  0.00  0.00    +0.000 A 
ATOM     18  C   UNL     1       6.948   4.456  13.757  0.00  0.00    +0.000 A 
ATOM     19  C   UNL     1       5.579   4.244  13.725  0.00  0.00    +0.000 A 
ATOM     20  C   UNL     1       4.812   4.408  14.886  0.00  0.00    +0.000 A 
ATOM     21  C   UNL     1       5.369   4.817  16.108  0.00  0.00    +0.000 A 
ENDBRANCH  11  12
ENDBRANCH   2  11
BRANCH   4  22
ATOM     22  S   UNL     1       1.441   8.151  20.689  0.00  0.00    +0.000 S 
BRANCH  22  23
ATOM     23  C   UNL     1       1.401   8.993  19.089  0.00  0.00    +0.000 C 
BRANCH  23  24
ATOM     24  C   UNL     1       0.792  10.380  19.150  0.00  0.00    +0.000 C 
ATOM     25  O   UNL     1       1.386  11.372  19.570  0.00  0.00    +0.000 OA
BRANCH  24  26
ATOM     26  C   UNL     1      -0.608  10.562  18.656  0.00  0.00    +0.000 A 
ATOM     27  C   UNL     1      -1.507  11.459  19.253  0.00  0.00    +0.000 A 
ATOM     28  C   UNL     1      -2.814  11.570  18.766  0.00  0.00    +0.000 A 
ATOM     29  C   UNL     1      -3.217  10.793  17.686  0.00  0.00    +0.000 A 
ATOM     30  F   UNL     1      -4.471  10.903  17.227  0.00  0.00    +0.000 F 
ATOM     31  C   UNL     1      -2.340   9.904  17.079  0.00  0.00    +0.000 A 
ATOM     32  C   UNL     1      -1.036   9.787  17.564  0.00  0.00    +0.000 A 
ENDBRANCH  24  26
ENDBRANCH  23  24
ENDBRANCH  22  23
ENDBRANCH   4  22
TORSDOF 7
ENDMDL
MODEL 6
REMARK VINA RESULT:      -8.1      0.726      1.037
REMARK  Name = 
REMARK  8 active torsions:
REMARK  status: ('A' for Active; 'I' for Inactive)
REMARK    1  A    between atoms: C_1  and  C_2
REMARK    2  A    between atoms: C_2  and  C_3
REMARK    3  A    between atoms: C_4  and  C_5
REMARK    4  A    between atoms: C_5  and  N_6
REMARK    5  A    between atoms: C_17  and  S_18
REMARK    6  A    between atoms: S_18  and  C_19
REMARK    7  A    between atoms: C_19  and  C_20
REMARK    8  A    between atoms: C_20  and  C_22
REMARK                            x       y       z     vdW  Elec       q    Type
REMARK                         _______ _______ _______ _____ _____    ______ ____
ROOT
ATOM      1  C   UNL     1       2.978   4.139  18.651  0.00  0.00    +0.000 A 
ATOM      2  C   UNL     1       3.187   5.129  19.555  0.00  0.00    +0.000 A 
ATOM      3  N   UNL     1       4.461   5.563  19.922  0.00  0.00    +0.000 NA
ATOM      4  C   UNL     1       5.468   4.941  19.410  0.00  0.00    +0.000 A 
ATOM      5  N   UNL     1       5.377   3.908  18.546  0.00  0.00    +0.000 N 
ATOM      6  C   UNL     1       4.183   3.442  18.116  0.00  0.00    +0.000 A 
ATOM      7  O   UNL     1       4.112   2.520  17.309  0.00  0.00    +0.000 OA
ATOM      8  H   UNL     1       6.214   3.472  18.199  0.00  0.00    +0.000 HD
ENDROOT
BRANCH   1  10
ATOM      9  C   UNL     1       0.976   2.647  19.088  0.00  0.00    +0.000 C 
ATOM     10  C   UNL     1       1.674   3.599  18.120  0.00  0.00    +0.000 C 
ENDBRANCH   1  10
BRANCH   2  11
ATOM     11  C   UNL     1       2.057   5.978  20.163  0.00  0.00    +0.000 C 
BRANCH  11  12
ATOM     12  N   UNL     1       2.055   7.375  19.691  0.00  0.00    +0.000 N 
ATOM     13  C   UNL     1       2.675   7.658  18.392  0.00  0.00    +0.000 C 
ATOM     14  C   UNL     1       1.802   8.565  17.539  0.00  0.00    +0.000 C 
ATOM     15  C   UNL     1       1.579   9.880  18.261  0.00  0.00    +0.000 C 
ATOM     16  C   UNL     1       1.191   9.665  19.702  0.00  0.00    +0.000 A 
ATOM     17  C   UNL     1       0.622  10.758  20.388  0.00  0.00    +0.000 A 
ATOM     18  C   UNL     1       0.254  10.645  21.720  0.00  0.00    +0.000 A 
ATOM     19  C   UNL     1       0.432   9.432  22.367  0.00  0.00    +0.000 A 
ATOM     20  C   UNL     1       0.990   8.343  21.685  0.00  0.00    +0.000 A 
ATOM     21  C   UNL     1       1.420   8.427  20.351  0.00  0.00    +0.000 A 
ENDBRANCH  11  12
ENDBRANCH   2  11
BRANCH   4  22
ATOM     22  S   UNL     1       7.123   5.386  19.689  0.00  0.00    +0.000 S 
BRANCH  22  23
ATOM     23  C   UNL     1       7.853   5.091  18.061  0.00  0.00    +0.000 C 
BRANCH  23  24
ATOM     24  C   UNL     1       7.327   6.020  16.985  0.00  0.00    +0.000 C 
ATOM     25  O   UNL     1       7.456   7.244  17.013  0.00  0.00    +0.000 OA
BRANCH  24  26
ATOM     26  C   UNL     1       6.625   5.419  15.809  0.00  0.00    +0.000 A 
ATOM     27  C   UNL     1       5.307   5.759  15.464  0.00  0.00    +0.000 A 
ATOM     28  C   UNL     1       4.689   5.145  14.369  0.00  0.00    +0.000 A 
ATOM     29  C   UNL     1       5.385   4.202  13.622  0.00  0.00    +0.000 A 
ATOM     30  F   UNL     1       4.786   3.617  12.576  0.00  0.00    +0.000 F 
ATOM     31  C   UNL     1       6.690   3.856  13.945  0.00  0.00    +0.000 A 
ATOM     32  C   UNL     1       7.311   4.464  15.039  0.00  0.00    +0.000 A 
ENDBRANCH  24  26
ENDBRANCH  23  24
ENDBRANCH  22  23
ENDBRANCH   4  22
TORSDOF 7
ENDMDL
MODEL 7
REMARK VINA RESULT:      -8.1      3.934      6.519
REMARK  Name = 
REMARK  8 active torsions:
REMARK  status: ('A' for Active; 'I' for Inactive)
REMARK    1  A    between atoms: C_1  and  C_2
REMARK    2  A    between atoms: C_2  and  C_3
REMARK    3  A    between atoms: C_4  and  C_5
REMARK    4  A    between atoms: C_5  and  N_6
REMARK    5  A    between atoms: C_17  and  S_18
REMARK    6  A    between atoms: S_18  and  C_19
REMARK    7  A    between atoms: C_19  and  C_20
REMARK    8  A    between atoms: C_20  and  C_22
REMARK                            x       y       z     vdW  Elec       q    Type
REMARK                         _______ _______ _______ _____ _____    ______ ____
ROOT
ATOM      1  C   UNL     1      -0.081  10.918  21.922  0.00  0.00    +0.000 A 
ATOM      2  C   UNL     1       0.222  10.885  20.600  0.00  0.00    +0.000 A 
ATOM      3  N   UNL     1       0.826   9.786  19.988  0.00  0.00    +0.000 NA
ATOM      4  C   UNL     1       1.157   8.796  20.744  0.00  0.00    +0.000 A 
ATOM      5  N   UNL     1       0.955   8.745  22.078  0.00  0.00    +0.000 N 
ATOM      6  C   UNL     1       0.351   9.752  22.747  0.00  0.00    +0.000 A 
ATOM      7  O   UNL     1       0.148   9.683  23.955  0.00  0.00    +0.000 OA
ATOM      8  H   UNL     1       1.251   7.936  22.597  0.00  0.00    +0.000 HD
ENDROOT
BRANCH   1  10
ATOM      9  C   UNL     1      -2.199  11.635  23.114  0.00  0.00    +0.000 C 
ATOM     10  C   UNL     1      -0.774  12.000  22.710  0.00  0.00    +0.000 C 
ENDBRANCH   1  10
BRANCH   2  11
ATOM     11  C   UNL     1      -0.197  11.981  19.604  0.00  0.00    +0.000 C 
BRANCH  11  12
ATOM     12  N   UNL     1      -1.447  11.674  18.885  0.00  0.00    +0.000 N 
ATOM     13  C   UNL     1      -1.367  10.768  17.733  0.00  0.00    +0.000 C 
ATOM     14  C   UNL     1      -2.467   9.719  17.768  0.00  0.00    +0.000 C 
ATOM     15  C   UNL     1      -3.821  10.401  17.750  0.00  0.00    +0.000 C 
ATOM     16  C   UNL     1      -3.886  11.536  18.741  0.00  0.00    +0.000 A 
ATOM     17  C   UNL     1      -5.164  12.026  19.079  0.00  0.00    +0.000 A 
ATOM     18  C   UNL     1      -5.306  13.079  19.970  0.00  0.00    +0.000 A 
ATOM     19  C   UNL     1      -4.173  13.632  20.545  0.00  0.00    +0.000 A 
ATOM     20  C   UNL     1      -2.903  13.142  20.216  0.00  0.00    +0.000 A 
ATOM     21  C   UNL     1      -2.710  12.109  19.283  0.00  0.00    +0.000 A 
ENDBRANCH  11  12
ENDBRANCH   2  11
BRANCH   4  22
ATOM     22  S   UNL     1       1.849   7.317  20.154  0.00  0.00    +0.000 S 
BRANCH  22  23
ATOM     23  C   UNL     1       2.340   7.793  18.481  0.00  0.00    +0.000 C 
BRANCH  23  24
ATOM     24  C   UNL     1       3.345   6.848  17.853  0.00  0.00    +0.000 C 
ATOM     25  O   UNL     1       4.268   7.213  17.125  0.00  0.00    +0.000 OA
BRANCH  24  26
ATOM     26  C   UNL     1       3.224   5.387  18.145  0.00  0.00    +0.000 A 
ATOM     27  C   UNL     1       4.237   4.661  18.790  0.00  0.00    +0.000 A 
ATOM     28  C   UNL     1       4.082   3.288  19.014  0.00  0.00    +0.000 A 
ATOM     29  C   UNL     1       2.919   2.648  18.602  0.00  0.00    +0.000 A 
ATOM     30  F   UNL     1       2.778   1.333  18.819  0.00  0.00    +0.000 F 
ATOM     31  C   UNL     1       1.903   3.350  17.968  0.00  0.00    +0.000 A 
ATOM     32  C   UNL     1       2.055   4.720  17.738  0.00  0.00    +0.000 A 
ENDBRANCH  24  26
ENDBRANCH  23  24
ENDBRANCH  22  23
ENDBRANCH   4  22
TORSDOF 7
ENDMDL
MODEL 8
REMARK VINA RESULT:      -8.0      3.773      8.156
REMARK  Name = 
REMARK  8 active torsions:
REMARK  status: ('A' for Active; 'I' for Inactive)
REMARK    1  A    between atoms: C_1  and  C_2
REMARK    2  A    between atoms: C_2  and  C_3
REMARK    3  A    between atoms: C_4  and  C_5
REMARK    4  A    between atoms: C_5  and  N_6
REMARK    5  A    between atoms: C_17  and  S_18
REMARK    6  A    between atoms: S_18  and  C_19
REMARK    7  A    between atoms: C_19  and  C_20
REMARK    8  A    between atoms: C_20  and  C_22
REMARK                            x       y       z     vdW  Elec       q    Type
REMARK                         _______ _______ _______ _____ _____    ______ ____
ROOT
ATOM      1  C   UNL     1       2.713   3.974  19.819  0.00  0.00    +0.000 A 
ATOM      2  C   UNL     1       2.666   4.974  18.902  0.00  0.00    +0.000 A 
ATOM      3  N   UNL     1       2.274   6.275  19.219  0.00  0.00    +0.000 NA
ATOM      4  C   UNL     1       1.885   6.498  20.428  0.00  0.00    +0.000 A 
ATOM      5  N   UNL     1       1.837   5.567  21.405  0.00  0.00    +0.000 N 
ATOM      6  C   UNL     1       2.226   4.290  21.194  0.00  0.00    +0.000 A 
ATOM      7  O   UNL     1       2.204   3.459  22.096  0.00  0.00    +0.000 OA
ATOM      8  H   UNL     1       1.513   5.823  22.322  0.00  0.00    +0.000 HD
ENDROOT
BRANCH   1  10
ATOM      9  C   UNL     1       2.275   1.749  18.687  0.00  0.00    +0.000 C 
ATOM     10  C   UNL     1       3.160   2.546  19.642  0.00  0.00    +0.000 C 
ENDBRANCH   1  10
BRANCH   2  11
ATOM     11  C   UNL     1       3.177   4.828  17.458  0.00  0.00    +0.000 C 
BRANCH  11  12
ATOM     12  N   UNL     1       4.573   5.271  17.282  0.00  0.00    +0.000 N 
ATOM     13  C   UNL     1       5.200   6.006  18.386  0.00  0.00    +0.000 C 
ATOM     14  C   UNL     1       6.600   5.489  18.680  0.00  0.00    +0.000 C 
ATOM     15  C   UNL     1       7.467   5.643  17.445  0.00  0.00    +0.000 C 
ATOM     16  C   UNL     1       6.767   5.143  16.207  0.00  0.00    +0.000 A 
ATOM     17  C   UNL     1       7.563   4.903  15.068  0.00  0.00    +0.000 A 
ATOM     18  C   UNL     1       6.991   4.459  13.885  0.00  0.00    +0.000 A 
ATOM     19  C   UNL     1       5.625   4.230  13.842  0.00  0.00    +0.000 A 
ATOM     20  C   UNL     1       4.834   4.461  14.975  0.00  0.00    +0.000 A 
ATOM     21  C   UNL     1       5.364   4.956  16.178  0.00  0.00    +0.000 A 
ENDBRANCH  11  12
ENDBRANCH   2  11
BRANCH   4  22
ATOM     22  S   UNL     1       1.433   8.063  21.026  0.00  0.00    +0.000 S 
BRANCH  22  23
ATOM     23  C   UNL     1       1.209   8.984  19.486  0.00  0.00    +0.000 C 
BRANCH  23  24
ATOM     24  C   UNL     1       0.441  10.279  19.661  0.00  0.00    +0.000 C 
ATOM     25  O   UNL     1       0.765  11.166  20.451  0.00  0.00    +0.000 OA
BRANCH  24  26
ATOM     26  C   UNL     1      -0.771  10.506  18.815  0.00  0.00    +0.000 A 
ATOM     27  C   UNL     1      -0.995   9.809  17.618  0.00  0.00    +0.000 A 
ATOM     28  C   UNL     1      -2.134  10.081  16.852  0.00  0.00    +0.000 A 
ATOM     29  C   UNL     1      -3.045  11.038  17.283  0.00  0.00    +0.000 A 
ATOM     30  F   UNL     1      -4.132  11.294  16.543  0.00  0.00    +0.000 F 
ATOM     31  C   UNL     1      -2.843  11.734  18.467  0.00  0.00    +0.000 A 
ATOM     32  C   UNL     1      -1.706  11.469  19.234  0.00  0.00    +0.000 A 
ENDBRANCH  24  26
ENDBRANCH  23  24
ENDBRANCH  22  23
ENDBRANCH   4  22
TORSDOF 7
ENDMDL
MODEL 9
REMARK VINA RESULT:      -8.0      3.536      4.428
REMARK  Name = 
REMARK  8 active torsions:
REMARK  status: ('A' for Active; 'I' for Inactive)
REMARK    1  A    between atoms: C_1  and  C_2
REMARK    2  A    between atoms: C_2  and  C_3
REMARK    3  A    between atoms: C_4  and  C_5
REMARK    4  A    between atoms: C_5  and  N_6
REMARK    5  A    between atoms: C_17  and  S_18
REMARK    6  A    between atoms: S_18  and  C_19
REMARK    7  A    between atoms: C_19  and  C_20
REMARK    8  A    between atoms: C_20  and  C_22
REMARK                            x       y       z     vdW  Elec       q    Type
REMARK                         _______ _______ _______ _____ _____    ______ ____
ROOT
ATOM      1  C   UNL     1       3.004   4.378  18.334  0.00  0.00    +0.000 A 
ATOM      2  C   UNL     1       3.605   5.203  19.228  0.00  0.00    +0.000 A 
ATOM      3  N   UNL     1       4.983   5.422  19.250  0.00  0.00    +0.000 NA
ATOM      4  C   UNL     1       5.701   4.756  18.412  0.00  0.00    +0.000 A 
ATOM      5  N   UNL     1       5.216   3.869  17.517  0.00  0.00    +0.000 N 
ATOM      6  C   UNL     1       3.893   3.617  17.408  0.00  0.00    +0.000 A 
ATOM      7  O   UNL     1       3.461   2.829  16.573  0.00  0.00    +0.000 OA
ATOM      8  H   UNL     1       5.848   3.383  16.903  0.00  0.00    +0.000 HD
ENDROOT
BRANCH   1  10
ATOM      9  C   UNL     1       1.014   3.018  19.116  0.00  0.00    +0.000 C 
ATOM     10  C   UNL     1       1.537   4.082  18.154  0.00  0.00    +0.000 C 
ENDBRANCH   1  10
BRANCH   2  11
ATOM     11  C   UNL     1       2.832   6.095  20.215  0.00  0.00    +0.000 C 
BRANCH  11  12
ATOM     12  N   UNL     1       2.449   7.402  19.648  0.00  0.00    +0.000 N 
ATOM     13  C   UNL     1       2.910   7.719  18.292  0.00  0.00    +0.000 C 
ATOM     14  C   UNL     1       1.793   8.302  17.442  0.00  0.00    +0.000 C 
ATOM     15  C   UNL     1       1.277   9.576  18.085  0.00  0.00    +0.000 C 
ATOM     16  C   UNL     1       1.030   9.394  19.561  0.00  0.00    +0.000 A 
ATOM     17  C   UNL     1       0.237  10.364  20.207  0.00  0.00    +0.000 A 
ATOM     18  C   UNL     1      -0.022  10.276  21.567  0.00  0.00    +0.000 A 
ATOM     19  C   UNL     1       0.492   9.206  22.282  0.00  0.00    +0.000 A 
ATOM     20  C   UNL     1       1.274   8.237  21.640  0.00  0.00    +0.000 A 
ATOM     21  C   UNL     1       1.600   8.313  20.276  0.00  0.00    +0.000 A 
ENDBRANCH  11  12
ENDBRANCH   2  11
BRANCH   4  22
ATOM     22  S   UNL     1       7.418   4.950  18.241  0.00  0.00    +0.000 S 
BRANCH  22  23
ATOM     23  C   UNL     1       7.652   6.633  18.859  0.00  0.00    +0.000 C 
BRANCH  23  24
ATOM     24  C   UNL     1       7.810   7.665  17.760  0.00  0.00    +0.000 C 
ATOM     25  O   UNL     1       7.564   7.446  16.575  0.00  0.00    +0.000 OA
BRANCH  24  26
ATOM     26  C   UNL     1       8.273   9.036  18.136  0.00  0.00    +0.000 A 
ATOM     27  C   UNL     1       7.946  10.175  17.382  0.00  0.00    +0.000 A 
ATOM     28  C   UNL     1       8.430  11.431  17.764  0.00  0.00    +0.000 A 
ATOM     29  C   UNL     1       9.229  11.549  18.895  0.00  0.00    +0.000 A 
ATOM     30  F   UNL     1       9.690  12.754  19.254  0.00  0.00    +0.000 F 
ATOM     31  C   UNL     1       9.559  10.435  19.656  0.00  0.00    +0.000 A 
ATOM     32  C   UNL     1       9.082   9.178  19.276  0.00  0.00    +0.000 A 
ENDBRANCH  24  26
ENDBRANCH  23  24
ENDBRANCH  22  23
ENDBRANCH   4  22
TORSDOF 7
ENDMDL
