MODEL 1
REMARK VINA RESULT:      -7.8      0.000      0.000
REMARK  Name = 
REMARK  4 active torsions:
REMARK  status: ('A' for Active; 'I' for Inactive)
REMARK    1  A    between atoms: C_1  and  C_2
REMARK    2  A    between atoms: C_2  and  C_3
REMARK    3  A    between atoms: C_2  and  C_4
REMARK    4  A    between atoms: C_4  and  N_5
REMARK                            x       y       z     vdW  Elec       q    Type
REMARK                         _______ _______ _______ _____ _____    ______ ____
ROOT
ATOM      1  N   UNL     1       6.168   4.999  15.726  0.00  0.00    +0.000 N 
ATOM      2  C   UNL     1       5.544   4.036  16.467  0.00  0.00    +0.000 A 
ATOM      3  C   UNL     1       4.557   4.692  17.152  0.00  0.00    +0.000 A 
ATOM      4  C   UNL     1       4.705   6.090  16.829  0.00  0.00    +0.000 A 
ATOM      5  C   UNL     1       3.869   7.050  17.412  0.00  0.00    +0.000 A 
ATOM      6  C   UNL     1       2.901   6.500  18.290  0.00  0.00    +0.000 A 
ATOM      7  C   UNL     1       2.731   5.122  18.580  0.00  0.00    +0.000 A 
ATOM      8  N   UNL     1       1.728   4.782  19.394  0.00  0.00    +0.000 NA
ATOM      9  C   UNL     1       1.527   3.485  19.642  0.00  0.00    +0.000 A 
ATOM     10  N   UNL     1       0.459   3.150  20.448  0.00  0.00    +0.000 N 
ATOM     11  N   UNL     1       2.278   2.481  19.185  0.00  0.00    +0.000 NA
ATOM     12  C   UNL     1       3.283   2.807  18.367  0.00  0.00    +0.000 A 
ATOM     13  N   UNL     1       4.015   1.722  17.877  0.00  0.00    +0.000 N 
ATOM     14  C   UNL     1       3.570   4.135  18.017  0.00  0.00    +0.000 A 
ATOM     15  N   UNL     1       5.693   6.244  15.933  0.00  0.00    +0.000 NA
ATOM     16  H   UNL     1       0.229   3.922  21.055  0.00  0.00    +0.000 HD
ATOM     17  H   UNL     1       0.620   2.249  20.875  0.00  0.00    +0.000 HD
ATOM     18  H   UNL     1       3.573   0.882  18.241  0.00  0.00    +0.000 HD
ATOM     19  H   UNL     1       4.011   1.726  16.862  0.00  0.00    +0.000 HD
ENDROOT
BRANCH   1  20
ATOM     20  C   UNL     1       7.198   4.766  14.729  0.00  0.00    +0.000 C 
BRANCH  20  22
ATOM     21  C   UNL     1       7.831   5.322  12.332  0.00  0.00    +0.000 C 
ATOM     22  C   UNL     1       6.717   4.860  13.272  0.00  0.00    +0.000 C 
ATOM     23  C   UNL     1       6.181   3.499  12.819  0.00  0.00    +0.000 C 
ENDBRANCH  20  22
ENDBRANCH   1  20
TORSDOF 2
ENDMDL
MODEL 2
REMARK VINA RESULT:      -7.8      1.735      2.507
REMARK  Name = 
REMARK  4 active torsions:
REMARK  status: ('A' for Active; 'I' for Inactive)
REMARK    1  A    between atoms: C_1  and  C_2
REMARK    2  A    between atoms: C_2  and  C_3
REMARK    3  A    between atoms: C_2  and  C_4
REMARK    4  A    between atoms: C_4  and  N_5
REMARK                            x       y       z     vdW  Elec       q    Type
REMARK                         _______ _______ _______ _____ _____    ______ ____
ROOT
ATOM      1  N   UNL     1       6.394   4.323  14.170  0.00  0.00    +0.000 N 
ATOM      2  C   UNL     1       5.368   3.938  14.985  0.00  0.00    +0.000 A 
ATOM      3  C   UNL     1       5.564   4.621  16.155  0.00  0.00    +0.000 A 
ATOM      4  C   UNL     1       6.799   5.349  15.994  0.00  0.00    +0.000 A 
ATOM      5  C   UNL     1       7.314   6.120  17.043  0.00  0.00    +0.000 A 
ATOM      6  C   UNL     1       6.502   6.114  18.204  0.00  0.00    +0.000 A 
ATOM      7  C   UNL     1       5.268   5.428  18.351  0.00  0.00    +0.000 A 
ATOM      8  N   UNL     1       4.612   5.579  19.504  0.00  0.00    +0.000 NA
ATOM      9  C   UNL     1       3.428   4.975  19.641  0.00  0.00    +0.000 A 
ATOM     10  N   UNL     1       2.744   5.180  20.821  0.00  0.00    +0.000 N 
ATOM     11  N   UNL     1       2.852   4.181  18.737  0.00  0.00    +0.000 NA
ATOM     12  C   UNL     1       3.497   4.024  17.578  0.00  0.00    +0.000 A 
ATOM     13  N   UNL     1       2.836   3.220  16.644  0.00  0.00    +0.000 N 
ATOM     14  C   UNL     1       4.734   4.631  17.315  0.00  0.00    +0.000 A 
ATOM     15  N   UNL     1       7.276   5.160  14.753  0.00  0.00    +0.000 NA
ATOM     16  H   UNL     1       3.391   5.413  21.560  0.00  0.00    +0.000 HD
ATOM     17  H   UNL     1       2.102   4.417  20.983  0.00  0.00    +0.000 HD
ATOM     18  H   UNL     1       1.950   2.952  17.064  0.00  0.00    +0.000 HD
ATOM     19  H   UNL     1       2.691   3.732  15.781  0.00  0.00    +0.000 HD
ENDROOT
BRANCH   1  20
ATOM     20  C   UNL     1       6.541   3.968  12.768  0.00  0.00    +0.000 C 
BRANCH  20  22
ATOM     21  C   UNL     1       4.407   3.413  11.507  0.00  0.00    +0.000 C 
ATOM     22  C   UNL     1       5.599   2.854  12.283  0.00  0.00    +0.000 C 
ATOM     23  C   UNL     1       6.378   1.868  11.408  0.00  0.00    +0.000 C 
ENDBRANCH  20  22
ENDBRANCH   1  20
TORSDOF 2
ENDMDL
MODEL 3
REMARK VINA RESULT:      -7.7      1.269      1.286
REMARK  Name = 
REMARK  4 active torsions:
REMARK  status: ('A' for Active; 'I' for Inactive)
REMARK    1  A    between atoms: C_1  and  C_2
REMARK    2  A    between atoms: C_2  and  C_3
REMARK    3  A    between atoms: C_2  and  C_4
REMARK    4  A    between atoms: C_4  and  N_5
REMARK                            x       y       z     vdW  Elec       q    Type
REMARK                         _______ _______ _______ _____ _____    ______ ____
ROOT
ATOM      1  N   UNL     1       6.032   4.998  16.621  0.00  0.00    +0.000 N 
ATOM      2  C   UNL     1       5.742   4.125  17.630  0.00  0.00    +0.000 A 
ATOM      3  C   UNL     1       4.595   4.604  18.203  0.00  0.00    +0.000 A 
ATOM      4  C   UNL     1       4.293   5.839  17.523  0.00  0.00    +0.000 A 
ATOM      5  C   UNL     1       3.193   6.615  17.908  0.00  0.00    +0.000 A 
ATOM      6  C   UNL     1       2.445   6.050  18.972  0.00  0.00    +0.000 A 
ATOM      7  C   UNL     1       2.720   4.816  19.616  0.00  0.00    +0.000 A 
ATOM      8  N   UNL     1       1.873   4.415  20.568  0.00  0.00    +0.000 NA
ATOM      9  C   UNL     1       2.094   3.234  21.153  0.00  0.00    +0.000 A 
ATOM     10  N   UNL     1       1.183   2.816  22.101  0.00  0.00    +0.000 N 
ATOM     11  N   UNL     1       3.127   2.426  20.908  0.00  0.00    +0.000 NA
ATOM     12  C   UNL     1       3.980   2.815  19.956  0.00  0.00    +0.000 A 
ATOM     13  N   UNL     1       5.021   1.918  19.701  0.00  0.00    +0.000 N 
ATOM     14  C   UNL     1       3.832   4.023  19.258  0.00  0.00    +0.000 A 
ATOM     15  N   UNL     1       5.185   6.045  16.541  0.00  0.00    +0.000 NA
ATOM     16  H   UNL     1       0.717   3.613  22.508  0.00  0.00    +0.000 HD
ATOM     17  H   UNL     1       1.620   2.156  22.729  0.00  0.00    +0.000 HD
ATOM     18  H   UNL     1       4.867   1.112  20.302  0.00  0.00    +0.000 HD
ATOM     19  H   UNL     1       5.022   1.649  18.723  0.00  0.00    +0.000 HD
ENDROOT
BRANCH   1  20
ATOM     20  C   UNL     1       7.087   4.835  15.636  0.00  0.00    +0.000 C 
BRANCH  20  22
ATOM     21  C   UNL     1       7.819   5.270  13.243  0.00  0.00    +0.000 C 
ATOM     22  C   UNL     1       6.638   5.004  14.176  0.00  0.00    +0.000 C 
ATOM     23  C   UNL     1       5.884   3.751  13.722  0.00  0.00    +0.000 C 
ENDBRANCH  20  22
ENDBRANCH   1  20
TORSDOF 2
ENDMDL
MODEL 4
REMARK VINA RESULT:      -7.5      1.153      1.501
REMARK  Name = 
REMARK  4 active torsions:
REMARK  status: ('A' for Active; 'I' for Inactive)
REMARK    1  A    between atoms: C_1  and  C_2
REMARK    2  A    between atoms: C_2  and  C_3
REMARK    3  A    between atoms: C_2  and  C_4
REMARK    4  A    between atoms: C_4  and  N_5
REMARK                            x       y       z     vdW  Elec       q    Type
REMARK                         _______ _______ _______ _____ _____    ______ ____
ROOT
ATOM      1  N   UNL     1       5.999   4.450  14.605  0.00  0.00    +0.000 N 
ATOM      2  C   UNL     1       5.512   3.650  15.599  0.00  0.00    +0.000 A 
ATOM      3  C   UNL     1       4.924   4.505  16.492  0.00  0.00    +0.000 A 
ATOM      4  C   UNL     1       5.174   5.836  15.999  0.00  0.00    +0.000 A 
ATOM      5  C   UNL     1       4.739   6.957  16.717  0.00  0.00    +0.000 A 
ATOM      6  C   UNL     1       4.042   6.632  17.908  0.00  0.00    +0.000 A 
ATOM      7  C   UNL     1       3.764   5.321  18.375  0.00  0.00    +0.000 A 
ATOM      8  N   UNL     1       3.046   5.206  19.496  0.00  0.00    +0.000 NA
ATOM      9  C   UNL     1       2.738   3.979  19.925  0.00  0.00    +0.000 A 
ATOM     10  N   UNL     1       1.958   3.880  21.058  0.00  0.00    +0.000 N 
ATOM     11  N   UNL     1       3.129   2.836  19.357  0.00  0.00    +0.000 NA
ATOM     12  C   UNL     1       3.844   2.938  18.234  0.00  0.00    +0.000 A 
ATOM     13  N   UNL     1       4.193   1.717  17.649  0.00  0.00    +0.000 N 
ATOM     14  C   UNL     1       4.204   4.175  17.678  0.00  0.00    +0.000 A 
ATOM     15  N   UNL     1       5.821   5.769  14.824  0.00  0.00    +0.000 NA
ATOM     16  H   UNL     1       2.066   4.707  21.626  0.00  0.00    +0.000 HD
ATOM     17  H   UNL     1       2.108   2.985  21.501  0.00  0.00    +0.000 HD
ATOM     18  H   UNL     1       3.771   0.989  18.219  0.00  0.00    +0.000 HD
ATOM     19  H   UNL     1       3.855   1.676  16.694  0.00  0.00    +0.000 HD
ENDROOT
BRANCH   1  20
ATOM     20  C   UNL     1       6.591   3.990  13.361  0.00  0.00    +0.000 C 
BRANCH  20  22
ATOM     21  C   UNL     1       4.576   3.669  11.848  0.00  0.00    +0.000 C 
ATOM     22  C   UNL     1       5.735   2.985  12.573  0.00  0.00    +0.000 C 
ATOM     23  C   UNL     1       6.614   2.239  11.566  0.00  0.00    +0.000 C 
ENDBRANCH  20  22
ENDBRANCH   1  20
TORSDOF 2
ENDMDL
MODEL 5
REMARK VINA RESULT:      -7.1      1.418      1.827
REMARK  Name = 
REMARK  4 active torsions:
REMARK  status: ('A' for Active; 'I' for Inactive)
REMARK    1  A    between atoms: C_1  and  C_2
REMARK    2  A    between atoms: C_2  and  C_3
REMARK    3  A    between atoms: C_2  and  C_4
REMARK    4  A    between atoms: C_4  and  N_5
REMARK                            x       y       z     vdW  Elec       q    Type
REMARK                         _______ _______ _______ _____ _____    ______ ____
ROOT
ATOM      1  N   UNL     1       4.854   5.933  16.425  0.00  0.00    +0.000 N 
ATOM      2  C   UNL     1       4.759   4.825  17.217  0.00  0.00    +0.000 A 
ATOM      3  C   UNL     1       3.873   5.163  18.204  0.00  0.00    +0.000 A 
ATOM      4  C   UNL     1       3.533   6.547  17.982  0.00  0.00    +0.000 A 
ATOM      5  C   UNL     1       2.673   7.220  18.858  0.00  0.00    +0.000 A 
ATOM      6  C   UNL     1       2.189   6.408  19.914  0.00  0.00    +0.000 A 
ATOM      7  C   UNL     1       2.493   5.036  20.112  0.00  0.00    +0.000 A 
ATOM      8  N   UNL     1       1.901   4.415  21.136  0.00  0.00    +0.000 NA
ATOM      9  C   UNL     1       2.143   3.113  21.309  0.00  0.00    +0.000 A 
ATOM     10  N   UNL     1       1.488   2.478  22.343  0.00  0.00    +0.000 N 
ATOM     11  N   UNL     1       2.974   2.372  20.574  0.00  0.00    +0.000 NA
ATOM     12  C   UNL     1       3.570   2.981  19.545  0.00  0.00    +0.000 A 
ATOM     13  N   UNL     1       4.396   2.156  18.775  0.00  0.00    +0.000 N 
ATOM     14  C   UNL     1       3.370   4.338  19.252  0.00  0.00    +0.000 A 
ATOM     15  N   UNL     1       4.139   6.987  16.867  0.00  0.00    +0.000 NA
ATOM     16  H   UNL     1       1.241   3.146  23.059  0.00  0.00    +0.000 HD
ATOM     17  H   UNL     1       2.005   1.658  22.626  0.00  0.00    +0.000 HD
ATOM     18  H   UNL     1       4.325   1.222  19.169  0.00  0.00    +0.000 HD
ATOM     19  H   UNL     1       4.098   2.168  17.806  0.00  0.00    +0.000 HD
ENDROOT
BRANCH   1  20
ATOM     20  C   UNL     1       5.574   6.015  15.166  0.00  0.00    +0.000 C 
BRANCH  20  22
ATOM     21  C   UNL     1       5.301   3.923  13.750  0.00  0.00    +0.000 C 
ATOM     22  C   UNL     1       6.214   4.696  14.702  0.00  0.00    +0.000 C 
ATOM     23  C   UNL     1       7.554   4.987  14.022  0.00  0.00    +0.000 C 
ENDBRANCH  20  22
ENDBRANCH   1  20
TORSDOF 2
ENDMDL
MODEL 6
REMARK VINA RESULT:      -7.0      3.159      6.441
REMARK  Name = 
REMARK  4 active torsions:
REMARK  status: ('A' for Active; 'I' for Inactive)
REMARK    1  A    between atoms: C_1  and  C_2
REMARK    2  A    between atoms: C_2  and  C_3
REMARK    3  A    between atoms: C_2  and  C_4
REMARK    4  A    between atoms: C_4  and  N_5
REMARK                            x       y       z     vdW  Elec       q    Type
REMARK                         _______ _______ _______ _____ _____    ______ ____
ROOT
ATOM      1  N   UNL     1       1.757   7.660  20.614  0.00  0.00    +0.000 N 
ATOM      2  C   UNL     1       1.787   6.322  20.886  0.00  0.00    +0.000 A 
ATOM      3  C   UNL     1       2.391   5.747  19.800  0.00  0.00    +0.000 A 
ATOM      4  C   UNL     1       2.627   6.816  18.861  0.00  0.00    +0.000 A 
ATOM      5  C   UNL     1       3.197   6.552  17.609  0.00  0.00    +0.000 A 
ATOM      6  C   UNL     1       3.515   5.185  17.407  0.00  0.00    +0.000 A 
ATOM      7  C   UNL     1       3.317   4.139  18.346  0.00  0.00    +0.000 A 
ATOM      8  N   UNL     1       3.727   2.916  18.001  0.00  0.00    +0.000 NA
ATOM      9  C   UNL     1       3.587   1.929  18.891  0.00  0.00    +0.000 A 
ATOM     10  N   UNL     1       4.058   0.683  18.535  0.00  0.00    +0.000 N 
ATOM     11  N   UNL     1       3.022   2.042  20.094  0.00  0.00    +0.000 NA
ATOM     12  C   UNL     1       2.611   3.262  20.452  0.00  0.00    +0.000 A 
ATOM     13  N   UNL     1       2.066   3.343  21.737  0.00  0.00    +0.000 N 
ATOM     14  C   UNL     1       2.730   4.376  19.609  0.00  0.00    +0.000 A 
ATOM     15  N   UNL     1       2.243   7.984  19.399  0.00  0.00    +0.000 NA
ATOM     16  H   UNL     1       4.068   0.591  17.530  0.00  0.00    +0.000 HD
ATOM     17  H   UNL     1       3.578  -0.030  19.066  0.00  0.00    +0.000 HD
ATOM     18  H   UNL     1       2.143   2.415  22.147  0.00  0.00    +0.000 HD
ATOM     19  H   UNL     1       2.570   4.028  22.289  0.00  0.00    +0.000 HD
ENDROOT
BRANCH   1  20
ATOM     20  C   UNL     1       1.331   8.702  21.533  0.00  0.00    +0.000 C 
BRANCH  20  22
ATOM     21  C   UNL     1      -0.659   9.527  22.880  0.00  0.00    +0.000 C 
ATOM     22  C   UNL     1      -0.180   8.982  21.533  0.00  0.00    +0.000 C 
ATOM     23  C   UNL     1      -0.520   9.974  20.418  0.00  0.00    +0.000 C 
ENDBRANCH  20  22
ENDBRANCH   1  20
TORSDOF 2
ENDMDL
MODEL 7
REMARK VINA RESULT:      -6.9      2.828      5.889
REMARK  Name = 
REMARK  4 active torsions:
REMARK  status: ('A' for Active; 'I' for Inactive)
REMARK    1  A    between atoms: C_1  and  C_2
REMARK    2  A    between atoms: C_2  and  C_3
REMARK    3  A    between atoms: C_2  and  C_4
REMARK    4  A    between atoms: C_4  and  N_5
REMARK                            x       y       z     vdW  Elec       q    Type
REMARK                         _______ _______ _______ _____ _____    ______ ____
ROOT
ATOM      1  N   UNL     1       2.136   8.684  18.331  0.00  0.00    +0.000 N 
ATOM      2  C   UNL     1       2.061   7.547  19.084  0.00  0.00    +0.000 A 
ATOM      3  C   UNL     1       3.006   6.706  18.562  0.00  0.00    +0.000 A 
ATOM      4  C   UNL     1       3.565   7.389  17.421  0.00  0.00    +0.000 A 
ATOM      5  C   UNL     1       4.538   6.771  16.626  0.00  0.00    +0.000 A 
ATOM      6  C   UNL     1       4.899   5.476  17.075  0.00  0.00    +0.000 A 
ATOM      7  C   UNL     1       4.376   4.818  18.219  0.00  0.00    +0.000 A 
ATOM      8  N   UNL     1       4.874   3.616  18.520  0.00  0.00    +0.000 NA
ATOM      9  C   UNL     1       4.423   3.003  19.618  0.00  0.00    +0.000 A 
ATOM     10  N   UNL     1       4.982   1.783  19.939  0.00  0.00    +0.000 N 
ATOM     11  N   UNL     1       3.470   3.464  20.430  0.00  0.00    +0.000 NA
ATOM     12  C   UNL     1       2.966   4.667  20.141  0.00  0.00    +0.000 A 
ATOM     13  N   UNL     1       2.004   5.131  21.043  0.00  0.00    +0.000 N 
ATOM     14  C   UNL     1       3.383   5.412  19.028  0.00  0.00    +0.000 A 
ATOM     15  N   UNL     1       3.022   8.613  17.317  0.00  0.00    +0.000 NA
ATOM     16  H   UNL     1       5.346   1.341  19.108  0.00  0.00    +0.000 HD
ATOM     17  H   UNL     1       4.341   1.252  20.511  0.00  0.00    +0.000 HD
ATOM     18  H   UNL     1       1.926   4.429  21.774  0.00  0.00    +0.000 HD
ATOM     19  H   UNL     1       2.284   6.027  21.425  0.00  0.00    +0.000 HD
ENDROOT
BRANCH   1  20
ATOM     20  C   UNL     1       1.420   9.921  18.589  0.00  0.00    +0.000 C 
BRANCH  20  22
ATOM     21  C   UNL     1       0.715  10.597  20.934  0.00  0.00    +0.000 C 
ATOM     22  C   UNL     1       0.334   9.822  19.672  0.00  0.00    +0.000 C 
ATOM     23  C   UNL     1      -0.994  10.346  19.118  0.00  0.00    +0.000 C 
ENDBRANCH  20  22
ENDBRANCH   1  20
TORSDOF 2
ENDMDL
MODEL 8
REMARK VINA RESULT:      -6.8      4.601      7.313
REMARK  Name = 
REMARK  4 active torsions:
REMARK  status: ('A' for Active; 'I' for Inactive)
REMARK    1  A    between atoms: C_1  and  C_2
REMARK    2  A    between atoms: C_2  and  C_3
REMARK    3  A    between atoms: C_2  and  C_4
REMARK    4  A    between atoms: C_4  and  N_5
REMARK                            x       y       z     vdW  Elec       q    Type
REMARK                         _______ _______ _______ _____ _____    ______ ____
ROOT
ATOM      1  N   UNL     1       2.313   6.022  20.166  0.00  0.00    +0.000 N 
ATOM      2  C   UNL     1       1.598   6.985  20.819  0.00  0.00    +0.000 A 
ATOM      3  C   UNL     1       1.538   8.041  19.949  0.00  0.00    +0.000 A 
ATOM      4  C   UNL     1       2.327   7.661  18.803  0.00  0.00    +0.000 A 
ATOM      5  C   UNL     1       2.510   8.550  17.738  0.00  0.00    +0.000 A 
ATOM      6  C   UNL     1       1.842   9.788  17.910  0.00  0.00    +0.000 A 
ATOM      7  C   UNL     1       1.036  10.149  19.021  0.00  0.00    +0.000 A 
ATOM      8  N   UNL     1       0.439  11.343  18.988  0.00  0.00    +0.000 NA
ATOM      9  C   UNL     1      -0.358  11.679  20.006  0.00  0.00    +0.000 A 
ATOM     10  N   UNL     1      -1.002  12.896  19.933  0.00  0.00    +0.000 N 
ATOM     11  N   UNL     1      -0.579  10.942  21.096  0.00  0.00    +0.000 NA
ATOM     12  C   UNL     1       0.010   9.743  21.140  0.00  0.00    +0.000 A 
ATOM     13  N   UNL     1      -0.284   8.987  22.278  0.00  0.00    +0.000 N 
ATOM     14  C   UNL     1       0.847   9.276  20.116  0.00  0.00    +0.000 A 
ATOM     15  N   UNL     1       2.774   6.404  18.958  0.00  0.00    +0.000 NA
ATOM     16  H   UNL     1      -0.483  13.527  19.341  0.00  0.00    +0.000 HD
ATOM     17  H   UNL     1      -1.241  13.215  20.862  0.00  0.00    +0.000 HD
ATOM     18  H   UNL     1      -0.944   9.531  22.828  0.00  0.00    +0.000 HD
ATOM     19  H   UNL     1      -0.681   8.092  22.012  0.00  0.00    +0.000 HD
ENDROOT
BRANCH   1  20
ATOM     20  C   UNL     1       2.526   4.663  20.633  0.00  0.00    +0.000 C 
BRANCH  20  22
ATOM     21  C   UNL     1       0.964   3.204  19.261  0.00  0.00    +0.000 C 
ATOM     22  C   UNL     1       1.268   3.780  20.644  0.00  0.00    +0.000 C 
ATOM     23  C   UNL     1       1.445   2.645  21.656  0.00  0.00    +0.000 C 
ENDBRANCH  20  22
ENDBRANCH   1  20
TORSDOF 2
ENDMDL
MODEL 9
REMARK VINA RESULT:      -6.8      2.476      4.106
REMARK  Name = 
REMARK  4 active torsions:
REMARK  status: ('A' for Active; 'I' for Inactive)
REMARK    1  A    between atoms: C_1  and  C_2
REMARK    2  A    between atoms: C_2  and  C_3
REMARK    3  A    between atoms: C_2  and  C_4
REMARK    4  A    between atoms: C_4  and  N_5
REMARK                            x       y       z     vdW  Elec       q    Type
REMARK                         _______ _______ _______ _____ _____    ______ ____
ROOT
ATOM      1  N   UNL     1       4.325   4.318  17.279  0.00  0.00    +0.000 N 
ATOM      2  C   UNL     1       3.742   5.547  17.404  0.00  0.00    +0.000 A 
ATOM      3  C   UNL     1       3.112   5.525  18.619  0.00  0.00    +0.000 A 
ATOM      4  C   UNL     1       3.295   4.193  19.142  0.00  0.00    +0.000 A 
ATOM      5  C   UNL     1       2.724   3.822  20.365  0.00  0.00    +0.000 A 
ATOM      6  C   UNL     1       2.007   4.869  20.997  0.00  0.00    +0.000 A 
ATOM      7  C   UNL     1       1.857   6.190  20.501  0.00  0.00    +0.000 A 
ATOM      8  N   UNL     1       1.189   7.062  21.261  0.00  0.00    +0.000 NA
ATOM      9  C   UNL     1       1.077   8.321  20.827  0.00  0.00    +0.000 A 
ATOM     10  N   UNL     1       0.423   9.218  21.646  0.00  0.00    +0.000 N 
ATOM     11  N   UNL     1       1.536   8.786  19.664  0.00  0.00    +0.000 NA
ATOM     12  C   UNL     1       2.210   7.925  18.897  0.00  0.00    +0.000 A 
ATOM     13  N   UNL     1       2.711   8.466  17.709  0.00  0.00    +0.000 N 
ATOM     14  C   UNL     1       2.410   6.585  19.263  0.00  0.00    +0.000 A 
ATOM     15  N   UNL     1       4.063   3.480  18.302  0.00  0.00    +0.000 NA
ATOM     16  H   UNL     1      -0.221   8.729  22.250  0.00  0.00    +0.000 HD
ATOM     17  H   UNL     1       0.061   9.984  21.096  0.00  0.00    +0.000 HD
ATOM     18  H   UNL     1       2.470   9.454  17.714  0.00  0.00    +0.000 HD
ATOM     19  H   UNL     1       3.716   8.335  17.661  0.00  0.00    +0.000 HD
ENDROOT
BRANCH   1  20
ATOM     20  C   UNL     1       5.222   3.910  16.212  0.00  0.00    +0.000 C 
BRANCH  20  22
ATOM     21  C   UNL     1       7.508   4.614  17.069  0.00  0.00    +0.000 C 
ATOM     22  C   UNL     1       6.434   4.832  16.002  0.00  0.00    +0.000 C 
ATOM     23  C   UNL     1       7.025   4.596  14.610  0.00  0.00    +0.000 C 
ENDBRANCH  20  22
ENDBRANCH   1  20
TORSDOF 2
ENDMDL
