MODEL 1
REMARK VINA RESULT:      -7.7      0.000      0.000
REMARK  Name = 
REMARK  6 active torsions:
REMARK  status: ('A' for Active; 'I' for Inactive)
REMARK    1  A    between atoms: C_1  and  O_2
REMARK    2  A    between atoms: O_2  and  C_3
REMARK    3  A    between atoms: C_3  and  C_4
REMARK    4  A    between atoms: C_4  and  N_5
REMARK    5  A    between atoms: N_9  and  C_10
REMARK    6  A    between atoms: N_19  and  C_20
REMARK                            x       y       z     vdW  Elec       q    Type
REMARK                         _______ _______ _______ _____ _____    ______ ____
ROOT
ATOM      1  N   UNL     1       2.129   5.477  21.066  0.00  0.00    +0.000 N 
ATOM      2  C   UNL     1       2.827   5.886  19.903  0.00  0.00    +0.000 A 
ATOM      3  N   UNL     1       2.396   6.969  19.222  0.00  0.00    +0.000 NA
ATOM      4  C   UNL     1       2.945   7.301  18.025  0.00  0.00    +0.000 A 
ATOM      5  N   UNL     1       2.417   8.393  17.283  0.00  0.00    +0.000 N 
ATOM      6  N   UNL     1       3.942   6.537  17.518  0.00  0.00    +0.000 NA
ATOM      7  C   UNL     1       4.431   5.486  18.232  0.00  0.00    +0.000 A 
ATOM      8  N   UNL     1       5.580   4.781  17.783  0.00  0.00    +0.000 N 
ATOM      9  N   UNL     1       3.868   5.161  19.421  0.00  0.00    +0.000 NA
ATOM     10  H   UNL     1       1.468   6.134  21.508  0.00  0.00    +0.000 HD
ATOM     11  H   UNL     1       2.512   8.382  16.255  0.00  0.00    +0.000 HD
ATOM     12  H   UNL     1       6.176   4.324  18.491  0.00  0.00    +0.000 HD
ENDROOT
BRANCH   5  13
ATOM     13  C   UNL     1       1.655   9.423  17.911  0.00  0.00    +0.000 A 
ATOM     14  C   UNL     1       2.274  10.614  18.343  0.00  0.00    +0.000 A 
ATOM     15  C   UNL     1       1.533  11.619  18.960  0.00  0.00    +0.000 A 
ATOM     16  C   UNL     1       0.165  11.449  19.166  0.00  0.00    +0.000 A 
ATOM     17  F   UNL     1      -0.549  12.423  19.782  0.00  0.00    +0.000 F 
ATOM     18  C   UNL     1      -0.468  10.280  18.733  0.00  0.00    +0.000 A 
ATOM     19  C   UNL     1       0.270   9.273  18.093  0.00  0.00    +0.000 A 
ENDBRANCH   5  13
BRANCH   8  20
ATOM     20  C   UNL     1       5.974   4.734  16.418  0.00  0.00    +0.000 A 
ATOM     21  C   UNL     1       7.158   5.366  16.005  0.00  0.00    +0.000 A 
ATOM     22  C   UNL     1       7.560   5.300  14.666  0.00  0.00    +0.000 A 
ATOM     23  C   UNL     1       6.803   4.582  13.738  0.00  0.00    +0.000 A 
ATOM     24  F   UNL     1       7.196   4.500  12.447  0.00  0.00    +0.000 F 
ATOM     25  C   UNL     1       5.634   3.935  14.149  0.00  0.00    +0.000 A 
ATOM     26  C   UNL     1       5.216   4.016  15.474  0.00  0.00    +0.000 A 
ENDBRANCH   8  20
BRANCH   1  27
ATOM     27  C   UNL     1       2.158   4.105  21.533  0.00  0.00    +0.000 C 
BRANCH  27  28
ATOM     28  C   UNL     1       1.108   3.281  20.775  0.00  0.00    +0.000 C 
BRANCH  28  30
ATOM     29  C   UNL     1       1.199   2.600  18.578  0.00  0.00    +0.000 C 
ATOM     30  O   UNL     1       1.745   2.407  19.866  0.00  0.00    +0.000 OA
ENDBRANCH  28  30
ENDBRANCH  27  28
ENDBRANCH   1  27
TORSDOF 5
ENDMDL
MODEL 2
REMARK VINA RESULT:      -7.6      0.135      1.324
REMARK  Name = 
REMARK  6 active torsions:
REMARK  status: ('A' for Active; 'I' for Inactive)
REMARK    1  A    between atoms: C_1  and  O_2
REMARK    2  A    between atoms: O_2  and  C_3
REMARK    3  A    between atoms: C_3  and  C_4
REMARK    4  A    between atoms: C_4  and  N_5
REMARK    5  A    between atoms: N_9  and  C_10
REMARK    6  A    between atoms: N_19  and  C_20
REMARK                            x       y       z     vdW  Elec       q    Type
REMARK                         _______ _______ _______ _____ _____    ______ ____
ROOT
ATOM      1  N   UNL     1       2.020   5.494  21.019  0.00  0.00    +0.000 N 
ATOM      2  C   UNL     1       2.765   5.890  19.881  0.00  0.00    +0.000 A 
ATOM      3  N   UNL     1       2.377   6.980  19.185  0.00  0.00    +0.000 NA
ATOM      4  C   UNL     1       2.973   7.302  18.009  0.00  0.00    +0.000 A 
ATOM      5  N   UNL     1       2.490   8.402  17.248  0.00  0.00    +0.000 N 
ATOM      6  N   UNL     1       3.974   6.520  17.536  0.00  0.00    +0.000 NA
ATOM      7  C   UNL     1       4.420   5.461  18.267  0.00  0.00    +0.000 A 
ATOM      8  N   UNL     1       5.571   4.736  17.859  0.00  0.00    +0.000 N 
ATOM      9  N   UNL     1       3.809   5.147  19.435  0.00  0.00    +0.000 NA
ATOM     10  H   UNL     1       1.356   6.163  21.437  0.00  0.00    +0.000 HD
ATOM     11  H   UNL     1       2.621   8.389  16.224  0.00  0.00    +0.000 HD
ATOM     12  H   UNL     1       6.133   4.269  18.587  0.00  0.00    +0.000 HD
ENDROOT
BRANCH   5  13
ATOM     13  C   UNL     1       1.725   9.446  17.849  0.00  0.00    +0.000 A 
ATOM     14  C   UNL     1       0.342   9.288  18.070  0.00  0.00    +0.000 A 
ATOM     15  C   UNL     1      -0.408  10.307  18.653  0.00  0.00    +0.000 A 
ATOM     16  C   UNL     1       0.207  11.504  19.015  0.00  0.00    +0.000 A 
ATOM     17  F   UNL     1      -0.530  12.500  19.566  0.00  0.00    +0.000 F 
ATOM     18  C   UNL     1       1.581  11.674  18.814  0.00  0.00    +0.000 A 
ATOM     19  C   UNL     1       2.344  10.643  18.247  0.00  0.00    +0.000 A 
ENDBRANCH   5  13
BRANCH   8  20
ATOM     20  C   UNL     1       6.012   4.681  16.508  0.00  0.00    +0.000 A 
ATOM     21  C   UNL     1       5.262   3.978  15.552  0.00  0.00    +0.000 A 
ATOM     22  C   UNL     1       5.682   3.943  14.216  0.00  0.00    +0.000 A 
ATOM     23  C   UNL     1       6.832   4.629  13.822  0.00  0.00    +0.000 A 
ATOM     24  F   UNL     1       7.232   4.613  12.530  0.00  0.00    +0.000 F 
ATOM     25  C   UNL     1       7.571   5.346  14.768  0.00  0.00    +0.000 A 
ATOM     26  C   UNL     1       7.172   5.365  16.101  0.00  0.00    +0.000 A 
ENDBRANCH   8  20
BRANCH   1  27
ATOM     27  C   UNL     1       2.009   4.122  21.487  0.00  0.00    +0.000 C 
BRANCH  27  28
ATOM     28  C   UNL     1       1.079   3.284  20.599  0.00  0.00    +0.000 C 
BRANCH  28  30
ATOM     29  C   UNL     1       1.466   2.332  18.539  0.00  0.00    +0.000 C 
ATOM     30  O   UNL     1       1.828   2.307  19.904  0.00  0.00    +0.000 OA
ENDBRANCH  28  30
ENDBRANCH  27  28
ENDBRANCH   1  27
TORSDOF 5
ENDMDL
MODEL 3
REMARK VINA RESULT:      -7.5      0.954      1.052
REMARK  Name = 
REMARK  6 active torsions:
REMARK  status: ('A' for Active; 'I' for Inactive)
REMARK    1  A    between atoms: C_1  and  O_2
REMARK    2  A    between atoms: O_2  and  C_3
REMARK    3  A    between atoms: C_3  and  C_4
REMARK    4  A    between atoms: C_4  and  N_5
REMARK    5  A    between atoms: N_9  and  C_10
REMARK    6  A    between atoms: N_19  and  C_20
REMARK                            x       y       z     vdW  Elec       q    Type
REMARK                         _______ _______ _______ _____ _____    ______ ____
ROOT
ATOM      1  N   UNL     1       2.316   4.578  21.381  0.00  0.00    +0.000 N 
ATOM      2  C   UNL     1       2.967   5.134  20.252  0.00  0.00    +0.000 A 
ATOM      3  N   UNL     1       2.473   6.258  19.692  0.00  0.00    +0.000 NA
ATOM      4  C   UNL     1       2.978   6.734  18.525  0.00  0.00    +0.000 A 
ATOM      5  N   UNL     1       2.385   7.869  17.908  0.00  0.00    +0.000 N 
ATOM      6  N   UNL     1       3.996   6.071  17.924  0.00  0.00    +0.000 NA
ATOM      7  C   UNL     1       4.548   4.978  18.519  0.00  0.00    +0.000 A 
ATOM      8  N   UNL     1       5.716   4.375  17.979  0.00  0.00    +0.000 N 
ATOM      9  N   UNL     1       4.028   4.509  19.679  0.00  0.00    +0.000 NA
ATOM     10  H   UNL     1       1.638   5.157  21.899  0.00  0.00    +0.000 HD
ATOM     11  H   UNL     1       2.456   7.965  16.882  0.00  0.00    +0.000 HD
ATOM     12  H   UNL     1       6.347   3.877  18.626  0.00  0.00    +0.000 HD
ENDROOT
BRANCH   5  13
ATOM     13  C   UNL     1       1.594   8.794  18.651  0.00  0.00    +0.000 A 
ATOM     14  C   UNL     1       0.852   9.796  17.994  0.00  0.00    +0.000 A 
ATOM     15  C   UNL     1       0.082  10.704  18.717  0.00  0.00    +0.000 A 
ATOM     16  C   UNL     1       0.048  10.634  20.109  0.00  0.00    +0.000 A 
ATOM     17  F   UNL     1      -0.689  11.530  20.810  0.00  0.00    +0.000 F 
ATOM     18  C   UNL     1       0.768   9.639  20.777  0.00  0.00    +0.000 A 
ATOM     19  C   UNL     1       1.529   8.710  20.052  0.00  0.00    +0.000 A 
ENDBRANCH   5  13
BRANCH   8  20
ATOM     20  C   UNL     1       6.079   4.483  16.609  0.00  0.00    +0.000 A 
ATOM     21  C   UNL     1       7.145   5.313  16.227  0.00  0.00    +0.000 A 
ATOM     22  C   UNL     1       7.520   5.402  14.881  0.00  0.00    +0.000 A 
ATOM     23  C   UNL     1       6.855   4.645  13.914  0.00  0.00    +0.000 A 
ATOM     24  F   UNL     1       7.225   4.714  12.615  0.00  0.00    +0.000 F 
ATOM     25  C   UNL     1       5.805   3.803  14.293  0.00  0.00    +0.000 A 
ATOM     26  C   UNL     1       5.413   3.728  15.626  0.00  0.00    +0.000 A 
ENDBRANCH   8  20
BRANCH   1  27
ATOM     27  C   UNL     1       2.416   3.169  21.706  0.00  0.00    +0.000 C 
BRANCH  27  28
ATOM     28  C   UNL     1       1.313   2.393  20.976  0.00  0.00    +0.000 C 
BRANCH  28  30
ATOM     29  C   UNL     1       0.947   2.411  18.703  0.00  0.00    +0.000 C 
ATOM     30  O   UNL     1       1.792   1.932  19.728  0.00  0.00    +0.000 OA
ENDBRANCH  28  30
ENDBRANCH  27  28
ENDBRANCH   1  27
TORSDOF 5
ENDMDL
MODEL 4
REMARK VINA RESULT:      -7.5      0.941      1.371
REMARK  Name = 
REMARK  6 active torsions:
REMARK  status: ('A' for Active; 'I' for Inactive)
REMARK    1  A    between atoms: C_1  and  O_2
REMARK    2  A    between atoms: O_2  and  C_3
REMARK    3  A    between atoms: C_3  and  C_4
REMARK    4  A    between atoms: C_4  and  N_5
REMARK    5  A    between atoms: N_9  and  C_10
REMARK    6  A    between atoms: N_19  and  C_20
REMARK                            x       y       z     vdW  Elec       q    Type
REMARK                         _______ _______ _______ _____ _____    ______ ____
ROOT
ATOM      1  N   UNL     1       2.273   4.594  21.363  0.00  0.00    +0.000 N 
ATOM      2  C   UNL     1       2.959   5.137  20.249  0.00  0.00    +0.000 A 
ATOM      3  N   UNL     1       2.489   6.261  19.668  0.00  0.00    +0.000 NA
ATOM      4  C   UNL     1       3.029   6.725  18.512  0.00  0.00    +0.000 A 
ATOM      5  N   UNL     1       2.462   7.860  17.870  0.00  0.00    +0.000 N 
ATOM      6  N   UNL     1       4.058   6.051  17.943  0.00  0.00    +0.000 NA
ATOM      7  C   UNL     1       4.585   4.958  18.561  0.00  0.00    +0.000 A 
ATOM      8  N   UNL     1       5.763   4.343  18.058  0.00  0.00    +0.000 N 
ATOM      9  N   UNL     1       4.030   4.501  19.710  0.00  0.00    +0.000 NA
ATOM     10  H   UNL     1       1.584   5.182  21.858  0.00  0.00    +0.000 HD
ATOM     11  H   UNL     1       2.562   7.949  16.846  0.00  0.00    +0.000 HD
ATOM     12  H   UNL     1       6.373   3.845  18.725  0.00  0.00    +0.000 HD
ENDROOT
BRANCH   5  13
ATOM     13  C   UNL     1       1.658   8.797  18.585  0.00  0.00    +0.000 A 
ATOM     14  C   UNL     1       1.573   8.747  19.991  0.00  0.00    +0.000 A 
ATOM     15  C   UNL     1       0.785   9.657  20.691  0.00  0.00    +0.000 A 
ATOM     16  C   UNL     1       0.059  10.626  19.999  0.00  0.00    +0.000 A 
ATOM     17  F   UNL     1      -0.720  11.499  20.682  0.00  0.00    +0.000 F 
ATOM     18  C   UNL     1       0.141  10.698  18.604  0.00  0.00    +0.000 A 
ATOM     19  C   UNL     1       0.949   9.796  17.897  0.00  0.00    +0.000 A 
ENDBRANCH   5  13
BRANCH   8  20
ATOM     20  C   UNL     1       6.165   4.438  16.698  0.00  0.00    +0.000 A 
ATOM     21  C   UNL     1       5.491   3.700  15.711  0.00  0.00    +0.000 A 
ATOM     22  C   UNL     1       5.870   3.811  14.368  0.00  0.00    +0.000 A 
ATOM     23  C   UNL     1       6.900   4.677  13.997  0.00  0.00    +0.000 A 
ATOM     24  F   UNL     1       7.258   4.801  12.699  0.00  0.00    +0.000 F 
ATOM     25  C   UNL     1       7.562   5.428  14.974  0.00  0.00    +0.000 A 
ATOM     26  C   UNL     1       7.205   5.304  16.313  0.00  0.00    +0.000 A 
ENDBRANCH   8  20
BRANCH   1  27
ATOM     27  C   UNL     1       2.353   3.187  21.700  0.00  0.00    +0.000 C 
BRANCH  27  28
ATOM     28  C   UNL     1       1.245   2.418  20.970  0.00  0.00    +0.000 C 
BRANCH  28  30
ATOM     29  C   UNL     1       0.977   2.475  18.684  0.00  0.00    +0.000 C 
ATOM     30  O   UNL     1       1.733   1.921  19.740  0.00  0.00    +0.000 OA
ENDBRANCH  28  30
ENDBRANCH  27  28
ENDBRANCH   1  27
TORSDOF 5
ENDMDL
MODEL 5
REMARK VINA RESULT:      -7.4      4.687      6.429
REMARK  Name = 
REMARK  6 active torsions:
REMARK  status: ('A' for Active; 'I' for Inactive)
REMARK    1  A    between atoms: C_1  and  O_2
REMARK    2  A    between atoms: O_2  and  C_3
REMARK    3  A    between atoms: C_3  and  C_4
REMARK    4  A    between atoms: C_4  and  N_5
REMARK    5  A    between atoms: N_9  and  C_10
REMARK    6  A    between atoms: N_19  and  C_20
REMARK                            x       y       z     vdW  Elec       q    Type
REMARK                         _______ _______ _______ _____ _____    ______ ____
ROOT
ATOM      1  N   UNL     1       6.875   6.650  18.330  0.00  0.00    +0.000 N 
ATOM      2  C   UNL     1       6.283   5.796  17.367  0.00  0.00    +0.000 A 
ATOM      3  N   UNL     1       5.436   4.828  17.776  0.00  0.00    +0.000 NA
ATOM      4  C   UNL     1       4.968   3.900  16.902  0.00  0.00    +0.000 A 
ATOM      5  N   UNL     1       4.147   2.837  17.371  0.00  0.00    +0.000 N 
ATOM      6  N   UNL     1       5.355   3.955  15.605  0.00  0.00    +0.000 NA
ATOM      7  C   UNL     1       6.152   4.970  15.170  0.00  0.00    +0.000 A 
ATOM      8  N   UNL     1       6.429   5.127  13.786  0.00  0.00    +0.000 N 
ATOM      9  N   UNL     1       6.618   5.885  16.055  0.00  0.00    +0.000 NA
ATOM     10  H   UNL     1       6.474   6.683  19.280  0.00  0.00    +0.000 HD
ATOM     11  H   UNL     1       4.154   1.944  16.853  0.00  0.00    +0.000 HD
ATOM     12  H   UNL     1       6.633   6.077  13.437  0.00  0.00    +0.000 HD
ENDROOT
BRANCH   5  13
ATOM     13  C   UNL     1       3.426   2.937  18.597  0.00  0.00    +0.000 A 
ATOM     14  C   UNL     1       3.968   2.424  19.793  0.00  0.00    +0.000 A 
ATOM     15  C   UNL     1       3.264   2.516  20.992  0.00  0.00    +0.000 A 
ATOM     16  C   UNL     1       2.004   3.111  21.016  0.00  0.00    +0.000 A 
ATOM     17  F   UNL     1       1.315   3.184  22.181  0.00  0.00    +0.000 F 
ATOM     18  C   UNL     1       1.456   3.637  19.841  0.00  0.00    +0.000 A 
ATOM     19  C   UNL     1       2.170   3.565  18.636  0.00  0.00    +0.000 A 
ENDBRANCH   5  13
BRANCH   8  20
ATOM     20  C   UNL     1       6.377   4.050  12.859  0.00  0.00    +0.000 A 
ATOM     21  C   UNL     1       7.564   3.514  12.335  0.00  0.00    +0.000 A 
ATOM     22  C   UNL     1       7.515   2.438  11.441  0.00  0.00    +0.000 A 
ATOM     23  C   UNL     1       6.288   1.873  11.086  0.00  0.00    +0.000 A 
ATOM     24  F   UNL     1       6.236   0.822  10.237  0.00  0.00    +0.000 F 
ATOM     25  C   UNL     1       5.105   2.392  11.621  0.00  0.00    +0.000 A 
ATOM     26  C   UNL     1       5.145   3.476  12.492  0.00  0.00    +0.000 A 
ENDBRANCH   8  20
BRANCH   1  27
ATOM     27  C   UNL     1       8.139   7.317  18.088  0.00  0.00    +0.000 C 
BRANCH  27  28
ATOM     28  C   UNL     1       7.900   8.820  17.897  0.00  0.00    +0.000 C 
BRANCH  28  30
ATOM     29  C   UNL     1       9.182  10.710  18.188  0.00  0.00    +0.000 C 
ATOM     30  O   UNL     1       8.678   9.554  18.822  0.00  0.00    +0.000 OA
ENDBRANCH  28  30
ENDBRANCH  27  28
ENDBRANCH   1  27
TORSDOF 5
ENDMDL
MODEL 6
REMARK VINA RESULT:      -7.3      0.743      1.192
REMARK  Name = 
REMARK  6 active torsions:
REMARK  status: ('A' for Active; 'I' for Inactive)
REMARK    1  A    between atoms: C_1  and  O_2
REMARK    2  A    between atoms: O_2  and  C_3
REMARK    3  A    between atoms: C_3  and  C_4
REMARK    4  A    between atoms: C_4  and  N_5
REMARK    5  A    between atoms: N_9  and  C_10
REMARK    6  A    between atoms: N_19  and  C_20
REMARK                            x       y       z     vdW  Elec       q    Type
REMARK                         _______ _______ _______ _____ _____    ______ ____
ROOT
ATOM      1  N   UNL     1       2.431   4.889  21.171  0.00  0.00    +0.000 N 
ATOM      2  C   UNL     1       3.119   5.359  20.025  0.00  0.00    +0.000 A 
ATOM      3  N   UNL     1       2.717   6.506  19.438  0.00  0.00    +0.000 NA
ATOM      4  C   UNL     1       3.253   6.907  18.257  0.00  0.00    +0.000 A 
ATOM      5  N   UNL     1       2.753   8.072  17.612  0.00  0.00    +0.000 N 
ATOM      6  N   UNL     1       4.209   6.147  17.670  0.00  0.00    +0.000 NA
ATOM      7  C   UNL     1       4.671   5.027  18.291  0.00  0.00    +0.000 A 
ATOM      8  N   UNL     1       5.782   4.316  17.763  0.00  0.00    +0.000 N 
ATOM      9  N   UNL     1       4.121   4.634  19.465  0.00  0.00    +0.000 NA
ATOM     10  H   UNL     1       1.806   5.535  21.676  0.00  0.00    +0.000 HD
ATOM     11  H   UNL     1       2.826   8.136  16.584  0.00  0.00    +0.000 HD
ATOM     12  H   UNL     1       6.374   3.784  18.420  0.00  0.00    +0.000 HD
ENDROOT
BRANCH   5  13
ATOM     13  C   UNL     1       2.046   9.079  18.334  0.00  0.00    +0.000 A 
ATOM     14  C   UNL     1       2.123  10.431  17.944  0.00  0.00    +0.000 A 
ATOM     15  C   UNL     1       1.437  11.417  18.649  0.00  0.00    +0.000 A 
ATOM     16  C   UNL     1       0.671  11.072  19.762  0.00  0.00    +0.000 A 
ATOM     17  F   UNL     1       0.019  12.036  20.455  0.00  0.00    +0.000 F 
ATOM     18  C   UNL     1       0.573   9.733  20.155  0.00  0.00    +0.000 A 
ATOM     19  C   UNL     1       1.246   8.735  19.436  0.00  0.00    +0.000 A 
ENDBRANCH   5  13
BRANCH   8  20
ATOM     20  C   UNL     1       6.145   4.358  16.389  0.00  0.00    +0.000 A 
ATOM     21  C   UNL     1       5.380   3.665  15.438  0.00  0.00    +0.000 A 
ATOM     22  C   UNL     1       5.722   3.725  14.081  0.00  0.00    +0.000 A 
ATOM     23  C   UNL     1       6.808   4.495  13.663  0.00  0.00    +0.000 A 
ATOM     24  F   UNL     1       7.133   4.571  12.352  0.00  0.00    +0.000 F 
ATOM     25  C   UNL     1       7.562   5.201  14.605  0.00  0.00    +0.000 A 
ATOM     26  C   UNL     1       7.241   5.127  15.958  0.00  0.00    +0.000 A 
ENDBRANCH   8  20
BRANCH   1  27
ATOM     27  C   UNL     1       2.415   3.485  21.532  0.00  0.00    +0.000 C 
BRANCH  27  28
ATOM     28  C   UNL     1       1.063   2.870  21.149  0.00  0.00    +0.000 C 
BRANCH  28  30
ATOM     29  C   UNL     1       1.426   2.157  18.990  0.00  0.00    +0.000 C 
ATOM     30  O   UNL     1       0.783   3.129  19.788  0.00  0.00    +0.000 OA
ENDBRANCH  28  30
ENDBRANCH  27  28
ENDBRANCH   1  27
TORSDOF 5
ENDMDL
MODEL 7
REMARK VINA RESULT:      -6.8      1.190      1.346
REMARK  Name = 
REMARK  6 active torsions:
REMARK  status: ('A' for Active; 'I' for Inactive)
REMARK    1  A    between atoms: C_1  and  O_2
REMARK    2  A    between atoms: O_2  and  C_3
REMARK    3  A    between atoms: C_3  and  C_4
REMARK    4  A    between atoms: C_4  and  N_5
REMARK    5  A    between atoms: N_9  and  C_10
REMARK    6  A    between atoms: N_19  and  C_20
REMARK                            x       y       z     vdW  Elec       q    Type
REMARK                         _______ _______ _______ _____ _____    ______ ____
ROOT
ATOM      1  N   UNL     1       1.234   4.434  20.380  0.00  0.00    +0.000 N 
ATOM      2  C   UNL     1       2.187   5.015  19.508  0.00  0.00    +0.000 A 
ATOM      3  N   UNL     1       2.043   6.304  19.137  0.00  0.00    +0.000 NA
ATOM      4  C   UNL     1       2.848   6.849  18.189  0.00  0.00    +0.000 A 
ATOM      5  N   UNL     1       2.621   8.183  17.749  0.00  0.00    +0.000 N 
ATOM      6  N   UNL     1       3.811   6.087  17.618  0.00  0.00    +0.000 NA
ATOM      7  C   UNL     1       4.011   4.807  18.038  0.00  0.00    +0.000 A 
ATOM      8  N   UNL     1       5.119   4.056  17.562  0.00  0.00    +0.000 N 
ATOM      9  N   UNL     1       3.194   4.274  18.979  0.00  0.00    +0.000 NA
ATOM     10  H   UNL     1       0.596   5.053  20.904  0.00  0.00    +0.000 HD
ATOM     11  H   UNL     1       2.906   8.441  16.791  0.00  0.00    +0.000 HD
ATOM     12  H   UNL     1       5.503   3.318  18.173  0.00  0.00    +0.000 HD
ENDROOT
BRANCH   5  13
ATOM     13  C   UNL     1       1.900   9.119  18.547  0.00  0.00    +0.000 A 
ATOM     14  C   UNL     1       1.596  10.403  18.052  0.00  0.00    +0.000 A 
ATOM     15  C   UNL     1       0.895  11.321  18.831  0.00  0.00    +0.000 A 
ATOM     16  C   UNL     1       0.495  10.977  20.121  0.00  0.00    +0.000 A 
ATOM     17  F   UNL     1      -0.171  11.879  20.882  0.00  0.00    +0.000 F 
ATOM     18  C   UNL     1       0.777   9.703  20.625  0.00  0.00    +0.000 A 
ATOM     19  C   UNL     1       1.464   8.769  19.836  0.00  0.00    +0.000 A 
ENDBRANCH   5  13
BRANCH   8  20
ATOM     20  C   UNL     1       5.754   4.318  16.318  0.00  0.00    +0.000 A 
ATOM     21  C   UNL     1       7.001   4.962  16.287  0.00  0.00    +0.000 A 
ATOM     22  C   UNL     1       7.639   5.199  15.063  0.00  0.00    +0.000 A 
ATOM     23  C   UNL     1       7.054   4.774  13.869  0.00  0.00    +0.000 A 
ATOM     24  F   UNL     1       7.674   4.985  12.687  0.00  0.00    +0.000 F 
ATOM     25  C   UNL     1       5.820   4.116  13.898  0.00  0.00    +0.000 A 
ATOM     26  C   UNL     1       5.170   3.898  15.109  0.00  0.00    +0.000 A 
ENDBRANCH   8  20
BRANCH   1  27
ATOM     27  C   UNL     1       0.990   3.005  20.404  0.00  0.00    +0.000 C 
BRANCH  27  28
ATOM     28  C   UNL     1       1.358   2.443  21.783  0.00  0.00    +0.000 C 
BRANCH  28  30
ATOM     29  C   UNL     1       3.550   1.980  21.250  0.00  0.00    +0.000 C 
ATOM     30  O   UNL     1       2.706   2.747  22.083  0.00  0.00    +0.000 OA
ENDBRANCH  28  30
ENDBRANCH  27  28
ENDBRANCH   1  27
TORSDOF 5
ENDMDL
MODEL 8
REMARK VINA RESULT:      -6.6      1.408      1.716
REMARK  Name = 
REMARK  6 active torsions:
REMARK  status: ('A' for Active; 'I' for Inactive)
REMARK    1  A    between atoms: C_1  and  O_2
REMARK    2  A    between atoms: O_2  and  C_3
REMARK    3  A    between atoms: C_3  and  C_4
REMARK    4  A    between atoms: C_4  and  N_5
REMARK    5  A    between atoms: N_9  and  C_10
REMARK    6  A    between atoms: N_19  and  C_20
REMARK                            x       y       z     vdW  Elec       q    Type
REMARK                         _______ _______ _______ _____ _____    ______ ____
ROOT
ATOM      1  N   UNL     1       3.281   3.909  20.394  0.00  0.00    +0.000 N 
ATOM      2  C   UNL     1       3.829   4.573  19.268  0.00  0.00    +0.000 A 
ATOM      3  N   UNL     1       3.290   5.742  18.864  0.00  0.00    +0.000 NA
ATOM      4  C   UNL     1       3.690   6.328  17.706  0.00  0.00    +0.000 A 
ATOM      5  N   UNL     1       3.047   7.514  17.254  0.00  0.00    +0.000 N 
ATOM      6  N   UNL     1       4.648   5.732  16.956  0.00  0.00    +0.000 NA
ATOM      7  C   UNL     1       5.248   4.590  17.393  0.00  0.00    +0.000 A 
ATOM      8  N   UNL     1       6.361   4.048  16.696  0.00  0.00    +0.000 N 
ATOM      9  N   UNL     1       4.832   4.011  18.546  0.00  0.00    +0.000 NA
ATOM     10  H   UNL     1       2.653   4.433  21.023  0.00  0.00    +0.000 HD
ATOM     11  H   UNL     1       3.026   7.707  16.240  0.00  0.00    +0.000 HD
ATOM     12  H   UNL     1       7.047   3.495  17.234  0.00  0.00    +0.000 HD
ENDROOT
BRANCH   5  13
ATOM     13  C   UNL     1       2.328   8.360  18.149  0.00  0.00    +0.000 A 
ATOM     14  C   UNL     1       1.991   7.917  19.444  0.00  0.00    +0.000 A 
ATOM     15  C   UNL     1       1.286   8.740  20.319  0.00  0.00    +0.000 A 
ATOM     16  C   UNL     1       0.895  10.016  19.913  0.00  0.00    +0.000 A 
ATOM     17  F   UNL     1       0.194  10.807  20.761  0.00  0.00    +0.000 F 
ATOM     18  C   UNL     1       1.232  10.477  18.636  0.00  0.00    +0.000 A 
ATOM     19  C   UNL     1       1.960   9.659  17.759  0.00  0.00    +0.000 A 
ENDBRANCH   5  13
BRANCH   8  20
ATOM     20  C   UNL     1       6.600   4.286  15.316  0.00  0.00    +0.000 A 
ATOM     21  C   UNL     1       7.570   5.221  14.921  0.00  0.00    +0.000 A 
ATOM     22  C   UNL     1       7.824   5.440  13.562  0.00  0.00    +0.000 A 
ATOM     23  C   UNL     1       7.135   4.711  12.591  0.00  0.00    +0.000 A 
ATOM     24  F   UNL     1       7.389   4.906  11.277  0.00  0.00    +0.000 F 
ATOM     25  C   UNL     1       6.181   3.765  12.980  0.00  0.00    +0.000 A 
ATOM     26  C   UNL     1       5.908   3.560  14.329  0.00  0.00    +0.000 A 
ENDBRANCH   8  20
BRANCH   1  27
ATOM     27  C   UNL     1       3.406   2.477  20.573  0.00  0.00    +0.000 C 
BRANCH  27  28
ATOM     28  C   UNL     1       2.736   1.750  19.400  0.00  0.00    +0.000 C 
BRANCH  28  30
ATOM     29  C   UNL     1       0.721   2.627  18.714  0.00  0.00    +0.000 C 
ATOM     30  O   UNL     1       1.336   1.710  19.594  0.00  0.00    +0.000 OA
ENDBRANCH  28  30
ENDBRANCH  27  28
ENDBRANCH   1  27
TORSDOF 5
ENDMDL
MODEL 9
REMARK VINA RESULT:      -6.5      5.056     10.428
REMARK  Name = 
REMARK  6 active torsions:
REMARK  status: ('A' for Active; 'I' for Inactive)
REMARK    1  A    between atoms: C_1  and  O_2
REMARK    2  A    between atoms: O_2  and  C_3
REMARK    3  A    between atoms: C_3  and  C_4
REMARK    4  A    between atoms: C_4  and  N_5
REMARK    5  A    between atoms: N_9  and  C_10
REMARK    6  A    between atoms: N_19  and  C_20
REMARK                            x       y       z     vdW  Elec       q    Type
REMARK                         _______ _______ _______ _____ _____    ______ ____
ROOT
ATOM      1  N   UNL     1      -2.057  10.236  16.064  0.00  0.00    +0.000 N 
ATOM      2  C   UNL     1      -1.726  10.686  17.366  0.00  0.00    +0.000 A 
ATOM      3  N   UNL     1      -0.823   9.995  18.094  0.00  0.00    +0.000 NA
ATOM      4  C   UNL     1      -0.593  10.308  19.395  0.00  0.00    +0.000 A 
ATOM      5  N   UNL     1       0.297   9.512  20.168  0.00  0.00    +0.000 N 
ATOM      6  N   UNL     1      -1.276  11.331  19.962  0.00  0.00    +0.000 NA
ATOM      7  C   UNL     1      -2.136  12.078  19.216  0.00  0.00    +0.000 A 
ATOM      8  N   UNL     1      -2.732  13.249  19.757  0.00  0.00    +0.000 N 
ATOM      9  N   UNL     1      -2.362  11.749  17.920  0.00  0.00    +0.000 NA
ATOM     10  H   UNL     1      -1.441   9.548  15.604  0.00  0.00    +0.000 HD
ATOM     11  H   UNL     1       0.152   9.460  21.188  0.00  0.00    +0.000 HD
ATOM     12  H   UNL     1      -2.995  14.005  19.105  0.00  0.00    +0.000 HD
ENDROOT
BRANCH   5  13
ATOM     13  C   UNL     1       1.290   8.694  19.553  0.00  0.00    +0.000 A 
ATOM     14  C   UNL     1       1.868   9.065  18.322  0.00  0.00    +0.000 A 
ATOM     15  C   UNL     1       2.836   8.266  17.718  0.00  0.00    +0.000 A 
ATOM     16  C   UNL     1       3.235   7.077  18.326  0.00  0.00    +0.000 A 
ATOM     17  F   UNL     1       4.164   6.293  17.727  0.00  0.00    +0.000 F 
ATOM     18  C   UNL     1       2.682   6.698  19.554  0.00  0.00    +0.000 A 
ATOM     19  C   UNL     1       1.722   7.511  20.176  0.00  0.00    +0.000 A 
ENDBRANCH   5  13
BRANCH   8  20
ATOM     20  C   UNL     1      -2.919  13.447  21.152  0.00  0.00    +0.000 A 
ATOM     21  C   UNL     1      -2.096  14.342  21.853  0.00  0.00    +0.000 A 
ATOM     22  C   UNL     1      -2.295  14.556  23.222  0.00  0.00    +0.000 A 
ATOM     23  C   UNL     1      -3.331  13.903  23.893  0.00  0.00    +0.000 A 
ATOM     24  F   UNL     1      -3.538  14.120  25.212  0.00  0.00    +0.000 F 
ATOM     25  C   UNL     1      -4.165  13.025  23.195  0.00  0.00    +0.000 A 
ATOM     26  C   UNL     1      -3.958  12.791  21.839  0.00  0.00    +0.000 A 
ENDBRANCH   8  20
BRANCH   1  27
ATOM     27  C   UNL     1      -3.330  10.549  15.447  0.00  0.00    +0.000 C 
BRANCH  27  28
ATOM     28  C   UNL     1      -3.300  10.140  13.968  0.00  0.00    +0.000 C 
BRANCH  28  30
ATOM     29  C   UNL     1      -4.629   9.771  12.125  0.00  0.00    +0.000 C 
ATOM     30  O   UNL     1      -4.602   9.797  13.536  0.00  0.00    +0.000 OA
ENDBRANCH  28  30
ENDBRANCH  27  28
ENDBRANCH   1  27
TORSDOF 5
ENDMDL
