MODEL 1
REMARK VINA RESULT:      -6.7      0.000      0.000
REMARK  Name = 
REMARK  9 active torsions:
REMARK  status: ('A' for Active; 'I' for Inactive)
REMARK    1  A    between atoms: C_1  and  C_2
REMARK    2  A    between atoms: C_2  and  C_3
REMARK    3  A    between atoms: C_3  and  C_4
REMARK    4  A    between atoms: C_3  and  C_5
REMARK    5  A    between atoms: C_5  and  O_6
REMARK    6  A    between atoms: C_10  and  C_11
REMARK    7  A    between atoms: C_17  and  C_18
REMARK    8  A    between atoms: C_18  and  O_19
REMARK    9  A    between atoms: C_25  and  C_26
REMARK                            x       y       z     vdW  Elec       q    Type
REMARK                         _______ _______ _______ _____ _____    ______ ____
ROOT
ATOM      1  C   UNL     1       3.878   3.191  19.813  0.00  0.00    +0.000 C 
ATOM      2  O   UNL     1       5.314   3.336  19.527  0.00  0.00    +0.000 OA
ATOM      3  C   UNL     1       5.360   4.408  18.551  0.00  0.00    +0.000 C 
ATOM      4  C   UNL     1       6.636   4.551  17.785  0.00  0.00    +0.000 C 
ATOM      5  C   UNL     1       6.776   5.985  17.197  0.00  0.00    +0.000 C 
ATOM      6  C   UNL     1       7.596   6.873  18.123  0.00  0.00    +0.000 C 
ATOM      7  O   UNL     1       7.315   5.768  15.882  0.00  0.00    +0.000 OA
ATOM      8  C   UNL     1       6.137   5.747  15.096  0.00  0.00    +0.000 C 
ATOM      9  C   UNL     1       5.293   6.738  15.340  0.00  0.00    +0.000 C 
ATOM     10  C   UNL     1       5.553   6.810  16.800  0.00  0.00    +0.000 C 
ATOM     11  O   UNL     1       4.759   7.347  17.555  0.00  0.00    +0.000 OA
ATOM     12  C   UNL     1       5.691   4.407  14.698  0.00  0.00    +0.000 C 
ATOM     13  C   UNL     1       4.605   3.784  15.252  0.00  0.00    +0.000 C 
ATOM     14  C   UNL     1       3.666   4.318  16.324  0.00  0.00    +0.000 C 
ATOM     15  O   UNL     1       2.366   3.662  16.370  0.00  0.00    +0.000 OA
ATOM     16  C   UNL     1       2.079   3.291  17.688  0.00  0.00    +0.000 C 
ATOM     17  O   UNL     1       0.960   3.112  18.125  0.00  0.00    +0.000 OA
ATOM     18  C   UNL     1       3.388   3.024  18.362  0.00  0.00    +0.000 C 
ATOM     19  C   UNL     1       3.795   1.629  17.806  0.00  0.00    +0.000 C 
ATOM     20  C   UNL     1       4.063   4.259  17.778  0.00  0.00    +0.000 C 
ENDROOT
BRANCH   1  21
ATOM     21  C   UNL     1       3.578   2.038  20.812  0.00  0.00    +0.000 C 
ATOM     22  C   UNL     1       4.880   1.492  21.433  0.00  0.00    +0.000 C 
BRANCH  21  24
ATOM     23  C   UNL     1       1.151   2.630  21.556  0.00  0.00    +0.000 C 
ATOM     24  C   UNL     1       2.624   2.595  21.901  0.00  0.00    +0.000 C 
ENDBRANCH  21  24
ENDBRANCH   1  21
BRANCH   1  25
ATOM     25  O   UNL     1       3.515   4.381  20.525  0.00  0.00    +0.000 OA
ATOM     26  H   UNL     1       2.660   4.741  20.271  0.00  0.00    +0.000 HD
ENDBRANCH   1  25
BRANCH  12  27
ATOM     27  C   UNL     1       6.700   3.669  13.839  0.00  0.00    +0.000 C 
BRANCH  27  28
ATOM     28  O   UNL     1       6.076   3.135  12.671  0.00  0.00    +0.000 OA
ATOM     29  H   UNL     1       6.796   2.929  12.049  0.00  0.00    +0.000 HD
ENDBRANCH  27  28
ENDBRANCH  12  27
TORSDOF 5
ENDMDL
MODEL 2
REMARK VINA RESULT:      -6.3      8.485     12.020
REMARK  Name = 
REMARK  9 active torsions:
REMARK  status: ('A' for Active; 'I' for Inactive)
REMARK    1  A    between atoms: C_1  and  C_2
REMARK    2  A    between atoms: C_2  and  C_3
REMARK    3  A    between atoms: C_3  and  C_4
REMARK    4  A    between atoms: C_3  and  C_5
REMARK    5  A    between atoms: C_5  and  O_6
REMARK    6  A    between atoms: C_10  and  C_11
REMARK    7  A    between atoms: C_17  and  C_18
REMARK    8  A    between atoms: C_18  and  O_19
REMARK    9  A    between atoms: C_25  and  C_26
REMARK                            x       y       z     vdW  Elec       q    Type
REMARK                         _______ _______ _______ _____ _____    ______ ____
ROOT
ATOM      1  C   UNL     1       6.546  15.570  19.341  0.00  0.00    +0.000 C 
ATOM      2  O   UNL     1       6.744  14.631  18.225  0.00  0.00    +0.000 OA
ATOM      3  C   UNL     1       7.792  13.750  18.704  0.00  0.00    +0.000 C 
ATOM      4  C   UNL     1       8.477  12.915  17.670  0.00  0.00    +0.000 C 
ATOM      5  C   UNL     1       9.160  11.675  18.317  0.00  0.00    +0.000 C 
ATOM      6  C   UNL     1       8.250  10.456  18.247  0.00  0.00    +0.000 C 
ATOM      7  O   UNL     1      10.416  11.571  17.624  0.00  0.00    +0.000 OA
ATOM      8  C   UNL     1      11.276  12.284  18.495  0.00  0.00    +0.000 C 
ATOM      9  C   UNL     1      11.165  11.954  19.772  0.00  0.00    +0.000 C 
ATOM     10  C   UNL     1       9.700  11.713  19.745  0.00  0.00    +0.000 C 
ATOM     11  O   UNL     1       9.043  11.715  20.774  0.00  0.00    +0.000 OA
ATOM     12  C   UNL     1      11.603  13.645  18.053  0.00  0.00    +0.000 C 
ATOM     13  C   UNL     1      11.079  14.767  18.637  0.00  0.00    +0.000 C 
ATOM     14  C   UNL     1      10.116  14.847  19.813  0.00  0.00    +0.000 C 
ATOM     15  O   UNL     1      10.110  16.131  20.502  0.00  0.00    +0.000 OA
ATOM     16  C   UNL     1       8.790  16.570  20.653  0.00  0.00    +0.000 C 
ATOM     17  O   UNL     1       8.419  17.351  21.506  0.00  0.00    +0.000 OA
ATOM     18  C   UNL     1       8.011  16.020  19.501  0.00  0.00    +0.000 C 
ATOM     19  C   UNL     1       8.432  16.939  18.318  0.00  0.00    +0.000 C 
ATOM     20  C   UNL     1       8.638  14.635  19.598  0.00  0.00    +0.000 C 
ENDROOT
BRANCH   1  21
ATOM     21  C   UNL     1       5.487  16.663  19.025  0.00  0.00    +0.000 C 
ATOM     22  C   UNL     1       4.300  16.072  18.237  0.00  0.00    +0.000 C 
BRANCH  21  24
ATOM     23  C   UNL     1       3.579  17.722  20.450  0.00  0.00    +0.000 C 
ATOM     24  C   UNL     1       5.021  17.270  20.374  0.00  0.00    +0.000 C 
ENDBRANCH  21  24
ENDBRANCH   1  21
BRANCH   1  25
ATOM     25  O   UNL     1       5.952  14.791  20.386  0.00  0.00    +0.000 OA
ATOM     26  H   UNL     1       5.749  15.294  21.180  0.00  0.00    +0.000 HD
ENDBRANCH   1  25
BRANCH  12  27
ATOM     27  C   UNL     1      12.333  13.685  16.725  0.00  0.00    +0.000 C 
BRANCH  27  28
ATOM     28  O   UNL     1      11.427  13.474  15.642  0.00  0.00    +0.000 OA
ATOM     29  H   UNL     1      10.688  12.953  16.004  0.00  0.00    +0.000 HD
ENDBRANCH  27  28
ENDBRANCH  12  27
TORSDOF 5
ENDMDL
MODEL 3
REMARK VINA RESULT:      -6.2      9.680     12.229
REMARK  Name = 
REMARK  9 active torsions:
REMARK  status: ('A' for Active; 'I' for Inactive)
REMARK    1  A    between atoms: C_1  and  C_2
REMARK    2  A    between atoms: C_2  and  C_3
REMARK    3  A    between atoms: C_3  and  C_4
REMARK    4  A    between atoms: C_3  and  C_5
REMARK    5  A    between atoms: C_5  and  O_6
REMARK    6  A    between atoms: C_10  and  C_11
REMARK    7  A    between atoms: C_17  and  C_18
REMARK    8  A    between atoms: C_18  and  O_19
REMARK    9  A    between atoms: C_25  and  C_26
REMARK                            x       y       z     vdW  Elec       q    Type
REMARK                         _______ _______ _______ _____ _____    ______ ____
ROOT
ATOM      1  C   UNL     1       8.178  13.990  22.712  0.00  0.00    +0.000 C 
ATOM      2  O   UNL     1       7.722  13.606  21.366  0.00  0.00    +0.000 OA
ATOM      3  C   UNL     1       8.958  13.410  20.631  0.00  0.00    +0.000 C 
ATOM      4  C   UNL     1       8.841  13.370  19.141  0.00  0.00    +0.000 C 
ATOM      5  C   UNL     1      10.063  12.646  18.506  0.00  0.00    +0.000 C 
ATOM      6  C   UNL     1       9.752  11.176  18.256  0.00  0.00    +0.000 C 
ATOM      7  O   UNL     1      10.367  13.436  17.344  0.00  0.00    +0.000 OA
ATOM      8  C   UNL     1      11.365  14.305  17.851  0.00  0.00    +0.000 C 
ATOM      9  C   UNL     1      12.319  13.704  18.544  0.00  0.00    +0.000 C 
ATOM     10  C   UNL     1      11.442  12.676  19.161  0.00  0.00    +0.000 C 
ATOM     11  O   UNL     1      11.785  12.077  20.166  0.00  0.00    +0.000 OA
ATOM     12  C   UNL     1      10.897  15.661  18.157  0.00  0.00    +0.000 C 
ATOM     13  C   UNL     1      10.711  16.118  19.434  0.00  0.00    +0.000 C 
ATOM     14  C   UNL     1      10.951  15.372  20.739  0.00  0.00    +0.000 C 
ATOM     15  O   UNL     1      11.125  16.231  21.903  0.00  0.00    +0.000 OA
ATOM     16  C   UNL     1      10.296  15.785  22.938  0.00  0.00    +0.000 C 
ATOM     17  O   UNL     1      10.490  16.003  24.117  0.00  0.00    +0.000 OA
ATOM     18  C   UNL     1       9.100  15.153  22.298  0.00  0.00    +0.000 C 
ATOM     19  C   UNL     1       8.260  16.376  21.832  0.00  0.00    +0.000 C 
ATOM     20  C   UNL     1       9.920  14.401  21.257  0.00  0.00    +0.000 C 
ENDROOT
BRANCH   1  21
ATOM     21  C   UNL     1       7.002  14.310  23.675  0.00  0.00    +0.000 C 
ATOM     22  C   UNL     1       5.645  13.980  23.022  0.00  0.00    +0.000 C 
BRANCH  21  24
ATOM     23  C   UNL     1       6.047  12.654  25.448  0.00  0.00    +0.000 C 
ATOM     24  C   UNL     1       7.218  13.487  24.972  0.00  0.00    +0.000 C 
ENDBRANCH  21  24
ENDBRANCH   1  21
BRANCH   1  25
ATOM     25  O   UNL     1       8.773  12.806  23.258  0.00  0.00    +0.000 OA
ATOM     26  H   UNL     1       8.135  12.137  23.525  0.00  0.00    +0.000 HD
ENDBRANCH   1  25
BRANCH  12  27
ATOM     27  C   UNL     1      10.369  16.402  16.944  0.00  0.00    +0.000 C 
BRANCH  27  28
ATOM     28  O   UNL     1      10.841  15.801  15.738  0.00  0.00    +0.000 OA
ATOM     29  H   UNL     1      10.490  16.343  15.009  0.00  0.00    +0.000 HD
ENDBRANCH  27  28
ENDBRANCH  12  27
TORSDOF 5
ENDMDL
MODEL 4
REMARK VINA RESULT:      -6.0     10.534     12.829
REMARK  Name = 
REMARK  9 active torsions:
REMARK  status: ('A' for Active; 'I' for Inactive)
REMARK    1  A    between atoms: C_1  and  C_2
REMARK    2  A    between atoms: C_2  and  C_3
REMARK    3  A    between atoms: C_3  and  C_4
REMARK    4  A    between atoms: C_3  and  C_5
REMARK    5  A    between atoms: C_5  and  O_6
REMARK    6  A    between atoms: C_10  and  C_11
REMARK    7  A    between atoms: C_17  and  C_18
REMARK    8  A    between atoms: C_18  and  O_19
REMARK    9  A    between atoms: C_25  and  C_26
REMARK                            x       y       z     vdW  Elec       q    Type
REMARK                         _______ _______ _______ _____ _____    ______ ____
ROOT
ATOM      1  C   UNL     1      -1.384  11.557  19.101  0.00  0.00    +0.000 C 
ATOM      2  O   UNL     1      -2.809  11.495  19.464  0.00  0.00    +0.000 OA
ATOM      3  C   UNL     1      -3.030  12.732  20.189  0.00  0.00    +0.000 C 
ATOM      4  C   UNL     1      -4.280  12.806  21.006  0.00  0.00    +0.000 C 
ATOM      5  C   UNL     1      -4.678  14.284  21.284  0.00  0.00    +0.000 C 
ATOM      6  C   UNL     1      -5.692  14.774  20.258  0.00  0.00    +0.000 C 
ATOM      7  O   UNL     1      -5.115  14.273  22.654  0.00  0.00    +0.000 OA
ATOM      8  C   UNL     1      -3.927  14.648  23.329  0.00  0.00    +0.000 C 
ATOM      9  C   UNL     1      -3.306  15.697  22.812  0.00  0.00    +0.000 C 
ATOM     10  C   UNL     1      -3.629  15.389  21.396  0.00  0.00    +0.000 C 
ATOM     11  O   UNL     1      -2.986  15.879  20.483  0.00  0.00    +0.000 OA
ATOM     12  C   UNL     1      -3.210  13.538  23.967  0.00  0.00    +0.000 C 
ATOM     13  C   UNL     1      -2.044  13.018  23.473  0.00  0.00    +0.000 C 
ATOM     14  C   UNL     1      -1.270  13.460  22.241  0.00  0.00    +0.000 C 
ATOM     15  O   UNL     1       0.131  13.062  22.232  0.00  0.00    +0.000 OA
ATOM     16  C   UNL     1       0.436  12.463  21.005  0.00  0.00    +0.000 C 
ATOM     17  O   UNL     1       1.552  12.400  20.528  0.00  0.00    +0.000 OA
ATOM     18  C   UNL     1      -0.818  11.815  20.511  0.00  0.00    +0.000 C 
ATOM     19  C   UNL     1      -0.920  10.530  21.383  0.00  0.00    +0.000 C 
ATOM     20  C   UNL     1      -1.702  13.003  20.870  0.00  0.00    +0.000 C 
ENDROOT
BRANCH   1  21
ATOM     21  C   UNL     1      -0.900  10.285  18.351  0.00  0.00    +0.000 C 
ATOM     22  C   UNL     1      -1.766  10.015  17.104  0.00  0.00    +0.000 C 
BRANCH  21  24
ATOM     23  C   UNL     1       1.554   9.407  18.368  0.00  0.00    +0.000 C 
ATOM     24  C   UNL     1       0.587  10.502  17.969  0.00  0.00    +0.000 C 
ENDBRANCH  21  24
ENDBRANCH   1  21
BRANCH   1  25
ATOM     25  O   UNL     1      -1.291  12.602  18.125  0.00  0.00    +0.000 OA
ATOM     26  H   UNL     1      -0.541  12.512  17.529  0.00  0.00    +0.000 HD
ENDBRANCH   1  25
BRANCH  12  27
ATOM     27  C   UNL     1      -4.021  12.839  25.042  0.00  0.00    +0.000 C 
BRANCH  27  28
ATOM     28  O   UNL     1      -4.812  11.793  24.479  0.00  0.00    +0.000 OA
ATOM     29  H   UNL     1      -4.982  11.162  25.202  0.00  0.00    +0.000 HD
ENDBRANCH  27  28
ENDBRANCH  12  27
TORSDOF 5
ENDMDL
MODEL 5
REMARK VINA RESULT:      -6.0      9.421     13.060
REMARK  Name = 
REMARK  9 active torsions:
REMARK  status: ('A' for Active; 'I' for Inactive)
REMARK    1  A    between atoms: C_1  and  C_2
REMARK    2  A    between atoms: C_2  and  C_3
REMARK    3  A    between atoms: C_3  and  C_4
REMARK    4  A    between atoms: C_3  and  C_5
REMARK    5  A    between atoms: C_5  and  O_6
REMARK    6  A    between atoms: C_10  and  C_11
REMARK    7  A    between atoms: C_17  and  C_18
REMARK    8  A    between atoms: C_18  and  O_19
REMARK    9  A    between atoms: C_25  and  C_26
REMARK                            x       y       z     vdW  Elec       q    Type
REMARK                         _______ _______ _______ _____ _____    ______ ____
ROOT
ATOM      1  C   UNL     1       9.534  12.751  18.865  0.00  0.00    +0.000 C 
ATOM      2  O   UNL     1       9.183  13.398  20.140  0.00  0.00    +0.000 OA
ATOM      3  C   UNL     1       9.097  14.805  19.795  0.00  0.00    +0.000 C 
ATOM      4  C   UNL     1       9.117  15.768  20.939  0.00  0.00    +0.000 C 
ATOM      5  C   UNL     1       8.499  17.135  20.528  0.00  0.00    +0.000 C 
ATOM      6  C   UNL     1       7.025  17.199  20.907  0.00  0.00    +0.000 C 
ATOM      7  O   UNL     1       9.358  18.105  21.151  0.00  0.00    +0.000 OA
ATOM      8  C   UNL     1      10.262  18.393  20.100  0.00  0.00    +0.000 C 
ATOM      9  C   UNL     1       9.690  18.631  18.929  0.00  0.00    +0.000 C 
ATOM     10  C   UNL     1       8.584  17.653  19.094  0.00  0.00    +0.000 C 
ATOM     11  O   UNL     1       7.963  17.239  18.130  0.00  0.00    +0.000 OA
ATOM     12  C   UNL     1      11.573  17.745  20.225  0.00  0.00    +0.000 C 
ATOM     13  C   UNL     1      11.959  16.684  19.450  0.00  0.00    +0.000 C 
ATOM     14  C   UNL     1      11.172  15.998  18.343  0.00  0.00    +0.000 C 
ATOM     15  O   UNL     1      11.986  15.242  17.401  0.00  0.00    +0.000 OA
ATOM     16  C   UNL     1      11.444  13.963  17.239  0.00  0.00    +0.000 C 
ATOM     17  O   UNL     1      11.620  13.259  16.265  0.00  0.00    +0.000 OA
ATOM     18  C   UNL     1      10.769  13.608  18.526  0.00  0.00    +0.000 C 
ATOM     19  C   UNL     1      11.958  13.245  19.462  0.00  0.00    +0.000 C 
ATOM     20  C   UNL     1      10.116  14.975  18.685  0.00  0.00    +0.000 C 
ENDROOT
BRANCH   1  21
ATOM     21  C   UNL     1       9.738  11.217  19.006  0.00  0.00    +0.000 C 
ATOM     22  C   UNL     1       9.510  10.760  20.462  0.00  0.00    +0.000 C 
BRANCH  21  24
ATOM     23  C   UNL     1       8.495   9.047  18.272  0.00  0.00    +0.000 C 
ATOM     24  C   UNL     1       8.750  10.520  18.035  0.00  0.00    +0.000 C 
ENDBRANCH  21  24
ENDBRANCH   1  21
BRANCH   1  25
ATOM     25  O   UNL     1       8.366  12.880  18.045  0.00  0.00    +0.000 OA
ATOM     26  H   UNL     1       7.601  13.234  18.510  0.00  0.00    +0.000 HD
ENDBRANCH   1  25
BRANCH  12  27
ATOM     27  C   UNL     1      12.333  18.162  21.468  0.00  0.00    +0.000 C 
BRANCH  27  28
ATOM     28  O   UNL     1      11.834  17.481  22.619  0.00  0.00    +0.000 OA
ATOM     29  H   UNL     1      11.223  16.799  22.287  0.00  0.00    +0.000 HD
ENDBRANCH  27  28
ENDBRANCH  12  27
TORSDOF 5
ENDMDL
MODEL 6
REMARK VINA RESULT:      -5.9      9.181     12.286
REMARK  Name = 
REMARK  9 active torsions:
REMARK  status: ('A' for Active; 'I' for Inactive)
REMARK    1  A    between atoms: C_1  and  C_2
REMARK    2  A    between atoms: C_2  and  C_3
REMARK    3  A    between atoms: C_3  and  C_4
REMARK    4  A    between atoms: C_3  and  C_5
REMARK    5  A    between atoms: C_5  and  O_6
REMARK    6  A    between atoms: C_10  and  C_11
REMARK    7  A    between atoms: C_17  and  C_18
REMARK    8  A    between atoms: C_18  and  O_19
REMARK    9  A    between atoms: C_25  and  C_26
REMARK                            x       y       z     vdW  Elec       q    Type
REMARK                         _______ _______ _______ _____ _____    ______ ____
ROOT
ATOM      1  C   UNL     1       5.910  15.485  19.357  0.00  0.00    +0.000 C 
ATOM      2  O   UNL     1       6.430  14.682  18.239  0.00  0.00    +0.000 OA
ATOM      3  C   UNL     1       7.613  14.051  18.795  0.00  0.00    +0.000 C 
ATOM      4  C   UNL     1       8.571  13.461  17.811  0.00  0.00    +0.000 C 
ATOM      5  C   UNL     1       9.472  12.386  18.486  0.00  0.00    +0.000 C 
ATOM      6  C   UNL     1       8.894  10.991  18.286  0.00  0.00    +0.000 C 
ATOM      7  O   UNL     1      10.773  12.622  17.921  0.00  0.00    +0.000 OA
ATOM      8  C   UNL     1      11.352  13.470  18.897  0.00  0.00    +0.000 C 
ATOM      9  C   UNL     1      11.208  13.054  20.145  0.00  0.00    +0.000 C 
ATOM     10  C   UNL     1       9.853  12.474  19.962  0.00  0.00    +0.000 C 
ATOM     11  O   UNL     1       9.125  12.263  20.918  0.00  0.00    +0.000 OA
ATOM     12  C   UNL     1      11.378  14.892  18.533  0.00  0.00    +0.000 C 
ATOM     13  C   UNL     1      10.546  15.823  19.094  0.00  0.00    +0.000 C 
ATOM     14  C   UNL     1       9.490  15.608  20.168  0.00  0.00    +0.000 C 
ATOM     15  O   UNL     1       9.110  16.814  20.892  0.00  0.00    +0.000 OA
ATOM     16  C   UNL     1       7.715  16.917  20.922  0.00  0.00    +0.000 C 
ATOM     17  O   UNL     1       7.089  17.540  21.756  0.00  0.00    +0.000 OA
ATOM     18  C   UNL     1       7.201  16.261  19.680  0.00  0.00    +0.000 C 
ATOM     19  C   UNL     1       7.493  17.317  18.574  0.00  0.00    +0.000 C 
ATOM     20  C   UNL     1       8.133  15.062  19.798  0.00  0.00    +0.000 C 
ENDROOT
BRANCH   1  21
ATOM     21  C   UNL     1       4.651  16.309  18.969  0.00  0.00    +0.000 C 
ATOM     22  C   UNL     1       3.898  15.651  17.795  0.00  0.00    +0.000 C 
BRANCH  21  24
ATOM     23  C   UNL     1       3.671  17.773  20.890  0.00  0.00    +0.000 C 
ATOM     24  C   UNL     1       3.751  16.415  20.228  0.00  0.00    +0.000 C 
ENDBRANCH  21  24
ENDBRANCH   1  21
BRANCH   1  25
ATOM     25  O   UNL     1       5.429  14.530  20.312  0.00  0.00    +0.000 OA
ATOM     26  H   UNL     1       6.031  14.376  21.046  0.00  0.00    +0.000 HD
ENDBRANCH   1  25
BRANCH  12  27
ATOM     27  C   UNL     1      12.195  15.177  17.288  0.00  0.00    +0.000 C 
BRANCH  27  28
ATOM     28  O   UNL     1      11.386  15.074  16.116  0.00  0.00    +0.000 OA
ATOM     29  H   UNL     1      11.828  15.609  15.433  0.00  0.00    +0.000 HD
ENDBRANCH  27  28
ENDBRANCH  12  27
TORSDOF 5
ENDMDL
MODEL 7
REMARK VINA RESULT:      -5.9      9.911     11.403
REMARK  Name = 
REMARK  9 active torsions:
REMARK  status: ('A' for Active; 'I' for Inactive)
REMARK    1  A    between atoms: C_1  and  C_2
REMARK    2  A    between atoms: C_2  and  C_3
REMARK    3  A    between atoms: C_3  and  C_4
REMARK    4  A    between atoms: C_3  and  C_5
REMARK    5  A    between atoms: C_5  and  O_6
REMARK    6  A    between atoms: C_10  and  C_11
REMARK    7  A    between atoms: C_17  and  C_18
REMARK    8  A    between atoms: C_18  and  O_19
REMARK    9  A    between atoms: C_25  and  C_26
REMARK                            x       y       z     vdW  Elec       q    Type
REMARK                         _______ _______ _______ _____ _____    ______ ____
ROOT
ATOM      1  C   UNL     1      -2.332  13.428  23.261  0.00  0.00    +0.000 C 
ATOM      2  O   UNL     1      -2.243  11.972  23.073  0.00  0.00    +0.000 OA
ATOM      3  C   UNL     1      -1.122  11.813  22.166  0.00  0.00    +0.000 C 
ATOM      4  C   UNL     1      -1.001  10.484  21.491  0.00  0.00    +0.000 C 
ATOM      5  C   UNL     1       0.455  10.241  20.997  0.00  0.00    +0.000 C 
ATOM      6  C   UNL     1       1.249   9.442  22.022  0.00  0.00    +0.000 C 
ATOM      7  O   UNL     1       0.284   9.628  19.708  0.00  0.00    +0.000 OA
ATOM      8  C   UNL     1       0.366  10.753  18.851  0.00  0.00    +0.000 C 
ATOM      9  C   UNL     1       1.382  11.563  19.099  0.00  0.00    +0.000 C 
ATOM     10  C   UNL     1       1.361  11.396  20.574  0.00  0.00    +0.000 C 
ATOM     11  O   UNL     1       1.894  12.211  21.308  0.00  0.00    +0.000 OA
ATOM     12  C   UNL     1      -0.927  11.233  18.348  0.00  0.00    +0.000 C 
ATOM     13  C   UNL     1      -1.524  12.380  18.796  0.00  0.00    +0.000 C 
ATOM     14  C   UNL     1      -1.004  13.361  19.837  0.00  0.00    +0.000 C 
ATOM     15  O   UNL     1      -1.596  14.690  19.764  0.00  0.00    +0.000 OA
ATOM     16  C   UNL     1      -2.025  15.079  21.038  0.00  0.00    +0.000 C 
ATOM     17  O   UNL     1      -2.172  16.231  21.393  0.00  0.00    +0.000 OA
ATOM     18  C   UNL     1      -2.393  13.830  21.775  0.00  0.00    +0.000 C 
ATOM     19  C   UNL     1      -3.774  13.453  21.165  0.00  0.00    +0.000 C 
ATOM     20  C   UNL     1      -1.164  13.062  21.307  0.00  0.00    +0.000 C 
ENDROOT
BRANCH   1  21
ATOM     21  C   UNL     1      -3.521  13.845  24.170  0.00  0.00    +0.000 C 
ATOM     22  C   UNL     1      -4.171  12.612  24.830  0.00  0.00    +0.000 C 
BRANCH  21  24
ATOM     23  C   UNL     1      -3.367  16.286  25.071  0.00  0.00    +0.000 C 
ATOM     24  C   UNL     1      -2.977  14.833  25.234  0.00  0.00    +0.000 C 
ENDBRANCH  21  24
ENDBRANCH   1  21
BRANCH   1  25
ATOM     25  O   UNL     1      -1.167  13.781  24.017  0.00  0.00    +0.000 OA
ATOM     26  H   UNL     1      -1.316  14.481  24.659  0.00  0.00    +0.000 HD
ENDBRANCH   1  25
BRANCH  12  27
ATOM     27  C   UNL     1      -1.665  10.206  17.512  0.00  0.00    +0.000 C 
BRANCH  27  28
ATOM     28  O   UNL     1      -2.106  10.778  16.280  0.00  0.00    +0.000 OA
ATOM     29  H   UNL     1      -2.853  11.361  16.504  0.00  0.00    +0.000 HD
ENDBRANCH  27  28
ENDBRANCH  12  27
TORSDOF 5
ENDMDL
MODEL 8
REMARK VINA RESULT:      -5.8      9.179     12.288
REMARK  Name = 
REMARK  9 active torsions:
REMARK  status: ('A' for Active; 'I' for Inactive)
REMARK    1  A    between atoms: C_1  and  C_2
REMARK    2  A    between atoms: C_2  and  C_3
REMARK    3  A    between atoms: C_3  and  C_4
REMARK    4  A    between atoms: C_3  and  C_5
REMARK    5  A    between atoms: C_5  and  O_6
REMARK    6  A    between atoms: C_10  and  C_11
REMARK    7  A    between atoms: C_17  and  C_18
REMARK    8  A    between atoms: C_18  and  O_19
REMARK    9  A    between atoms: C_25  and  C_26
REMARK                            x       y       z     vdW  Elec       q    Type
REMARK                         _______ _______ _______ _____ _____    ______ ____
ROOT
ATOM      1  C   UNL     1       6.907  15.164  20.705  0.00  0.00    +0.000 C 
ATOM      2  O   UNL     1       7.038  14.520  19.389  0.00  0.00    +0.000 OA
ATOM      3  C   UNL     1       8.279  13.776  19.496  0.00  0.00    +0.000 C 
ATOM      4  C   UNL     1       8.882  13.308  18.210  0.00  0.00    +0.000 C 
ATOM      5  C   UNL     1       9.855  12.118  18.452  0.00  0.00    +0.000 C 
ATOM      6  C   UNL     1       9.145  10.786  18.241  0.00  0.00    +0.000 C 
ATOM      7  O   UNL     1      10.962  12.393  17.577  0.00  0.00    +0.000 OA
ATOM      8  C   UNL     1      11.848  13.069  18.451  0.00  0.00    +0.000 C 
ATOM      9  C   UNL     1      12.026  12.478  19.622  0.00  0.00    +0.000 C 
ATOM     10  C   UNL     1      10.636  11.973  19.757  0.00  0.00    +0.000 C 
ATOM     11  O   UNL     1      10.187  11.647  20.843  0.00  0.00    +0.000 OA
ATOM     12  C   UNL     1      11.875  14.527  18.287  0.00  0.00    +0.000 C 
ATOM     13  C   UNL     1      11.301  15.391  19.181  0.00  0.00    +0.000 C 
ATOM     14  C   UNL     1      10.571  15.053  20.473  0.00  0.00    +0.000 C 
ATOM     15  O   UNL     1      10.494  16.149  21.429  0.00  0.00    +0.000 OA
ATOM     16  C   UNL     1       9.173  16.291  21.868  0.00  0.00    +0.000 C 
ATOM     17  O   UNL     1       8.850  16.803  22.921  0.00  0.00    +0.000 OA
ATOM     18  C   UNL     1       8.289  15.842  20.747  0.00  0.00    +0.000 C 
ATOM     19  C   UNL     1       8.339  17.041  19.755  0.00  0.00    +0.000 C 
ATOM     20  C   UNL     1       9.129  14.611  20.435  0.00  0.00    +0.000 C 
ENDROOT
BRANCH   1  21
ATOM     21  C   UNL     1       5.652  16.076  20.805  0.00  0.00    +0.000 C 
ATOM     22  C   UNL     1       4.466  15.472  20.027  0.00  0.00    +0.000 C 
BRANCH  21  24
ATOM     23  C   UNL     1       5.441  17.643  22.878  0.00  0.00    +0.000 C 
ATOM     24  C   UNL     1       5.312  16.246  22.309  0.00  0.00    +0.000 C 
ENDBRANCH  21  24
ENDBRANCH   1  21
BRANCH   1  25
ATOM     25  O   UNL     1       6.642  14.094  21.621  0.00  0.00    +0.000 OA
ATOM     26  H   UNL     1       6.140  13.368  21.238  0.00  0.00    +0.000 HD
ENDBRANCH   1  25
BRANCH  12  27
ATOM     27  C   UNL     1      12.333  14.968  16.911  0.00  0.00    +0.000 C 
BRANCH  27  28
ATOM     28  O   UNL     1      11.218  15.143  16.038  0.00  0.00    +0.000 OA
ATOM     29  H   UNL     1      11.545  14.959  15.139  0.00  0.00    +0.000 HD
ENDBRANCH  27  28
ENDBRANCH  12  27
TORSDOF 5
ENDMDL
MODEL 9
REMARK VINA RESULT:      -5.8     10.920     13.067
REMARK  Name = 
REMARK  9 active torsions:
REMARK  status: ('A' for Active; 'I' for Inactive)
REMARK    1  A    between atoms: C_1  and  C_2
REMARK    2  A    between atoms: C_2  and  C_3
REMARK    3  A    between atoms: C_3  and  C_4
REMARK    4  A    between atoms: C_3  and  C_5
REMARK    5  A    between atoms: C_5  and  O_6
REMARK    6  A    between atoms: C_10  and  C_11
REMARK    7  A    between atoms: C_17  and  C_18
REMARK    8  A    between atoms: C_18  and  O_19
REMARK    9  A    between atoms: C_25  and  C_26
REMARK                            x       y       z     vdW  Elec       q    Type
REMARK                         _______ _______ _______ _____ _____    ______ ____
ROOT
ATOM      1  C   UNL     1      -1.413  11.866  19.414  0.00  0.00    +0.000 C 
ATOM      2  O   UNL     1      -2.759  12.106  19.959  0.00  0.00    +0.000 OA
ATOM      3  C   UNL     1      -2.692  13.473  20.441  0.00  0.00    +0.000 C 
ATOM      4  C   UNL     1      -3.777  13.897  21.378  0.00  0.00    +0.000 C 
ATOM      5  C   UNL     1      -3.920  15.447  21.399  0.00  0.00    +0.000 C 
ATOM      6  C   UNL     1      -5.004  15.905  20.432  0.00  0.00    +0.000 C 
ATOM      7  O   UNL     1      -4.136  15.754  22.787  0.00  0.00    +0.000 OA
ATOM      8  C   UNL     1      -2.817  16.043  23.218  0.00  0.00    +0.000 C 
ATOM      9  C   UNL     1      -2.145  16.864  22.426  0.00  0.00    +0.000 C 
ATOM     10  C   UNL     1      -2.724  16.365  21.153  0.00  0.00    +0.000 C 
ATOM     11  O   UNL     1      -2.169  16.570  20.087  0.00  0.00    +0.000 OA
ATOM     12  C   UNL     1      -2.170  14.963  23.972  0.00  0.00    +0.000 C 
ATOM     13  C   UNL     1      -1.178  14.177  23.450  0.00  0.00    +0.000 C 
ATOM     14  C   UNL     1      -0.551  14.257  22.066  0.00  0.00    +0.000 C 
ATOM     15  O   UNL     1       0.764  13.638  21.960  0.00  0.00    +0.000 OA
ATOM     16  C   UNL     1       0.789  12.786  20.851  0.00  0.00    +0.000 C 
ATOM     17  O   UNL     1       1.797  12.455  20.260  0.00  0.00    +0.000 OA
ATOM     18  C   UNL     1      -0.604  12.275  20.660  0.00  0.00    +0.000 C 
ATOM     19  C   UNL     1      -0.745  11.203  21.779  0.00  0.00    +0.000 C 
ATOM     20  C   UNL     1      -1.249  13.638  20.880  0.00  0.00    +0.000 C 
ENDROOT
BRANCH   1  21
ATOM     21  C   UNL     1      -1.231  10.417  18.881  0.00  0.00    +0.000 C 
ATOM     22  C   UNL     1      -2.365  10.040  17.906  0.00  0.00    +0.000 C 
BRANCH  21  24
ATOM     23  C   UNL     1       1.138   9.339  18.755  0.00  0.00    +0.000 C 
ATOM     24  C   UNL     1       0.155  10.341  18.190  0.00  0.00    +0.000 C 
ENDBRANCH  21  24
ENDBRANCH   1  21
BRANCH   1  25
ATOM     25  O   UNL     1      -1.330  12.688  18.243  0.00  0.00    +0.000 OA
ATOM     26  H   UNL     1      -1.999  13.379  18.204  0.00  0.00    +0.000 HD
ENDBRANCH   1  25
BRANCH  12  27
ATOM     27  C   UNL     1      -2.892  14.612  25.258  0.00  0.00    +0.000 C 
BRANCH  27  28
ATOM     28  O   UNL     1      -4.035  13.800  24.992  0.00  0.00    +0.000 OA
ATOM     29  H   UNL     1      -4.304  14.001  24.078  0.00  0.00    +0.000 HD
ENDBRANCH  27  28
ENDBRANCH  12  27
TORSDOF 5
ENDMDL
