MODEL 1
REMARK VINA RESULT:      -8.7      0.000      0.000
REMARK  Name = 
REMARK  5 active torsions:
REMARK  status: ('A' for Active; 'I' for Inactive)
REMARK    1  A    between atoms: C_1  and  C_2
REMARK    2  A    between atoms: C_11  and  C_12
REMARK    3  A    between atoms: N_14  and  N_15
REMARK    4  A    between atoms: C_16  and  C_17
REMARK    5  A    between atoms: C_21  and  N_22
REMARK                            x       y       z     vdW  Elec       q    Type
REMARK                         _______ _______ _______ _____ _____    ______ ____
ROOT
ATOM      1  C   UNL     1       7.271   6.626  18.074  0.00  0.00    +0.000 C 
ATOM      2  O   UNL     1       8.143   6.231  18.838  0.00  0.00    +0.000 OA
ATOM      3  N   UNL     1       7.311   7.840  17.386  0.00  0.00    +0.000 N 
ATOM      4  H   UNL     1       6.613   8.071  16.691  0.00  0.00    +0.000 HD
ENDROOT
BRANCH   1  15
ATOM      5  C   UNL     1       7.027   4.697  15.730  0.00  0.00    +0.000 C 
ATOM      6  C   UNL     1       5.951   4.897  16.757  0.00  0.00    +0.000 A 
ATOM      7  N   UNL     1       4.839   4.132  16.547  0.00  0.00    +0.000 NA
ATOM      8  C   UNL     1       3.805   4.214  17.393  0.00  0.00    +0.000 A 
ATOM      9  C   UNL     1       2.681   3.428  17.182  0.00  0.00    +0.000 A 
ATOM     10  C   UNL     1       1.578   3.479  18.038  0.00  0.00    +0.000 A 
ATOM     11  C   UNL     1       1.594   4.332  19.135  0.00  0.00    +0.000 A 
ATOM     12  C   UNL     1       2.713   5.128  19.372  0.00  0.00    +0.000 A 
ATOM     13  C   UNL     1       3.821   5.072  18.508  0.00  0.00    +0.000 A 
ATOM     14  C   UNL     1       4.968   5.851  18.719  0.00  0.00    +0.000 A 
ATOM     15  C   UNL     1       6.053   5.789  17.830  0.00  0.00    +0.000 A 
ENDBRANCH   1  15
BRANCH   3  16
ATOM     16  N   UNL     1       8.356   8.707  17.571  0.00  0.00    +0.000 NA
ATOM     17  C   UNL     1       8.221   9.548  18.547  0.00  0.00    +0.000 C 
BRANCH  17  18
ATOM     18  C   UNL     1       9.257  10.559  18.865  0.00  0.00    +0.000 A 
ATOM     19  C   UNL     1       9.769  10.672  20.162  0.00  0.00    +0.000 A 
ATOM     20  C   UNL     1      10.753  11.623  20.450  0.00  0.00    +0.000 A 
ATOM     21  C   UNL     1      11.228  12.468  19.445  0.00  0.00    +0.000 A 
ATOM     22  C   UNL     1      10.707  12.355  18.149  0.00  0.00    +0.000 A 
ATOM     23  C   UNL     1       9.723  11.400  17.848  0.00  0.00    +0.000 A 
BRANCH  22  24
ATOM     24  N   UNL     1      11.198  13.251  17.092  0.00  0.00    +0.000 N 
ATOM     25  O   UNL     1      10.530  14.256  16.829  0.00  0.00    +0.000 OA
ATOM     26  O   UNL     1      12.258  12.940  16.527  0.00  0.00    +0.000 OA
ENDBRANCH  22  24
ENDBRANCH  17  18
ENDBRANCH   3  16
TORSDOF 4
ENDMDL
MODEL 2
REMARK VINA RESULT:      -8.5      0.982      1.235
REMARK  Name = 
REMARK  5 active torsions:
REMARK  status: ('A' for Active; 'I' for Inactive)
REMARK    1  A    between atoms: C_1  and  C_2
REMARK    2  A    between atoms: C_11  and  C_12
REMARK    3  A    between atoms: N_14  and  N_15
REMARK    4  A    between atoms: C_16  and  C_17
REMARK    5  A    between atoms: C_21  and  N_22
REMARK                            x       y       z     vdW  Elec       q    Type
REMARK                         _______ _______ _______ _____ _____    ______ ____
ROOT
ATOM      1  C   UNL     1       7.271   6.554  18.163  0.00  0.00    +0.000 C 
ATOM      2  O   UNL     1       8.143   6.127  18.910  0.00  0.00    +0.000 OA
ATOM      3  N   UNL     1       7.311   7.795  17.525  0.00  0.00    +0.000 N 
ATOM      4  H   UNL     1       6.613   8.055  16.842  0.00  0.00    +0.000 HD
ENDROOT
BRANCH   1  15
ATOM      5  C   UNL     1       7.036   4.691  15.765  0.00  0.00    +0.000 C 
ATOM      6  C   UNL     1       5.953   4.867  16.789  0.00  0.00    +0.000 A 
ATOM      7  N   UNL     1       4.840   4.114  16.549  0.00  0.00    +0.000 NA
ATOM      8  C   UNL     1       3.800   4.177  17.390  0.00  0.00    +0.000 A 
ATOM      9  C   UNL     1       2.674   3.402  17.148  0.00  0.00    +0.000 A 
ATOM     10  C   UNL     1       1.565   3.434  17.997  0.00  0.00    +0.000 A 
ATOM     11  C   UNL     1       1.575   4.256  19.117  0.00  0.00    +0.000 A 
ATOM     12  C   UNL     1       2.696   5.041  19.385  0.00  0.00    +0.000 A 
ATOM     13  C   UNL     1       3.811   5.004  18.528  0.00  0.00    +0.000 A 
ATOM     14  C   UNL     1       4.959   5.771  18.769  0.00  0.00    +0.000 A 
ATOM     15  C   UNL     1       6.051   5.730  17.887  0.00  0.00    +0.000 A 
ENDBRANCH   1  15
BRANCH   3  16
ATOM     16  N   UNL     1       8.358   8.652  17.744  0.00  0.00    +0.000 NA
ATOM     17  C   UNL     1       8.033   9.875  18.020  0.00  0.00    +0.000 C 
BRANCH  17  18
ATOM     18  C   UNL     1       9.051  10.924  18.266  0.00  0.00    +0.000 A 
ATOM     19  C   UNL     1      10.278  10.603  18.854  0.00  0.00    +0.000 A 
ATOM     20  C   UNL     1      11.237  11.597  19.075  0.00  0.00    +0.000 A 
ATOM     21  C   UNL     1      10.971  12.919  18.711  0.00  0.00    +0.000 A 
ATOM     22  C   UNL     1       9.738  13.237  18.128  0.00  0.00    +0.000 A 
ATOM     23  C   UNL     1       8.771  12.245  17.898  0.00  0.00    +0.000 A 
BRANCH  22  24
ATOM     24  N   UNL     1       9.453  14.630  17.754  0.00  0.00    +0.000 N 
ATOM     25  O   UNL     1      10.388  15.318  17.330  0.00  0.00    +0.000 OA
ATOM     26  O   UNL     1       8.286  15.030  17.889  0.00  0.00    +0.000 OA
ENDBRANCH  22  24
ENDBRANCH  17  18
ENDBRANCH   3  16
TORSDOF 4
ENDMDL
MODEL 3
REMARK VINA RESULT:      -8.3      1.752      2.016
REMARK  Name = 
REMARK  5 active torsions:
REMARK  status: ('A' for Active; 'I' for Inactive)
REMARK    1  A    between atoms: C_1  and  C_2
REMARK    2  A    between atoms: C_11  and  C_12
REMARK    3  A    between atoms: N_14  and  N_15
REMARK    4  A    between atoms: C_16  and  C_17
REMARK    5  A    between atoms: C_21  and  N_22
REMARK                            x       y       z     vdW  Elec       q    Type
REMARK                         _______ _______ _______ _____ _____    ______ ____
ROOT
ATOM      1  C   UNL     1       7.236   6.582  17.922  0.00  0.00    +0.000 C 
ATOM      2  O   UNL     1       8.132   6.191  18.659  0.00  0.00    +0.000 OA
ATOM      3  N   UNL     1       7.249   7.797  17.235  0.00  0.00    +0.000 N 
ATOM      4  H   UNL     1       6.530   8.025  16.561  0.00  0.00    +0.000 HD
ENDROOT
BRANCH   1  15
ATOM      5  C   UNL     1       6.967   4.591  15.633  0.00  0.00    +0.000 C 
ATOM      6  C   UNL     1       5.902   4.819  16.665  0.00  0.00    +0.000 A 
ATOM      7  N   UNL     1       4.788   4.049  16.487  0.00  0.00    +0.000 NA
ATOM      8  C   UNL     1       3.762   4.155  17.342  0.00  0.00    +0.000 A 
ATOM      9  C   UNL     1       2.636   3.363  17.163  0.00  0.00    +0.000 A 
ATOM     10  C   UNL     1       1.542   3.438  18.029  0.00  0.00    +0.000 A 
ATOM     11  C   UNL     1       1.569   4.320  19.103  0.00  0.00    +0.000 A 
ATOM     12  C   UNL     1       2.691   5.122  19.307  0.00  0.00    +0.000 A 
ATOM     13  C   UNL     1       3.790   5.042  18.433  0.00  0.00    +0.000 A 
ATOM     14  C   UNL     1       4.939   5.826  18.611  0.00  0.00    +0.000 A 
ATOM     15  C   UNL     1       6.015   5.740  17.713  0.00  0.00    +0.000 A 
ENDBRANCH   1  15
BRANCH   3  16
ATOM     16  N   UNL     1       8.295   8.669  17.390  0.00  0.00    +0.000 NA
ATOM     17  C   UNL     1       8.148   9.562  18.316  0.00  0.00    +0.000 C 
BRANCH  17  18
ATOM     18  C   UNL     1       9.183  10.585  18.596  0.00  0.00    +0.000 A 
ATOM     19  C   UNL     1      10.213  10.826  17.681  0.00  0.00    +0.000 A 
ATOM     20  C   UNL     1      11.180  11.800  17.948  0.00  0.00    +0.000 A 
ATOM     21  C   UNL     1      11.126  12.535  19.134  0.00  0.00    +0.000 A 
ATOM     22  C   UNL     1      10.096  12.286  20.051  0.00  0.00    +0.000 A 
ATOM     23  C   UNL     1       9.117  11.314  19.789  0.00  0.00    +0.000 A 
BRANCH  22  24
ATOM     24  N   UNL     1      10.042  13.052  21.304  0.00  0.00    +0.000 N 
ATOM     25  O   UNL     1      10.551  14.179  21.315  0.00  0.00    +0.000 OA
ATOM     26  O   UNL     1       9.487  12.518  22.277  0.00  0.00    +0.000 OA
ENDBRANCH  22  24
ENDBRANCH  17  18
ENDBRANCH   3  16
TORSDOF 4
ENDMDL
MODEL 4
REMARK VINA RESULT:      -8.2      5.046      7.936
REMARK  Name = 
REMARK  5 active torsions:
REMARK  status: ('A' for Active; 'I' for Inactive)
REMARK    1  A    between atoms: C_1  and  C_2
REMARK    2  A    between atoms: C_11  and  C_12
REMARK    3  A    between atoms: N_14  and  N_15
REMARK    4  A    between atoms: C_16  and  C_17
REMARK    5  A    between atoms: C_21  and  N_22
REMARK                            x       y       z     vdW  Elec       q    Type
REMARK                         _______ _______ _______ _____ _____    ______ ____
ROOT
ATOM      1  C   UNL     1       4.574   5.809  17.781  0.00  0.00    +0.000 C 
ATOM      2  O   UNL     1       4.740   5.148  18.799  0.00  0.00    +0.000 OA
ATOM      3  N   UNL     1       3.651   6.848  17.653  0.00  0.00    +0.000 N 
ATOM      4  H   UNL     1       3.625   7.426  16.824  0.00  0.00    +0.000 HD
ENDROOT
BRANCH   1  15
ATOM      5  C   UNL     1       7.410   6.848  17.390  0.00  0.00    +0.000 C 
ATOM      6  C   UNL     1       6.694   5.990  16.388  0.00  0.00    +0.000 A 
ATOM      7  N   UNL     1       7.431   5.714  15.272  0.00  0.00    +0.000 NA
ATOM      8  C   UNL     1       6.908   4.955  14.300  0.00  0.00    +0.000 A 
ATOM      9  C   UNL     1       7.665   4.668  13.172  0.00  0.00    +0.000 A 
ATOM     10  C   UNL     1       7.163   3.881  12.133  0.00  0.00    +0.000 A 
ATOM     11  C   UNL     1       5.876   3.363  12.218  0.00  0.00    +0.000 A 
ATOM     12  C   UNL     1       5.098   3.633  13.343  0.00  0.00    +0.000 A 
ATOM     13  C   UNL     1       5.609   4.424  14.387  0.00  0.00    +0.000 A 
ATOM     14  C   UNL     1       4.860   4.710  15.538  0.00  0.00    +0.000 A 
ATOM     15  C   UNL     1       5.387   5.518  16.557  0.00  0.00    +0.000 A 
ENDBRANCH   1  15
BRANCH   3  16
ATOM     16  N   UNL     1       2.820   7.168  18.695  0.00  0.00    +0.000 NA
ATOM     17  C   UNL     1       2.245   8.327  18.619  0.00  0.00    +0.000 C 
BRANCH  17  18
ATOM     18  C   UNL     1       1.332   8.823  19.675  0.00  0.00    +0.000 A 
ATOM     19  C   UNL     1       1.343   8.255  20.953  0.00  0.00    +0.000 A 
ATOM     20  C   UNL     1       0.484   8.736  21.946  0.00  0.00    +0.000 A 
ATOM     21  C   UNL     1      -0.394   9.785  21.665  0.00  0.00    +0.000 A 
ATOM     22  C   UNL     1      -0.406  10.347  20.382  0.00  0.00    +0.000 A 
ATOM     23  C   UNL     1       0.457   9.874  19.380  0.00  0.00    +0.000 A 
BRANCH  22  24
ATOM     24  N   UNL     1      -1.336  11.445  20.082  0.00  0.00    +0.000 N 
ATOM     25  O   UNL     1      -1.575  12.262  20.979  0.00  0.00    +0.000 OA
ATOM     26  O   UNL     1      -1.825  11.484  18.942  0.00  0.00    +0.000 OA
ENDBRANCH  22  24
ENDBRANCH  17  18
ENDBRANCH   3  16
TORSDOF 4
ENDMDL
MODEL 5
REMARK VINA RESULT:      -8.1      5.127      7.869
REMARK  Name = 
REMARK  5 active torsions:
REMARK  status: ('A' for Active; 'I' for Inactive)
REMARK    1  A    between atoms: C_1  and  C_2
REMARK    2  A    between atoms: C_11  and  C_12
REMARK    3  A    between atoms: N_14  and  N_15
REMARK    4  A    between atoms: C_16  and  C_17
REMARK    5  A    between atoms: C_21  and  N_22
REMARK                            x       y       z     vdW  Elec       q    Type
REMARK                         _______ _______ _______ _____ _____    ______ ____
ROOT
ATOM      1  C   UNL     1       4.372   6.082  17.497  0.00  0.00    +0.000 C 
ATOM      2  O   UNL     1       4.246   5.343  18.467  0.00  0.00    +0.000 OA
ATOM      3  N   UNL     1       3.739   7.318  17.356  0.00  0.00    +0.000 N 
ATOM      4  H   UNL     1       3.957   7.931  16.582  0.00  0.00    +0.000 HD
ENDROOT
BRANCH   1  15
ATOM      5  C   UNL     1       7.298   6.899  17.277  0.00  0.00    +0.000 C 
ATOM      6  C   UNL     1       6.595   6.044  16.263  0.00  0.00    +0.000 A 
ATOM      7  N   UNL     1       7.389   5.662  15.220  0.00  0.00    +0.000 NA
ATOM      8  C   UNL     1       6.884   4.894  14.246  0.00  0.00    +0.000 A 
ATOM      9  C   UNL     1       7.698   4.499  13.192  0.00  0.00    +0.000 A 
ATOM     10  C   UNL     1       7.215   3.698  12.154  0.00  0.00    +0.000 A 
ATOM     11  C   UNL     1       5.891   3.276  12.164  0.00  0.00    +0.000 A 
ATOM     12  C   UNL     1       5.056   3.655  13.214  0.00  0.00    +0.000 A 
ATOM     13  C   UNL     1       5.546   4.460  14.257  0.00  0.00    +0.000 A 
ATOM     14  C   UNL     1       4.739   4.855  15.334  0.00  0.00    +0.000 A 
ATOM     15  C   UNL     1       5.249   5.674  16.353  0.00  0.00    +0.000 A 
ENDBRANCH   1  15
BRANCH   3  16
ATOM     16  N   UNL     1       2.877   7.768  18.320  0.00  0.00    +0.000 NA
ATOM     17  C   UNL     1       2.141   8.782  17.987  0.00  0.00    +0.000 C 
BRANCH  17  18
ATOM     18  C   UNL     1       1.171   9.394  18.925  0.00  0.00    +0.000 A 
ATOM     19  C   UNL     1       0.040  10.063  18.446  0.00  0.00    +0.000 A 
ATOM     20  C   UNL     1      -0.875  10.630  19.338  0.00  0.00    +0.000 A 
ATOM     21  C   UNL     1      -0.662  10.534  20.715  0.00  0.00    +0.000 A 
ATOM     22  C   UNL     1       0.475   9.867  21.190  0.00  0.00    +0.000 A 
ATOM     23  C   UNL     1       1.397   9.291  20.302  0.00  0.00    +0.000 A 
BRANCH  22  24
ATOM     24  N   UNL     1       0.705   9.774  22.639  0.00  0.00    +0.000 N 
ATOM     25  O   UNL     1      -0.211  10.120  23.394  0.00  0.00    +0.000 OA
ATOM     26  O   UNL     1       1.809   9.352  23.016  0.00  0.00    +0.000 OA
ENDBRANCH  22  24
ENDBRANCH  17  18
ENDBRANCH   3  16
TORSDOF 4
ENDMDL
MODEL 6
REMARK VINA RESULT:      -8.1      1.817      2.238
REMARK  Name = 
REMARK  5 active torsions:
REMARK  status: ('A' for Active; 'I' for Inactive)
REMARK    1  A    between atoms: C_1  and  C_2
REMARK    2  A    between atoms: C_11  and  C_12
REMARK    3  A    between atoms: N_14  and  N_15
REMARK    4  A    between atoms: C_16  and  C_17
REMARK    5  A    between atoms: C_21  and  N_22
REMARK                            x       y       z     vdW  Elec       q    Type
REMARK                         _______ _______ _______ _____ _____    ______ ____
ROOT
ATOM      1  C   UNL     1       7.242   7.169  17.322  0.00  0.00    +0.000 C 
ATOM      2  O   UNL     1       7.893   6.923  16.314  0.00  0.00    +0.000 OA
ATOM      3  N   UNL     1       7.262   8.389  18.000  0.00  0.00    +0.000 N 
ATOM      4  H   UNL     1       6.629   8.571  18.767  0.00  0.00    +0.000 HD
ENDROOT
BRANCH   1  15
ATOM      5  C   UNL     1       8.076   5.422  19.674  0.00  0.00    +0.000 C 
ATOM      6  C   UNL     1       6.737   5.327  19.002  0.00  0.00    +0.000 A 
ATOM      7  N   UNL     1       5.916   4.378  19.540  0.00  0.00    +0.000 NA
ATOM      8  C   UNL     1       4.691   4.192  19.032  0.00  0.00    +0.000 A 
ATOM      9  C   UNL     1       3.856   3.233  19.589  0.00  0.00    +0.000 A 
ATOM     10  C   UNL     1       2.570   3.004  19.094  0.00  0.00    +0.000 A 
ATOM     11  C   UNL     1       2.100   3.749  18.019  0.00  0.00    +0.000 A 
ATOM     12  C   UNL     1       2.917   4.722  17.446  0.00  0.00    +0.000 A 
ATOM     13  C   UNL     1       4.210   4.950  17.949  0.00  0.00    +0.000 A 
ATOM     14  C   UNL     1       5.058   5.925  17.405  0.00  0.00    +0.000 A 
ATOM     15  C   UNL     1       6.352   6.119  17.914  0.00  0.00    +0.000 A 
ENDBRANCH   1  15
BRANCH   3  16
ATOM     16  N   UNL     1       8.077   9.404  17.574  0.00  0.00    +0.000 NA
ATOM     17  C   UNL     1       8.582  10.148  18.508  0.00  0.00    +0.000 C 
BRANCH  17  18
ATOM     18  C   UNL     1       9.470  11.295  18.207  0.00  0.00    +0.000 A 
ATOM     19  C   UNL     1      10.839  11.101  17.997  0.00  0.00    +0.000 A 
ATOM     20  C   UNL     1      11.669  12.188  17.705  0.00  0.00    +0.000 A 
ATOM     21  C   UNL     1      11.134  13.476  17.625  0.00  0.00    +0.000 A 
ATOM     22  C   UNL     1       9.763  13.666  17.842  0.00  0.00    +0.000 A 
ATOM     23  C   UNL     1       8.922  12.580  18.131  0.00  0.00    +0.000 A 
BRANCH  22  24
ATOM     24  N   UNL     1       9.201  15.022  17.768  0.00  0.00    +0.000 N 
ATOM     25  O   UNL     1       9.977  15.959  17.551  0.00  0.00    +0.000 OA
ATOM     26  O   UNL     1       7.976  15.142  17.928  0.00  0.00    +0.000 OA
ENDBRANCH  22  24
ENDBRANCH  17  18
ENDBRANCH   3  16
TORSDOF 4
ENDMDL
MODEL 7
REMARK VINA RESULT:      -8.0      1.729      3.472
REMARK  Name = 
REMARK  5 active torsions:
REMARK  status: ('A' for Active; 'I' for Inactive)
REMARK    1  A    between atoms: C_1  and  C_2
REMARK    2  A    between atoms: C_11  and  C_12
REMARK    3  A    between atoms: N_14  and  N_15
REMARK    4  A    between atoms: C_16  and  C_17
REMARK    5  A    between atoms: C_21  and  N_22
REMARK                            x       y       z     vdW  Elec       q    Type
REMARK                         _______ _______ _______ _____ _____    ______ ____
ROOT
ATOM      1  C   UNL     1       7.493   6.480  17.627  0.00  0.00    +0.000 C 
ATOM      2  O   UNL     1       7.722   5.942  18.704  0.00  0.00    +0.000 OA
ATOM      3  N   UNL     1       7.794   7.810  17.327  0.00  0.00    +0.000 N 
ATOM      4  H   UNL     1       7.675   8.174  16.391  0.00  0.00    +0.000 HD
ENDROOT
BRANCH   1  15
ATOM      5  C   UNL     1       4.687   5.317  17.854  0.00  0.00    +0.000 C 
ATOM      6  C   UNL     1       5.546   5.181  16.632  0.00  0.00    +0.000 A 
ATOM      7  N   UNL     1       4.956   4.481  15.619  0.00  0.00    +0.000 NA
ATOM      8  C   UNL     1       5.617   4.289  14.469  0.00  0.00    +0.000 A 
ATOM      9  C   UNL     1       5.009   3.585  13.438  0.00  0.00    +0.000 A 
ATOM     10  C   UNL     1       5.658   3.360  12.222  0.00  0.00    +0.000 A 
ATOM     11  C   UNL     1       6.944   3.849  12.024  0.00  0.00    +0.000 A 
ATOM     12  C   UNL     1       7.573   4.563  13.042  0.00  0.00    +0.000 A 
ATOM     13  C   UNL     1       6.915   4.788  14.264  0.00  0.00    +0.000 A 
ATOM     14  C   UNL     1       7.512   5.509  15.308  0.00  0.00    +0.000 A 
ATOM     15  C   UNL     1       6.840   5.704  16.525  0.00  0.00    +0.000 A 
ENDBRANCH   1  15
BRANCH   3  16
ATOM     16  N   UNL     1       8.348   8.626  18.277  0.00  0.00    +0.000 NA
ATOM     17  C   UNL     1       8.736   9.789  17.861  0.00  0.00    +0.000 C 
BRANCH  17  18
ATOM     18  C   UNL     1       9.369  10.779  18.764  0.00  0.00    +0.000 A 
ATOM     19  C   UNL     1       9.214  10.680  20.151  0.00  0.00    +0.000 A 
ATOM     20  C   UNL     1       9.823  11.613  20.996  0.00  0.00    +0.000 A 
ATOM     21  C   UNL     1      10.587  12.652  20.460  0.00  0.00    +0.000 A 
ATOM     22  C   UNL     1      10.734  12.750  19.070  0.00  0.00    +0.000 A 
ATOM     23  C   UNL     1      10.131  11.815  18.213  0.00  0.00    +0.000 A 
BRANCH  22  24
ATOM     24  N   UNL     1      11.530  13.848  18.504  0.00  0.00    +0.000 N 
ATOM     25  O   UNL     1      11.353  14.984  18.957  0.00  0.00    +0.000 OA
ATOM     26  O   UNL     1      12.333  13.565  17.601  0.00  0.00    +0.000 OA
ENDBRANCH  22  24
ENDBRANCH  17  18
ENDBRANCH   3  16
TORSDOF 4
ENDMDL
MODEL 8
REMARK VINA RESULT:      -7.9      6.054      8.755
REMARK  Name = 
REMARK  5 active torsions:
REMARK  status: ('A' for Active; 'I' for Inactive)
REMARK    1  A    between atoms: C_1  and  C_2
REMARK    2  A    between atoms: C_11  and  C_12
REMARK    3  A    between atoms: N_14  and  N_15
REMARK    4  A    between atoms: C_16  and  C_17
REMARK    5  A    between atoms: C_21  and  N_22
REMARK                            x       y       z     vdW  Elec       q    Type
REMARK                         _______ _______ _______ _____ _____    ______ ____
ROOT
ATOM      1  C   UNL     1       1.162   9.681  18.331  0.00  0.00    +0.000 C 
ATOM      2  O   UNL     1       1.934  10.151  17.504  0.00  0.00    +0.000 OA
ATOM      3  N   UNL     1       1.394   8.509  19.053  0.00  0.00    +0.000 N 
ATOM      4  H   UNL     1       0.770   8.220  19.795  0.00  0.00    +0.000 HD
ENDROOT
BRANCH   1  15
ATOM      5  C   UNL     1       0.848  11.777  20.518  0.00  0.00    +0.000 C 
ATOM      6  C   UNL     1      -0.272  11.339  19.620  0.00  0.00    +0.000 A 
ATOM      7  N   UNL     1      -1.459  11.966  19.873  0.00  0.00    +0.000 NA
ATOM      8  C   UNL     1      -2.539  11.666  19.140  0.00  0.00    +0.000 A 
ATOM      9  C   UNL     1      -3.741  12.313  19.393  0.00  0.00    +0.000 A 
ATOM     10  C   UNL     1      -4.893  12.034  18.654  0.00  0.00    +0.000 A 
ATOM     11  C   UNL     1      -4.851  11.089  17.637  0.00  0.00    +0.000 A 
ATOM     12  C   UNL     1      -3.654  10.429  17.360  0.00  0.00    +0.000 A 
ATOM     13  C   UNL     1      -2.496  10.715  18.105  0.00  0.00    +0.000 A 
ATOM     14  C   UNL     1      -1.273  10.078  17.850  0.00  0.00    +0.000 A 
ATOM     15  C   UNL     1      -0.137  10.368  18.621  0.00  0.00    +0.000 A 
ENDBRANCH   1  15
BRANCH   3  16
ATOM     16  N   UNL     1       2.528   7.773  18.833  0.00  0.00    +0.000 NA
ATOM     17  C   UNL     1       2.384   6.733  18.073  0.00  0.00    +0.000 C 
BRANCH  17  18
ATOM     18  C   UNL     1       3.513   5.828  17.754  0.00  0.00    +0.000 A 
ATOM     19  C   UNL     1       3.289   4.470  17.504  0.00  0.00    +0.000 A 
ATOM     20  C   UNL     1       4.359   3.625  17.195  0.00  0.00    +0.000 A 
ATOM     21  C   UNL     1       5.659   4.132  17.137  0.00  0.00    +0.000 A 
ATOM     22  C   UNL     1       5.879   5.492  17.393  0.00  0.00    +0.000 A 
ATOM     23  C   UNL     1       4.810   6.349  17.700  0.00  0.00    +0.000 A 
BRANCH  22  24
ATOM     24  N   UNL     1       7.248   6.025  17.342  0.00  0.00    +0.000 N 
ATOM     25  O   UNL     1       7.911   6.016  18.385  0.00  0.00    +0.000 OA
ATOM     26  O   UNL     1       7.653   6.454  16.251  0.00  0.00    +0.000 OA
ENDBRANCH  22  24
ENDBRANCH  17  18
ENDBRANCH   3  16
TORSDOF 4
ENDMDL
MODEL 9
REMARK VINA RESULT:      -7.8      6.078      8.597
REMARK  Name = 
REMARK  5 active torsions:
REMARK  status: ('A' for Active; 'I' for Inactive)
REMARK    1  A    between atoms: C_1  and  C_2
REMARK    2  A    between atoms: C_11  and  C_12
REMARK    3  A    between atoms: N_14  and  N_15
REMARK    4  A    between atoms: C_16  and  C_17
REMARK    5  A    between atoms: C_21  and  N_22
REMARK                            x       y       z     vdW  Elec       q    Type
REMARK                         _______ _______ _______ _____ _____    ______ ____
ROOT
ATOM      1  C   UNL     1       1.573  10.051  18.193  0.00  0.00    +0.000 C 
ATOM      2  O   UNL     1       2.478  10.827  17.910  0.00  0.00    +0.000 OA
ATOM      3  N   UNL     1       1.706   8.662  18.241  0.00  0.00    +0.000 N 
ATOM      4  H   UNL     1       0.954   8.076  18.578  0.00  0.00    +0.000 HD
ENDROOT
BRANCH   1  15
ATOM      5  C   UNL     1       1.018  11.898  20.551  0.00  0.00    +0.000 C 
ATOM      6  C   UNL     1      -0.039  11.434  19.592  0.00  0.00    +0.000 A 
ATOM      7  N   UNL     1      -1.287  11.915  19.871  0.00  0.00    +0.000 NA
ATOM      8  C   UNL     1      -2.320  11.577  19.090  0.00  0.00    +0.000 A 
ATOM      9  C   UNL     1      -3.585  12.077  19.371  0.00  0.00    +0.000 A 
ATOM     10  C   UNL     1      -4.693  11.753  18.585  0.00  0.00    +0.000 A 
ATOM     11  C   UNL     1      -4.541  10.913  17.488  0.00  0.00    +0.000 A 
ATOM     12  C   UNL     1      -3.280  10.404  17.181  0.00  0.00    +0.000 A 
ATOM     13  C   UNL     1      -2.168  10.734  17.975  0.00  0.00    +0.000 A 
ATOM     14  C   UNL     1      -0.883  10.247  17.693  0.00  0.00    +0.000 A 
ATOM     15  C   UNL     1       0.207  10.577  18.513  0.00  0.00    +0.000 A 
ENDBRANCH   1  15
BRANCH   3  16
ATOM     16  N   UNL     1       2.899   8.070  17.919  0.00  0.00    +0.000 NA
ATOM     17  C   UNL     1       3.027   6.833  18.281  0.00  0.00    +0.000 C 
BRANCH  17  18
ATOM     18  C   UNL     1       4.264   6.060  18.020  0.00  0.00    +0.000 A 
ATOM     19  C   UNL     1       4.966   5.462  19.072  0.00  0.00    +0.000 A 
ATOM     20  C   UNL     1       6.127   4.726  18.815  0.00  0.00    +0.000 A 
ATOM     21  C   UNL     1       6.595   4.587  17.506  0.00  0.00    +0.000 A 
ATOM     22  C   UNL     1       5.891   5.193  16.457  0.00  0.00    +0.000 A 
ATOM     23  C   UNL     1       4.721   5.929  16.704  0.00  0.00    +0.000 A 
BRANCH  22  24
ATOM     24  N   UNL     1       6.386   5.056  15.080  0.00  0.00    +0.000 N 
ATOM     25  O   UNL     1       5.685   4.437  14.272  0.00  0.00    +0.000 OA
ATOM     26  O   UNL     1       7.483   5.572  14.814  0.00  0.00    +0.000 OA
ENDBRANCH  22  24
ENDBRANCH  17  18
ENDBRANCH   3  16
TORSDOF 4
ENDMDL
