MODEL 1
REMARK VINA RESULT:      -6.2      0.000      0.000
REMARK  Name = 
REMARK  4 active torsions:
REMARK  status: ('A' for Active; 'I' for Inactive)
REMARK    1  A    between atoms: C_1  and  C_2
REMARK    2  A    between atoms: C_2  and  C_3
REMARK    3  A    between atoms: C_8  and  N_9
REMARK    4  A    between atoms: C_10  and  C_11
REMARK                            x       y       z     vdW  Elec       q    Type
REMARK                         _______ _______ _______ _____ _____    ______ ____
ROOT
ATOM      1  C   UNL     1       3.590   5.088  17.663  0.00  0.00    +0.000 A 
ATOM      2  C   UNL     1       2.197   4.961  17.846  0.00  0.00    +0.000 A 
ATOM      3  C   UNL     1       1.602   3.712  17.964  0.00  0.00    +0.000 A 
ATOM      4  C   UNL     1       2.391   2.571  17.897  0.00  0.00    +0.000 A 
ATOM      5  C   UNL     1       3.767   2.678  17.674  0.00  0.00    +0.000 A 
ATOM      6  C   UNL     1       4.394   3.923  17.551  0.00  0.00    +0.000 A 
ENDROOT
BRANCH   6   7
ATOM      7  N   UNL     1       5.775   4.078  17.298  0.00  0.00    +0.000 N 
ATOM      8  C   UNL     1       6.548   4.246  16.191  0.00  0.00    +0.000 C 
ATOM      9  C   UNL     1       6.007   4.185  14.795  0.00  0.00    +0.000 C 
ATOM     10  O   UNL     1       7.752   4.460  16.370  0.00  0.00    +0.000 OA
ATOM     11  H   UNL     1       6.374   4.133  18.110  0.00  0.00    +0.000 HD
ENDBRANCH   6   7
BRANCH   1  13
ATOM     12  C   UNL     1       3.018   7.509  17.899  0.00  0.00    +0.000 C 
ATOM     13  C   UNL     1       4.143   6.501  17.699  0.00  0.00    +0.000 C 
ENDBRANCH   1  13
TORSDOF 2
ENDMDL
MODEL 2
REMARK VINA RESULT:      -5.8      1.888      3.206
REMARK  Name = 
REMARK  4 active torsions:
REMARK  status: ('A' for Active; 'I' for Inactive)
REMARK    1  A    between atoms: C_1  and  C_2
REMARK    2  A    between atoms: C_2  and  C_3
REMARK    3  A    between atoms: C_8  and  N_9
REMARK    4  A    between atoms: C_10  and  C_11
REMARK                            x       y       z     vdW  Elec       q    Type
REMARK                         _______ _______ _______ _____ _____    ______ ____
ROOT
ATOM      1  C   UNL     1       4.753   4.573  16.746  0.00  0.00    +0.000 A 
ATOM      2  C   UNL     1       3.692   3.687  17.024  0.00  0.00    +0.000 A 
ATOM      3  C   UNL     1       2.556   4.119  17.696  0.00  0.00    +0.000 A 
ATOM      4  C   UNL     1       2.467   5.442  18.104  0.00  0.00    +0.000 A 
ATOM      5  C   UNL     1       3.528   6.324  17.874  0.00  0.00    +0.000 A 
ATOM      6  C   UNL     1       4.684   5.917  17.200  0.00  0.00    +0.000 A 
ENDROOT
BRANCH   6   7
ATOM      7  N   UNL     1       5.791   6.764  16.970  0.00  0.00    +0.000 N 
ATOM      8  C   UNL     1       7.043   6.890  17.487  0.00  0.00    +0.000 C 
ATOM      9  C   UNL     1       7.531   6.094  18.659  0.00  0.00    +0.000 C 
ATOM     10  O   UNL     1       7.798   7.705  16.947  0.00  0.00    +0.000 OA
ATOM     11  H   UNL     1       5.697   7.425  16.212  0.00  0.00    +0.000 HD
ENDBRANCH   6   7
BRANCH   1  13
ATOM     12  C   UNL     1       5.602   4.332  14.409  0.00  0.00    +0.000 C 
ATOM     13  C   UNL     1       5.870   4.027  15.877  0.00  0.00    +0.000 C 
ENDBRANCH   1  13
TORSDOF 2
ENDMDL
MODEL 3
REMARK VINA RESULT:      -5.8      1.271      3.105
REMARK  Name = 
REMARK  4 active torsions:
REMARK  status: ('A' for Active; 'I' for Inactive)
REMARK    1  A    between atoms: C_1  and  C_2
REMARK    2  A    between atoms: C_2  and  C_3
REMARK    3  A    between atoms: C_8  and  N_9
REMARK    4  A    between atoms: C_10  and  C_11
REMARK                            x       y       z     vdW  Elec       q    Type
REMARK                         _______ _______ _______ _____ _____    ______ ____
ROOT
ATOM      1  C   UNL     1       3.745   4.519  17.722  0.00  0.00    +0.000 A 
ATOM      2  C   UNL     1       2.494   5.027  18.131  0.00  0.00    +0.000 A 
ATOM      3  C   UNL     1       2.255   6.395  18.166  0.00  0.00    +0.000 A 
ATOM      4  C   UNL     1       3.264   7.274  17.798  0.00  0.00    +0.000 A 
ATOM      5  C   UNL     1       4.523   6.788  17.430  0.00  0.00    +0.000 A 
ATOM      6  C   UNL     1       4.793   5.415  17.386  0.00  0.00    +0.000 A 
ENDROOT
BRANCH   6   7
ATOM      7  N   UNL     1       6.056   4.881  17.048  0.00  0.00    +0.000 N 
ATOM      8  C   UNL     1       7.293   4.879  17.612  0.00  0.00    +0.000 C 
ATOM      9  C   UNL     1       7.633   5.656  18.848  0.00  0.00    +0.000 C 
ATOM     10  O   UNL     1       8.163   4.194  17.064  0.00  0.00    +0.000 OA
ATOM     11  H   UNL     1       6.091   4.310  16.215  0.00  0.00    +0.000 HD
ENDBRANCH   6   7
BRANCH   1  13
ATOM     12  C   UNL     1       2.465   2.373  17.741  0.00  0.00    +0.000 C 
ATOM     13  C   UNL     1       3.839   3.011  17.579  0.00  0.00    +0.000 C 
ENDBRANCH   1  13
TORSDOF 2
ENDMDL
MODEL 4
REMARK VINA RESULT:      -5.7      1.291      1.554
REMARK  Name = 
REMARK  4 active torsions:
REMARK  status: ('A' for Active; 'I' for Inactive)
REMARK    1  A    between atoms: C_1  and  C_2
REMARK    2  A    between atoms: C_2  and  C_3
REMARK    3  A    between atoms: C_8  and  N_9
REMARK    4  A    between atoms: C_10  and  C_11
REMARK                            x       y       z     vdW  Elec       q    Type
REMARK                         _______ _______ _______ _____ _____    ______ ____
ROOT
ATOM      1  C   UNL     1       3.388   5.881  17.575  0.00  0.00    +0.000 A 
ATOM      2  C   UNL     1       2.182   5.341  18.068  0.00  0.00    +0.000 A 
ATOM      3  C   UNL     1       1.948   3.972  18.042  0.00  0.00    +0.000 A 
ATOM      4  C   UNL     1       2.914   3.124  17.519  0.00  0.00    +0.000 A 
ATOM      5  C   UNL     1       4.097   3.647  16.986  0.00  0.00    +0.000 A 
ATOM      6  C   UNL     1       4.360   5.021  16.999  0.00  0.00    +0.000 A 
ENDROOT
BRANCH   6   7
ATOM      7  N   UNL     1       5.527   5.595  16.448  0.00  0.00    +0.000 N 
ATOM      8  C   UNL     1       6.841   5.651  16.797  0.00  0.00    +0.000 C 
ATOM      9  C   UNL     1       7.369   5.116  18.094  0.00  0.00    +0.000 C 
ATOM     10  O   UNL     1       7.618   6.170  15.989  0.00  0.00    +0.000 OA
ATOM     11  H   UNL     1       5.422   6.046  15.550  0.00  0.00    +0.000 HD
ENDBRANCH   6   7
BRANCH   1  13
ATOM     12  C   UNL     1       2.254   8.068  17.992  0.00  0.00    +0.000 C 
ATOM     13  C   UNL     1       3.593   7.368  17.793  0.00  0.00    +0.000 C 
ENDBRANCH   1  13
TORSDOF 2
ENDMDL
MODEL 5
REMARK VINA RESULT:      -5.7      2.774      4.710
REMARK  Name = 
REMARK  4 active torsions:
REMARK  status: ('A' for Active; 'I' for Inactive)
REMARK    1  A    between atoms: C_1  and  C_2
REMARK    2  A    between atoms: C_2  and  C_3
REMARK    3  A    between atoms: C_8  and  N_9
REMARK    4  A    between atoms: C_10  and  C_11
REMARK                            x       y       z     vdW  Elec       q    Type
REMARK                         _______ _______ _______ _____ _____    ______ ____
ROOT
ATOM      1  C   UNL     1       6.009   5.417  17.158  0.00  0.00    +0.000 A 
ATOM      2  C   UNL     1       6.591   6.623  16.715  0.00  0.00    +0.000 A 
ATOM      3  C   UNL     1       7.553   7.275  17.475  0.00  0.00    +0.000 A 
ATOM      4  C   UNL     1       7.944   6.733  18.691  0.00  0.00    +0.000 A 
ATOM      5  C   UNL     1       7.347   5.561  19.165  0.00  0.00    +0.000 A 
ATOM      6  C   UNL     1       6.374   4.882  18.422  0.00  0.00    +0.000 A 
ENDROOT
BRANCH   6   7
ATOM      7  N   UNL     1       5.725   3.713  18.873  0.00  0.00    +0.000 N 
ATOM      8  C   UNL     1       4.501   3.417  19.387  0.00  0.00    +0.000 C 
ATOM      9  C   UNL     1       3.479   4.460  19.726  0.00  0.00    +0.000 C 
ATOM     10  O   UNL     1       4.240   2.224  19.575  0.00  0.00    +0.000 OA
ATOM     11  H   UNL     1       6.235   2.848  18.763  0.00  0.00    +0.000 HD
ENDBRANCH   6   7
BRANCH   1  13
ATOM     12  C   UNL     1       5.886   4.068  15.059  0.00  0.00    +0.000 C 
ATOM     13  C   UNL     1       5.083   4.721  16.178  0.00  0.00    +0.000 C 
ENDBRANCH   1  13
TORSDOF 2
ENDMDL
MODEL 6
REMARK VINA RESULT:      -5.7      1.708      1.964
REMARK  Name = 
REMARK  4 active torsions:
REMARK  status: ('A' for Active; 'I' for Inactive)
REMARK    1  A    between atoms: C_1  and  C_2
REMARK    2  A    between atoms: C_2  and  C_3
REMARK    3  A    between atoms: C_8  and  N_9
REMARK    4  A    between atoms: C_10  and  C_11
REMARK                            x       y       z     vdW  Elec       q    Type
REMARK                         _______ _______ _______ _____ _____    ______ ____
ROOT
ATOM      1  C   UNL     1       3.889   5.221  18.489  0.00  0.00    +0.000 A 
ATOM      2  C   UNL     1       2.698   5.198  19.243  0.00  0.00    +0.000 A 
ATOM      3  C   UNL     1       2.422   4.151  20.112  0.00  0.00    +0.000 A 
ATOM      4  C   UNL     1       3.332   3.110  20.237  0.00  0.00    +0.000 A 
ATOM      5  C   UNL     1       4.498   3.097  19.466  0.00  0.00    +0.000 A 
ATOM      6  C   UNL     1       4.802   4.138  18.581  0.00  0.00    +0.000 A 
ENDROOT
BRANCH   6   7
ATOM      7  N   UNL     1       5.953   4.153  17.763  0.00  0.00    +0.000 N 
ATOM      8  C   UNL     1       7.196   4.699  17.844  0.00  0.00    +0.000 C 
ATOM      9  C   UNL     1       7.616   5.625  18.945  0.00  0.00    +0.000 C 
ATOM     10  O   UNL     1       8.002   4.402  16.956  0.00  0.00    +0.000 OA
ATOM     11  H   UNL     1       5.910   3.596  16.921  0.00  0.00    +0.000 HD
ENDBRANCH   6   7
BRANCH   1  13
ATOM     12  C   UNL     1       3.040   7.503  17.924  0.00  0.00    +0.000 C 
ATOM     13  C   UNL     1       4.150   6.485  17.690  0.00  0.00    +0.000 C 
ENDBRANCH   1  13
TORSDOF 2
ENDMDL
MODEL 7
REMARK VINA RESULT:      -5.7      2.566      3.868
REMARK  Name = 
REMARK  4 active torsions:
REMARK  status: ('A' for Active; 'I' for Inactive)
REMARK    1  A    between atoms: C_1  and  C_2
REMARK    2  A    between atoms: C_2  and  C_3
REMARK    3  A    between atoms: C_8  and  N_9
REMARK    4  A    between atoms: C_10  and  C_11
REMARK                            x       y       z     vdW  Elec       q    Type
REMARK                         _______ _______ _______ _____ _____    ______ ____
ROOT
ATOM      1  C   UNL     1       2.895   5.582  19.679  0.00  0.00    +0.000 A 
ATOM      2  C   UNL     1       2.434   6.781  19.097  0.00  0.00    +0.000 A 
ATOM      3  C   UNL     1       3.056   7.317  17.976  0.00  0.00    +0.000 A 
ATOM      4  C   UNL     1       4.148   6.663  17.423  0.00  0.00    +0.000 A 
ATOM      5  C   UNL     1       4.643   5.495  18.013  0.00  0.00    +0.000 A 
ATOM      6  C   UNL     1       4.038   4.933  19.142  0.00  0.00    +0.000 A 
ENDROOT
BRANCH   6   7
ATOM      7  N   UNL     1       4.519   3.772  19.787  0.00  0.00    +0.000 N 
ATOM      8  C   UNL     1       4.377   2.431  19.608  0.00  0.00    +0.000 C 
ATOM      9  C   UNL     1       3.449   1.832  18.595  0.00  0.00    +0.000 C 
ATOM     10  O   UNL     1       5.056   1.690  20.326  0.00  0.00    +0.000 OA
ATOM     11  H   UNL     1       5.173   3.920  20.543  0.00  0.00    +0.000 HD
ENDBRANCH   6   7
BRANCH   1  13
ATOM     12  C   UNL     1       0.944   4.126  20.245  0.00  0.00    +0.000 C 
ATOM     13  C   UNL     1       2.047   5.017  20.803  0.00  0.00    +0.000 C 
ENDBRANCH   1  13
TORSDOF 2
ENDMDL
MODEL 8
REMARK VINA RESULT:      -5.7      3.292      5.078
REMARK  Name = 
REMARK  4 active torsions:
REMARK  status: ('A' for Active; 'I' for Inactive)
REMARK    1  A    between atoms: C_1  and  C_2
REMARK    2  A    between atoms: C_2  and  C_3
REMARK    3  A    between atoms: C_8  and  N_9
REMARK    4  A    between atoms: C_10  and  C_11
REMARK                            x       y       z     vdW  Elec       q    Type
REMARK                         _______ _______ _______ _____ _____    ______ ____
ROOT
ATOM      1  C   UNL     1       3.690   5.594  18.775  0.00  0.00    +0.000 A 
ATOM      2  C   UNL     1       3.804   6.463  17.670  0.00  0.00    +0.000 A 
ATOM      3  C   UNL     1       3.107   7.664  17.629  0.00  0.00    +0.000 A 
ATOM      4  C   UNL     1       2.282   8.010  18.690  0.00  0.00    +0.000 A 
ATOM      5  C   UNL     1       2.125   7.140  19.774  0.00  0.00    +0.000 A 
ATOM      6  C   UNL     1       2.814   5.924  19.843  0.00  0.00    +0.000 A 
ENDROOT
BRANCH   6   7
ATOM      7  N   UNL     1       2.665   5.004  20.903  0.00  0.00    +0.000 N 
ATOM      8  C   UNL     1       1.931   3.879  21.117  0.00  0.00    +0.000 C 
ATOM      9  C   UNL     1       0.896   3.378  20.156  0.00  0.00    +0.000 C 
ATOM     10  O   UNL     1       2.146   3.254  22.162  0.00  0.00    +0.000 OA
ATOM     11  H   UNL     1       3.265   5.143  21.703  0.00  0.00    +0.000 HD
ENDBRANCH   6   7
BRANCH   1  13
ATOM     12  C   UNL     1       4.015   3.261  17.941  0.00  0.00    +0.000 C 
ATOM     13  C   UNL     1       4.611   4.389  18.775  0.00  0.00    +0.000 C 
ENDBRANCH   1  13
TORSDOF 2
ENDMDL
MODEL 9
REMARK VINA RESULT:      -5.7      1.989      2.931
REMARK  Name = 
REMARK  4 active torsions:
REMARK  status: ('A' for Active; 'I' for Inactive)
REMARK    1  A    between atoms: C_1  and  C_2
REMARK    2  A    between atoms: C_2  and  C_3
REMARK    3  A    between atoms: C_8  and  N_9
REMARK    4  A    between atoms: C_10  and  C_11
REMARK                            x       y       z     vdW  Elec       q    Type
REMARK                         _______ _______ _______ _____ _____    ______ ____
ROOT
ATOM      1  C   UNL     1       4.431   4.305  17.574  0.00  0.00    +0.000 A 
ATOM      2  C   UNL     1       3.071   4.288  17.204  0.00  0.00    +0.000 A 
ATOM      3  C   UNL     1       2.103   4.877  18.007  0.00  0.00    +0.000 A 
ATOM      4  C   UNL     1       2.481   5.488  19.194  0.00  0.00    +0.000 A 
ATOM      5  C   UNL     1       3.820   5.477  19.597  0.00  0.00    +0.000 A 
ATOM      6  C   UNL     1       4.817   4.891  18.809  0.00  0.00    +0.000 A 
ENDROOT
BRANCH   6   7
ATOM      7  N   UNL     1       6.175   4.832  19.189  0.00  0.00    +0.000 N 
ATOM      8  C   UNL     1       7.290   5.568  18.929  0.00  0.00    +0.000 C 
ATOM      9  C   UNL     1       7.316   6.703  17.951  0.00  0.00    +0.000 C 
ATOM     10  O   UNL     1       8.320   5.268  19.543  0.00  0.00    +0.000 OA
ATOM     11  H   UNL     1       6.423   4.113  19.854  0.00  0.00    +0.000 HD
ENDBRANCH   6   7
BRANCH   1  13
ATOM     12  C   UNL     1       5.481   4.691  15.340  0.00  0.00    +0.000 C 
ATOM     13  C   UNL     1       5.410   3.765  16.549  0.00  0.00    +0.000 C 
ENDBRANCH   1  13
TORSDOF 2
ENDMDL
