MODEL 1
REMARK VINA RESULT:      -8.4      0.000      0.000
REMARK  Name = 
REMARK  8 active torsions:
REMARK  status: ('A' for Active; 'I' for Inactive)
REMARK    1  A    between atoms: C_1  and  C_2
REMARK    2  A    between atoms: N_5  and  C_6
REMARK    3  A    between atoms: C_6  and  C_7
REMARK    4  A    between atoms: C_10  and  C_11
REMARK    5  A    between atoms: C_14  and  O_15
REMARK    6  A    between atoms: O_15  and  C_16
REMARK    7  A    between atoms: C_16  and  C_17
REMARK    8  A    between atoms: C_19  and  C_20
REMARK                            x       y       z     vdW  Elec       q    Type
REMARK                         _______ _______ _______ _____ _____    ______ ____
ROOT
ATOM      1  C   UNL     1       7.065   4.700  14.782  0.00  0.00    +0.000 C 
ATOM      2  C   UNL     1       7.016   5.376  16.118  0.00  0.00    +0.000 A 
ATOM      3  N   UNL     1       6.596   4.646  17.175  0.00  0.00    +0.000 NA
ATOM      4  C   UNL     1       6.619   5.235  18.381  0.00  0.00    +0.000 A 
ATOM      5  N   UNL     1       6.137   4.575  19.513  0.00  0.00    +0.000 N 
ATOM      6  C   UNL     1       7.047   6.535  18.535  0.00  0.00    +0.000 A 
ATOM      7  C   UNL     1       7.377   7.218  17.389  0.00  0.00    +0.000 A 
ATOM      8  N   UNL     1       7.390   6.667  16.167  0.00  0.00    +0.000 NA
ATOM      9  H   UNL     1       6.820   4.550  20.266  0.00  0.00    +0.000 HD
ENDROOT
BRANCH   5  10
ATOM     10  C   UNL     1       5.471   3.287  19.321  0.00  0.00    +0.000 C 
BRANCH  10  11
ATOM     11  C   UNL     1       3.965   3.371  19.336  0.00  0.00    +0.000 A 
ATOM     12  N   UNL     1       3.262   4.330  19.909  0.00  0.00    +0.000 NA
ATOM     13  N   UNL     1       1.902   4.143  19.765  0.00  0.00    +0.000 NA
ATOM     14  C   UNL     1       1.618   3.045  19.099  0.00  0.00    +0.000 A 
ATOM     15  C   UNL     1       0.246   2.570  18.788  0.00  0.00    +0.000 C 
ATOM     16  S   UNL     1       2.999   2.152  18.596  0.00  0.00    +0.000 S 
ENDBRANCH  10  11
ENDBRANCH   5  10
BRANCH   7  17
ATOM     17  O   UNL     1       7.760   8.532  17.557  0.00  0.00    +0.000 OA
BRANCH  17  18
ATOM     18  C   UNL     1       8.741   8.739  18.575  0.00  0.00    +0.000 C 
BRANCH  18  19
ATOM     19  C   UNL     1       8.888  10.227  18.734  0.00  0.00    +0.000 C 
ATOM     20  C   UNL     1       9.280  10.773  20.081  0.00  0.00    +0.000 C 
ATOM     21  C   UNL     1      10.232  10.917  18.913  0.00  0.00    +0.000 C 
BRANCH  21  22
ATOM     22  C   UNL     1      10.449  12.286  18.309  0.00  0.00    +0.000 A 
ATOM     23  C   UNL     1      11.388  12.486  17.296  0.00  0.00    +0.000 A 
ATOM     24  C   UNL     1      11.599  13.772  16.787  0.00  0.00    +0.000 A 
ATOM     25  C   UNL     1      10.876  14.847  17.272  0.00  0.00    +0.000 A 
ATOM     26  N   UNL     1      11.102  16.085  16.783  0.00  0.00    +0.000 NA
ATOM     27  C   UNL     1      10.370  17.097  17.297  0.00  0.00    +0.000 A 
ATOM     28  C   UNL     1       9.415  16.924  18.278  0.00  0.00    +0.000 A 
ATOM     29  C   UNL     1       9.203  15.634  18.762  0.00  0.00    +0.000 A 
ATOM     30  C   UNL     1       9.934  14.561  18.277  0.00  0.00    +0.000 A 
ATOM     31  N   UNL     1       9.716  13.324  18.778  0.00  0.00    +0.000 NA
ENDBRANCH  21  22
ENDBRANCH  18  19
ENDBRANCH  17  18
ENDBRANCH   7  17
TORSDOF 6
ENDMDL
MODEL 2
REMARK VINA RESULT:      -8.3      7.002      9.674
REMARK  Name = 
REMARK  8 active torsions:
REMARK  status: ('A' for Active; 'I' for Inactive)
REMARK    1  A    between atoms: C_1  and  C_2
REMARK    2  A    between atoms: N_5  and  C_6
REMARK    3  A    between atoms: C_6  and  C_7
REMARK    4  A    between atoms: C_10  and  C_11
REMARK    5  A    between atoms: C_14  and  O_15
REMARK    6  A    between atoms: O_15  and  C_16
REMARK    7  A    between atoms: C_16  and  C_17
REMARK    8  A    between atoms: C_19  and  C_20
REMARK                            x       y       z     vdW  Elec       q    Type
REMARK                         _______ _______ _______ _____ _____    ______ ____
ROOT
ATOM      1  C   UNL     1       1.585   2.693  18.584  0.00  0.00    +0.000 C 
ATOM      2  C   UNL     1       2.273   3.957  19.000  0.00  0.00    +0.000 A 
ATOM      3  N   UNL     1       3.541   4.149  18.574  0.00  0.00    +0.000 NA
ATOM      4  C   UNL     1       4.130   5.313  18.891  0.00  0.00    +0.000 A 
ATOM      5  N   UNL     1       5.461   5.562  18.550  0.00  0.00    +0.000 N 
ATOM      6  C   UNL     1       3.471   6.272  19.628  0.00  0.00    +0.000 A 
ATOM      7  C   UNL     1       2.214   5.949  20.082  0.00  0.00    +0.000 A 
ATOM      8  N   UNL     1       1.578   4.810  19.774  0.00  0.00    +0.000 NA
ATOM      9  H   UNL     1       5.571   6.430  18.030  0.00  0.00    +0.000 HD
ENDROOT
BRANCH   5  10
ATOM     10  C   UNL     1       6.236   4.465  17.973  0.00  0.00    +0.000 C 
BRANCH  10  11
ATOM     11  C   UNL     1       6.548   4.641  16.508  0.00  0.00    +0.000 A 
ATOM     12  N   UNL     1       7.357   5.556  16.008  0.00  0.00    +0.000 NA
ATOM     13  N   UNL     1       7.448   5.483  14.633  0.00  0.00    +0.000 NA
ATOM     14  C   UNL     1       6.697   4.524  14.134  0.00  0.00    +0.000 A 
ATOM     15  C   UNL     1       6.579   4.200  12.690  0.00  0.00    +0.000 C 
ATOM     16  S   UNL     1       5.819   3.635  15.316  0.00  0.00    +0.000 S 
ENDBRANCH  10  11
ENDBRANCH   5  10
BRANCH   7  17
ATOM     17  O   UNL     1       1.587   6.902  20.856  0.00  0.00    +0.000 OA
BRANCH  17  18
ATOM     18  C   UNL     1       1.472   8.186  20.239  0.00  0.00    +0.000 C 
BRANCH  18  19
ATOM     19  C   UNL     1       0.355   8.903  20.946  0.00  0.00    +0.000 C 
ATOM     20  C   UNL     1       0.450   9.094  22.436  0.00  0.00    +0.000 C 
ATOM     21  C   UNL     1       0.500  10.302  21.526  0.00  0.00    +0.000 C 
BRANCH  21  22
ATOM     22  C   UNL     1      -0.682  11.244  21.494  0.00  0.00    +0.000 A 
ATOM     23  C   UNL     1      -0.969  12.002  20.358  0.00  0.00    +0.000 A 
ATOM     24  C   UNL     1      -2.042  12.899  20.373  0.00  0.00    +0.000 A 
ATOM     25  C   UNL     1      -2.830  13.032  21.503  0.00  0.00    +0.000 A 
ATOM     26  N   UNL     1      -3.853  13.914  21.508  0.00  0.00    +0.000 NA
ATOM     27  C   UNL     1      -4.586  14.006  22.639  0.00  0.00    +0.000 A 
ATOM     28  C   UNL     1      -4.342  13.249  23.767  0.00  0.00    +0.000 A 
ATOM     29  C   UNL     1      -3.281  12.346  23.731  0.00  0.00    +0.000 A 
ATOM     30  C   UNL     1      -2.490  12.219  22.599  0.00  0.00    +0.000 A 
ATOM     31  N   UNL     1      -1.458  11.346  22.600  0.00  0.00    +0.000 NA
ENDBRANCH  21  22
ENDBRANCH  18  19
ENDBRANCH  17  18
ENDBRANCH   7  17
TORSDOF 6
ENDMDL
MODEL 3
REMARK VINA RESULT:      -8.2      6.426      9.832
REMARK  Name = 
REMARK  8 active torsions:
REMARK  status: ('A' for Active; 'I' for Inactive)
REMARK    1  A    between atoms: C_1  and  C_2
REMARK    2  A    between atoms: N_5  and  C_6
REMARK    3  A    between atoms: C_6  and  C_7
REMARK    4  A    between atoms: C_10  and  C_11
REMARK    5  A    between atoms: C_14  and  O_15
REMARK    6  A    between atoms: O_15  and  C_16
REMARK    7  A    between atoms: C_16  and  C_17
REMARK    8  A    between atoms: C_19  and  C_20
REMARK                            x       y       z     vdW  Elec       q    Type
REMARK                         _______ _______ _______ _____ _____    ______ ____
ROOT
ATOM      1  C   UNL     1       4.143   2.753  19.096  0.00  0.00    +0.000 C 
ATOM      2  C   UNL     1       4.079   4.194  18.689  0.00  0.00    +0.000 A 
ATOM      3  N   UNL     1       4.981   4.629  17.781  0.00  0.00    +0.000 NA
ATOM      4  C   UNL     1       4.877   5.902  17.369  0.00  0.00    +0.000 A 
ATOM      5  N   UNL     1       5.810   6.450  16.486  0.00  0.00    +0.000 N 
ATOM      6  C   UNL     1       3.895   6.736  17.856  0.00  0.00    +0.000 A 
ATOM      7  C   UNL     1       3.077   6.222  18.835  0.00  0.00    +0.000 A 
ATOM      8  N   UNL     1       3.129   4.954  19.263  0.00  0.00    +0.000 NA
ATOM      9  H   UNL     1       5.372   6.863  15.667  0.00  0.00    +0.000 HD
ENDROOT
BRANCH   5  10
ATOM     10  C   UNL     1       6.983   5.646  16.145  0.00  0.00    +0.000 C 
BRANCH  10  11
ATOM     11  C   UNL     1       6.925   5.035  14.767  0.00  0.00    +0.000 A 
ATOM     12  N   UNL     1       7.678   5.393  13.744  0.00  0.00    +0.000 NA
ATOM     13  N   UNL     1       7.401   4.662  12.607  0.00  0.00    +0.000 NA
ATOM     14  C   UNL     1       6.441   3.783  12.800  0.00  0.00    +0.000 A 
ATOM     15  C   UNL     1       5.916   2.855  11.767  0.00  0.00    +0.000 C 
ATOM     16  S   UNL     1       5.800   3.785  14.397  0.00  0.00    +0.000 S 
ENDBRANCH  10  11
ENDBRANCH   5  10
BRANCH   7  17
ATOM     17  O   UNL     1       2.128   7.084  19.343  0.00  0.00    +0.000 OA
BRANCH  17  18
ATOM     18  C   UNL     1       2.124   8.382  18.745  0.00  0.00    +0.000 C 
BRANCH  18  19
ATOM     19  C   UNL     1       0.798   9.006  19.084  0.00  0.00    +0.000 C 
ATOM     20  C   UNL     1       0.781  10.239  19.947  0.00  0.00    +0.000 C 
ATOM     21  C   UNL     1       0.330  10.332  18.505  0.00  0.00    +0.000 C 
BRANCH  21  22
ATOM     22  C   UNL     1      -1.138  10.535  18.208  0.00  0.00    +0.000 A 
ATOM     23  C   UNL     1      -1.748   9.905  17.123  0.00  0.00    +0.000 A 
ATOM     24  C   UNL     1      -3.098  10.147  16.846  0.00  0.00    +0.000 A 
ATOM     25  C   UNL     1      -3.838  10.998  17.648  0.00  0.00    +0.000 A 
ATOM     26  N   UNL     1      -5.135  11.235  17.359  0.00  0.00    +0.000 NA
ATOM     27  C   UNL     1      -5.807  12.078  18.174  0.00  0.00    +0.000 A 
ATOM     28  C   UNL     1      -5.238  12.692  19.270  0.00  0.00    +0.000 A 
ATOM     29  C   UNL     1      -3.897  12.427  19.544  0.00  0.00    +0.000 A 
ATOM     30  C   UNL     1      -3.158  11.578  18.734  0.00  0.00    +0.000 A 
ATOM     31  N   UNL     1      -1.855  11.353  19.017  0.00  0.00    +0.000 NA
ENDBRANCH  21  22
ENDBRANCH  18  19
ENDBRANCH  17  18
ENDBRANCH   7  17
TORSDOF 6
ENDMDL
MODEL 4
REMARK VINA RESULT:      -8.1      7.017      9.862
REMARK  Name = 
REMARK  8 active torsions:
REMARK  status: ('A' for Active; 'I' for Inactive)
REMARK    1  A    between atoms: C_1  and  C_2
REMARK    2  A    between atoms: N_5  and  C_6
REMARK    3  A    between atoms: C_6  and  C_7
REMARK    4  A    between atoms: C_10  and  C_11
REMARK    5  A    between atoms: C_14  and  O_15
REMARK    6  A    between atoms: O_15  and  C_16
REMARK    7  A    between atoms: C_16  and  C_17
REMARK    8  A    between atoms: C_19  and  C_20
REMARK                            x       y       z     vdW  Elec       q    Type
REMARK                         _______ _______ _______ _____ _____    ______ ____
ROOT
ATOM      1  C   UNL     1       1.245   3.659  20.333  0.00  0.00    +0.000 C 
ATOM      2  C   UNL     1       1.894   4.925  19.862  0.00  0.00    +0.000 A 
ATOM      3  N   UNL     1       2.732   4.843  18.805  0.00  0.00    +0.000 NA
ATOM      4  C   UNL     1       3.258   5.989  18.343  0.00  0.00    +0.000 A 
ATOM      5  N   UNL     1       4.186   5.985  17.300  0.00  0.00    +0.000 N 
ATOM      6  C   UNL     1       2.961   7.200  18.928  0.00  0.00    +0.000 A 
ATOM      7  C   UNL     1       2.162   7.168  20.047  0.00  0.00    +0.000 A 
ATOM      8  N   UNL     1       1.598   6.054  20.531  0.00  0.00    +0.000 NA
ATOM      9  H   UNL     1       3.911   6.597  16.535  0.00  0.00    +0.000 HD
ENDROOT
BRANCH   5  10
ATOM     10  C   UNL     1       4.680   4.692  16.829  0.00  0.00    +0.000 C 
BRANCH  10  11
ATOM     11  C   UNL     1       5.688   4.794  15.712  0.00  0.00    +0.000 A 
ATOM     12  N   UNL     1       6.829   5.453  15.775  0.00  0.00    +0.000 NA
ATOM     13  N   UNL     1       7.547   5.376  14.599  0.00  0.00    +0.000 NA
ATOM     14  C   UNL     1       6.923   4.671  13.679  0.00  0.00    +0.000 A 
ATOM     15  C   UNL     1       7.437   4.412  12.311  0.00  0.00    +0.000 C 
ATOM     16  S   UNL     1       5.402   4.047  14.187  0.00  0.00    +0.000 S 
ENDBRANCH  10  11
ENDBRANCH   5  10
BRANCH   7  17
ATOM     17  O   UNL     1       1.911   8.385  20.645  0.00  0.00    +0.000 OA
BRANCH  17  18
ATOM     18  C   UNL     1       1.032   8.325  21.769  0.00  0.00    +0.000 C 
BRANCH  18  19
ATOM     19  C   UNL     1      -0.192   9.118  21.399  0.00  0.00    +0.000 C 
ATOM     20  C   UNL     1      -0.493  10.377  22.167  0.00  0.00    +0.000 C 
ATOM     21  C   UNL     1      -0.128  10.469  20.701  0.00  0.00    +0.000 C 
BRANCH  21  22
ATOM     22  C   UNL     1      -1.200  10.838  19.701  0.00  0.00    +0.000 A 
ATOM     23  C   UNL     1      -2.172  11.791  20.006  0.00  0.00    +0.000 A 
ATOM     24  C   UNL     1      -3.179  12.079  19.077  0.00  0.00    +0.000 A 
ATOM     25  C   UNL     1      -3.211  11.435  17.853  0.00  0.00    +0.000 A 
ATOM     26  N   UNL     1      -4.197  11.712  16.974  0.00  0.00    +0.000 NA
ATOM     27  C   UNL     1      -4.181  11.049  15.797  0.00  0.00    +0.000 A 
ATOM     28  C   UNL     1      -3.216  10.124  15.458  0.00  0.00    +0.000 A 
ATOM     29  C   UNL     1      -2.210   9.860  16.385  0.00  0.00    +0.000 A 
ATOM     30  C   UNL     1      -2.184  10.504  17.613  0.00  0.00    +0.000 A 
ATOM     31  N   UNL     1      -1.204  10.215  18.498  0.00  0.00    +0.000 NA
ENDBRANCH  21  22
ENDBRANCH  18  19
ENDBRANCH  17  18
ENDBRANCH   7  17
TORSDOF 6
ENDMDL
MODEL 5
REMARK VINA RESULT:      -8.1      6.812      9.833
REMARK  Name = 
REMARK  8 active torsions:
REMARK  status: ('A' for Active; 'I' for Inactive)
REMARK    1  A    between atoms: C_1  and  C_2
REMARK    2  A    between atoms: N_5  and  C_6
REMARK    3  A    between atoms: C_6  and  C_7
REMARK    4  A    between atoms: C_10  and  C_11
REMARK    5  A    between atoms: C_14  and  O_15
REMARK    6  A    between atoms: O_15  and  C_16
REMARK    7  A    between atoms: C_16  and  C_17
REMARK    8  A    between atoms: C_19  and  C_20
REMARK                            x       y       z     vdW  Elec       q    Type
REMARK                         _______ _______ _______ _____ _____    ______ ____
ROOT
ATOM      1  C   UNL     1       1.221   3.092  18.245  0.00  0.00    +0.000 C 
ATOM      2  C   UNL     1       2.073   4.245  18.680  0.00  0.00    +0.000 A 
ATOM      3  N   UNL     1       3.337   4.303  18.206  0.00  0.00    +0.000 NA
ATOM      4  C   UNL     1       4.074   5.374  18.543  0.00  0.00    +0.000 A 
ATOM      5  N   UNL     1       5.411   5.477  18.153  0.00  0.00    +0.000 N 
ATOM      6  C   UNL     1       3.566   6.370  19.347  0.00  0.00    +0.000 A 
ATOM      7  C   UNL     1       2.298   6.178  19.843  0.00  0.00    +0.000 A 
ATOM      8  N   UNL     1       1.517   5.138  19.518  0.00  0.00    +0.000 NA
ATOM      9  H   UNL     1       5.605   6.348  17.664  0.00  0.00    +0.000 HD
ENDROOT
BRANCH   5  10
ATOM     10  C   UNL     1       6.024   4.322  17.499  0.00  0.00    +0.000 C 
BRANCH  10  11
ATOM     11  C   UNL     1       6.575   4.619  16.127  0.00  0.00    +0.000 A 
ATOM     12  N   UNL     1       7.530   5.491  15.863  0.00  0.00    +0.000 NA
ATOM     13  N   UNL     1       7.827   5.554  14.516  0.00  0.00    +0.000 NA
ATOM     14  C   UNL     1       7.081   4.739  13.803  0.00  0.00    +0.000 A 
ATOM     15  C   UNL     1       7.161   4.584  12.328  0.00  0.00    +0.000 C 
ATOM     16  S   UNL     1       5.954   3.827  14.729  0.00  0.00    +0.000 S 
ENDBRANCH  10  11
ENDBRANCH   5  10
BRANCH   7  17
ATOM     17  O   UNL     1       1.821   7.164  20.681  0.00  0.00    +0.000 OA
BRANCH  17  18
ATOM     18  C   UNL     1       1.938   8.490  20.164  0.00  0.00    +0.000 C 
BRANCH  18  19
ATOM     19  C   UNL     1       0.544   9.050  20.098  0.00  0.00    +0.000 C 
ATOM     20  C   UNL     1       0.193  10.219  20.979  0.00  0.00    +0.000 C 
ATOM     21  C   UNL     1       0.216  10.399  19.476  0.00  0.00    +0.000 C 
BRANCH  21  22
ATOM     22  C   UNL     1      -1.092  10.578  18.739  0.00  0.00    +0.000 A 
ATOM     23  C   UNL     1      -1.291  10.016  17.478  0.00  0.00    +0.000 A 
ATOM     24  C   UNL     1      -2.495  10.236  16.800  0.00  0.00    +0.000 A 
ATOM     25  C   UNL     1      -3.496  10.998  17.377  0.00  0.00    +0.000 A 
ATOM     26  N   UNL     1      -4.647  11.216  16.704  0.00  0.00    +0.000 NA
ATOM     27  C   UNL     1      -5.587  11.971  17.314  0.00  0.00    +0.000 A 
ATOM     28  C   UNL     1      -5.428  12.515  18.571  0.00  0.00    +0.000 A 
ATOM     29  C   UNL     1      -4.230  12.272  19.242  0.00  0.00    +0.000 A 
ATOM     30  C   UNL     1      -3.228  11.512  18.658  0.00  0.00    +0.000 A 
ATOM     31  N   UNL     1      -2.071  11.307  19.327  0.00  0.00    +0.000 NA
ENDBRANCH  21  22
ENDBRANCH  18  19
ENDBRANCH  17  18
ENDBRANCH   7  17
TORSDOF 6
ENDMDL
MODEL 6
REMARK VINA RESULT:      -8.0      9.500     12.817
REMARK  Name = 
REMARK  8 active torsions:
REMARK  status: ('A' for Active; 'I' for Inactive)
REMARK    1  A    between atoms: C_1  and  C_2
REMARK    2  A    between atoms: N_5  and  C_6
REMARK    3  A    between atoms: C_6  and  C_7
REMARK    4  A    between atoms: C_10  and  C_11
REMARK    5  A    between atoms: C_14  and  O_15
REMARK    6  A    between atoms: O_15  and  C_16
REMARK    7  A    between atoms: C_16  and  C_17
REMARK    8  A    between atoms: C_19  and  C_20
REMARK                            x       y       z     vdW  Elec       q    Type
REMARK                         _______ _______ _______ _____ _____    ______ ____
ROOT
ATOM      1  C   UNL     1      -3.044   9.984  14.439  0.00  0.00    +0.000 C 
ATOM      2  C   UNL     1      -3.177  10.479  15.848  0.00  0.00    +0.000 A 
ATOM      3  N   UNL     1      -4.245  11.252  16.142  0.00  0.00    +0.000 NA
ATOM      4  C   UNL     1      -4.397  11.636  17.420  0.00  0.00    +0.000 A 
ATOM      5  N   UNL     1      -5.434  12.492  17.795  0.00  0.00    +0.000 N 
ATOM      6  C   UNL     1      -3.496  11.262  18.392  0.00  0.00    +0.000 A 
ATOM      7  C   UNL     1      -2.400  10.542  17.977  0.00  0.00    +0.000 A 
ATOM      8  N   UNL     1      -2.217  10.119  16.719  0.00  0.00    +0.000 NA
ATOM      9  H   UNL     1      -5.994  12.112  18.554  0.00  0.00    +0.000 HD
ENDROOT
BRANCH   5  10
ATOM     10  C   UNL     1      -6.255  13.077  16.735  0.00  0.00    +0.000 C 
BRANCH  10  11
ATOM     11  C   UNL     1      -6.745  14.470  17.042  0.00  0.00    +0.000 A 
ATOM     12  N   UNL     1      -7.071  15.377  16.140  0.00  0.00    +0.000 NA
ATOM     13  N   UNL     1      -7.482  16.564  16.712  0.00  0.00    +0.000 NA
ATOM     14  C   UNL     1      -7.443  16.523  18.026  0.00  0.00    +0.000 A 
ATOM     15  C   UNL     1      -7.820  17.644  18.923  0.00  0.00    +0.000 C 
ATOM     16  S   UNL     1      -6.898  15.022  18.665  0.00  0.00    +0.000 S 
ENDBRANCH  10  11
ENDBRANCH   5  10
BRANCH   7  17
ATOM     17  O   UNL     1      -1.486  10.215  18.956  0.00  0.00    +0.000 OA
BRANCH  17  18
ATOM     18  C   UNL     1      -0.194  10.799  18.781  0.00  0.00    +0.000 C 
BRANCH  18  19
ATOM     19  C   UNL     1       0.709   9.702  18.287  0.00  0.00    +0.000 C 
ATOM     20  C   UNL     1       2.088  10.065  17.807  0.00  0.00    +0.000 C 
ATOM     21  C   UNL     1       1.932   9.222  19.054  0.00  0.00    +0.000 C 
BRANCH  21  22
ATOM     22  C   UNL     1       2.314   7.761  19.003  0.00  0.00    +0.000 A 
ATOM     23  C   UNL     1       3.057   7.246  17.940  0.00  0.00    +0.000 A 
ATOM     24  C   UNL     1       3.357   5.880  17.897  0.00  0.00    +0.000 A 
ATOM     25  C   UNL     1       2.932   5.036  18.907  0.00  0.00    +0.000 A 
ATOM     26  N   UNL     1       3.215   3.717  18.844  0.00  0.00    +0.000 NA
ATOM     27  C   UNL     1       2.771   2.940  19.856  0.00  0.00    +0.000 A 
ATOM     28  C   UNL     1       2.059   3.425  20.933  0.00  0.00    +0.000 A 
ATOM     29  C   UNL     1       1.784   4.791  20.971  0.00  0.00    +0.000 A 
ATOM     30  C   UNL     1       2.206   5.633  19.954  0.00  0.00    +0.000 A 
ATOM     31  N   UNL     1       1.910   6.951  20.012  0.00  0.00    +0.000 NA
ENDBRANCH  21  22
ENDBRANCH  18  19
ENDBRANCH  17  18
ENDBRANCH   7  17
TORSDOF 6
ENDMDL
MODEL 7
REMARK VINA RESULT:      -7.8      6.851      9.986
REMARK  Name = 
REMARK  8 active torsions:
REMARK  status: ('A' for Active; 'I' for Inactive)
REMARK    1  A    between atoms: C_1  and  C_2
REMARK    2  A    between atoms: N_5  and  C_6
REMARK    3  A    between atoms: C_6  and  C_7
REMARK    4  A    between atoms: C_10  and  C_11
REMARK    5  A    between atoms: C_14  and  O_15
REMARK    6  A    between atoms: O_15  and  C_16
REMARK    7  A    between atoms: C_16  and  C_17
REMARK    8  A    between atoms: C_19  and  C_20
REMARK                            x       y       z     vdW  Elec       q    Type
REMARK                         _______ _______ _______ _____ _____    ______ ____
ROOT
ATOM      1  C   UNL     1       1.935   3.536  17.833  0.00  0.00    +0.000 C 
ATOM      2  C   UNL     1       2.580   4.876  18.011  0.00  0.00    +0.000 A 
ATOM      3  N   UNL     1       3.870   5.006  17.631  0.00  0.00    +0.000 NA
ATOM      4  C   UNL     1       4.423   6.225  17.728  0.00  0.00    +0.000 A 
ATOM      5  N   UNL     1       5.770   6.431  17.422  0.00  0.00    +0.000 N 
ATOM      6  C   UNL     1       3.707   7.301  18.204  0.00  0.00    +0.000 A 
ATOM      7  C   UNL     1       2.427   7.049  18.640  0.00  0.00    +0.000 A 
ATOM      8  N   UNL     1       1.826   5.855  18.544  0.00  0.00    +0.000 NA
ATOM      9  H   UNL     1       5.903   7.171  16.738  0.00  0.00    +0.000 HD
ENDROOT
BRANCH   5  10
ATOM     10  C   UNL     1       6.594   5.256  17.140  0.00  0.00    +0.000 C 
BRANCH  10  11
ATOM     11  C   UNL     1       6.765   4.970  15.669  0.00  0.00    +0.000 A 
ATOM     12  N   UNL     1       7.618   5.583  14.869  0.00  0.00    +0.000 NA
ATOM     13  N   UNL     1       7.550   5.116  13.572  0.00  0.00    +0.000 NA
ATOM     14  C   UNL     1       6.642   4.175  13.427  0.00  0.00    +0.000 A 
ATOM     15  C   UNL     1       6.332   3.482  12.152  0.00  0.00    +0.000 C 
ATOM     16  S   UNL     1       5.797   3.788  14.874  0.00  0.00    +0.000 S 
ENDBRANCH  10  11
ENDBRANCH   5  10
BRANCH   7  17
ATOM     17  O   UNL     1       1.740   8.128  19.155  0.00  0.00    +0.000 OA
BRANCH  17  18
ATOM     18  C   UNL     1       1.810   9.311  18.357  0.00  0.00    +0.000 C 
BRANCH  18  19
ATOM     19  C   UNL     1       0.855  10.299  18.970  0.00  0.00    +0.000 C 
ATOM     20  C   UNL     1       1.222  11.758  18.959  0.00  0.00    +0.000 C 
ATOM     21  C   UNL     1       0.035  11.282  18.149  0.00  0.00    +0.000 C 
BRANCH  21  22
ATOM     22  C   UNL     1      -1.359  11.649  18.607  0.00  0.00    +0.000 A 
ATOM     23  C   UNL     1      -1.563  12.389  19.772  0.00  0.00    +0.000 A 
ATOM     24  C   UNL     1      -2.866  12.675  20.196  0.00  0.00    +0.000 A 
ATOM     25  C   UNL     1      -3.954  12.239  19.461  0.00  0.00    +0.000 A 
ATOM     26  N   UNL     1      -5.206  12.508  19.891  0.00  0.00    +0.000 NA
ATOM     27  C   UNL     1      -6.230  12.055  19.136  0.00  0.00    +0.000 A 
ATOM     28  C   UNL     1      -6.057  11.346  17.965  0.00  0.00    +0.000 A 
ATOM     29  C   UNL     1      -4.754  11.084  17.546  0.00  0.00    +0.000 A 
ATOM     30  C   UNL     1      -3.666  11.518  18.288  0.00  0.00    +0.000 A 
ATOM     31  N   UNL     1      -2.414  11.235  17.865  0.00  0.00    +0.000 NA
ENDBRANCH  21  22
ENDBRANCH  18  19
ENDBRANCH  17  18
ENDBRANCH   7  17
TORSDOF 6
ENDMDL
MODEL 8
REMARK VINA RESULT:      -7.8      7.091      9.598
REMARK  Name = 
REMARK  8 active torsions:
REMARK  status: ('A' for Active; 'I' for Inactive)
REMARK    1  A    between atoms: C_1  and  C_2
REMARK    2  A    between atoms: N_5  and  C_6
REMARK    3  A    between atoms: C_6  and  C_7
REMARK    4  A    between atoms: C_10  and  C_11
REMARK    5  A    between atoms: C_14  and  O_15
REMARK    6  A    between atoms: O_15  and  C_16
REMARK    7  A    between atoms: C_16  and  C_17
REMARK    8  A    between atoms: C_19  and  C_20
REMARK                            x       y       z     vdW  Elec       q    Type
REMARK                         _______ _______ _______ _____ _____    ______ ____
ROOT
ATOM      1  C   UNL     1       4.292   2.076  20.527  0.00  0.00    +0.000 C 
ATOM      2  C   UNL     1       3.978   3.327  19.765  0.00  0.00    +0.000 A 
ATOM      3  N   UNL     1       4.443   3.425  18.500  0.00  0.00    +0.000 NA
ATOM      4  C   UNL     1       4.102   4.517  17.798  0.00  0.00    +0.000 A 
ATOM      5  N   UNL     1       4.598   4.728  16.511  0.00  0.00    +0.000 N 
ATOM      6  C   UNL     1       3.313   5.503  18.347  0.00  0.00    +0.000 A 
ATOM      7  C   UNL     1       2.957   5.349  19.666  0.00  0.00    +0.000 A 
ATOM      8  N   UNL     1       3.256   4.268  20.400  0.00  0.00    +0.000 NA
ATOM      9  H   UNL     1       3.858   4.894  15.833  0.00  0.00    +0.000 HD
ENDROOT
BRANCH   5  10
ATOM     10  C   UNL     1       5.616   3.805  16.010  0.00  0.00    +0.000 C 
BRANCH  10  11
ATOM     11  C   UNL     1       6.419   4.350  14.855  0.00  0.00    +0.000 A 
ATOM     12  N   UNL     1       7.422   5.201  14.961  0.00  0.00    +0.000 NA
ATOM     13  N   UNL     1       7.967   5.527  13.736  0.00  0.00    +0.000 NA
ATOM     14  C   UNL     1       7.353   4.923  12.741  0.00  0.00    +0.000 A 
ATOM     15  C   UNL     1       7.705   5.075  11.307  0.00  0.00    +0.000 C 
ATOM     16  S   UNL     1       6.056   3.905  13.232  0.00  0.00    +0.000 S 
ENDBRANCH  10  11
ENDBRANCH   5  10
BRANCH   7  17
ATOM     17  O   UNL     1       2.204   6.368  20.212  0.00  0.00    +0.000 OA
BRANCH  17  18
ATOM     18  C   UNL     1       2.321   7.620  19.536  0.00  0.00    +0.000 C 
BRANCH  18  19
ATOM     19  C   UNL     1       1.030   8.356  19.769  0.00  0.00    +0.000 C 
ATOM     20  C   UNL     1       0.913   9.239  20.983  0.00  0.00    +0.000 C 
ATOM     21  C   UNL     1       0.888   9.861  19.604  0.00  0.00    +0.000 C 
BRANCH  21  22
ATOM     22  C   UNL     1      -0.410  10.431  19.080  0.00  0.00    +0.000 A 
ATOM     23  C   UNL     1      -1.152  11.344  19.831  0.00  0.00    +0.000 A 
ATOM     24  C   UNL     1      -2.373  11.820  19.340  0.00  0.00    +0.000 A 
ATOM     25  C   UNL     1      -2.846  11.400  18.109  0.00  0.00    +0.000 A 
ATOM     26  N   UNL     1      -4.034  11.855  17.656  0.00  0.00    +0.000 NA
ATOM     27  C   UNL     1      -4.448  11.409  16.450  0.00  0.00    +0.000 A 
ATOM     28  C   UNL     1      -3.723  10.529  15.674  0.00  0.00    +0.000 A 
ATOM     29  C   UNL     1      -2.500  10.078  16.168  0.00  0.00    +0.000 A 
ATOM     30  C   UNL     1      -2.032  10.496  17.404  0.00  0.00    +0.000 A 
ATOM     31  N   UNL     1      -0.849  10.028  17.863  0.00  0.00    +0.000 NA
ENDBRANCH  21  22
ENDBRANCH  18  19
ENDBRANCH  17  18
ENDBRANCH   7  17
TORSDOF 6
ENDMDL
MODEL 9
REMARK VINA RESULT:      -7.7      6.704     10.539
REMARK  Name = 
REMARK  8 active torsions:
REMARK  status: ('A' for Active; 'I' for Inactive)
REMARK    1  A    between atoms: C_1  and  C_2
REMARK    2  A    between atoms: N_5  and  C_6
REMARK    3  A    between atoms: C_6  and  C_7
REMARK    4  A    between atoms: C_10  and  C_11
REMARK    5  A    between atoms: C_14  and  O_15
REMARK    6  A    between atoms: O_15  and  C_16
REMARK    7  A    between atoms: C_16  and  C_17
REMARK    8  A    between atoms: C_19  and  C_20
REMARK                            x       y       z     vdW  Elec       q    Type
REMARK                         _______ _______ _______ _____ _____    ______ ____
ROOT
ATOM      1  C   UNL     1      -0.943  11.911  22.944  0.00  0.00    +0.000 C 
ATOM      2  C   UNL     1      -0.382  11.132  21.793  0.00  0.00    +0.000 A 
ATOM      3  N   UNL     1      -0.634  11.589  20.546  0.00  0.00    +0.000 NA
ATOM      4  C   UNL     1      -0.072  10.927  19.521  0.00  0.00    +0.000 A 
ATOM      5  N   UNL     1      -0.338  11.291  18.200  0.00  0.00    +0.000 N 
ATOM      6  C   UNL     1       0.723   9.823  19.731  0.00  0.00    +0.000 A 
ATOM      7  C   UNL     1       0.852   9.391  21.030  0.00  0.00    +0.000 A 
ATOM      8  N   UNL     1       0.329  10.029  22.086  0.00  0.00    +0.000 NA
ATOM      9  H   UNL     1       0.512  11.461  17.667  0.00  0.00    +0.000 HD
ENDROOT
BRANCH   5  10
ATOM     10  C   UNL     1      -1.358  12.311  17.962  0.00  0.00    +0.000 C 
BRANCH  10  11
ATOM     11  C   UNL     1      -2.743  11.751  17.751  0.00  0.00    +0.000 A 
ATOM     12  N   UNL     1      -3.144  11.103  16.674  0.00  0.00    +0.000 NA
ATOM     13  N   UNL     1      -4.465  10.711  16.758  0.00  0.00    +0.000 NA
ATOM     14  C   UNL     1      -5.025  11.085  17.888  0.00  0.00    +0.000 A 
ATOM     15  C   UNL     1      -6.435  10.816  18.269  0.00  0.00    +0.000 C 
ATOM     16  S   UNL     1      -3.973  11.948  18.940  0.00  0.00    +0.000 S 
ENDBRANCH  10  11
ENDBRANCH   5  10
BRANCH   7  17
ATOM     17  O   UNL     1       1.616   8.258  21.217  0.00  0.00    +0.000 OA
BRANCH  17  18
ATOM     18  C   UNL     1       0.892   7.030  21.115  0.00  0.00    +0.000 C 
BRANCH  18  19
ATOM     19  C   UNL     1       1.856   6.008  20.577  0.00  0.00    +0.000 C 
ATOM     20  C   UNL     1       1.462   4.556  20.616  0.00  0.00    +0.000 C 
ATOM     21  C   UNL     1       1.624   5.248  19.280  0.00  0.00    +0.000 C 
BRANCH  21  22
ATOM     22  C   UNL     1       2.807   4.890  18.408  0.00  0.00    +0.000 A 
ATOM     23  C   UNL     1       2.907   3.634  17.809  0.00  0.00    +0.000 A 
ATOM     24  C   UNL     1       4.034   3.316  17.044  0.00  0.00    +0.000 A 
ATOM     25  C   UNL     1       5.047   4.242  16.868  0.00  0.00    +0.000 A 
ATOM     26  N   UNL     1       6.137   3.915  16.141  0.00  0.00    +0.000 NA
ATOM     27  C   UNL     1       7.096   4.856  16.005  0.00  0.00    +0.000 A 
ATOM     28  C   UNL     1       7.011   6.115  16.563  0.00  0.00    +0.000 A 
ATOM     29  C   UNL     1       5.873   6.424  17.306  0.00  0.00    +0.000 A 
ATOM     30  C   UNL     1       4.863   5.492  17.486  0.00  0.00    +0.000 A 
ATOM     31  N   UNL     1       3.779   5.816  18.226  0.00  0.00    +0.000 NA
ENDBRANCH  21  22
ENDBRANCH  18  19
ENDBRANCH  17  18
ENDBRANCH   7  17
TORSDOF 6
ENDMDL
