MODEL 1
REMARK VINA RESULT:      -8.0      0.000      0.000
REMARK  Name = 
REMARK  9 active torsions:
REMARK  status: ('A' for Active; 'I' for Inactive)
REMARK    1  A    between atoms: C_1  and  C_2
REMARK    2  A    between atoms: C_2  and  C_3
REMARK    3  A    between atoms: C_3  and  C_4
REMARK    4  A    between atoms: C_4  and  C_5
REMARK    5  A    between atoms: C_12  and  C_13
REMARK    6  A    between atoms: C_15  and  O_16
REMARK    7  A    between atoms: O_16  and  C_17
REMARK    8  A    between atoms: C_17  and  C_18
REMARK    9  A    between atoms: C_23  and  C_24
REMARK                            x       y       z     vdW  Elec       q    Type
REMARK                         _______ _______ _______ _____ _____    ______ ____
ROOT
ATOM      1  C   UNL     1       5.312   5.946  16.830  0.00  0.00    +0.000 A 
ATOM      2  C   UNL     1       6.026   5.396  15.832  0.00  0.00    +0.000 A 
ATOM      3  C   UNL     1       5.717   4.106  15.215  0.00  0.00    +0.000 A 
ATOM      4  O   UNL     1       6.373   3.681  14.267  0.00  0.00    +0.000 OA
ATOM      5  O   UNL     1       4.695   3.382  15.797  0.00  0.00    +0.000 OA
ATOM      6  C   UNL     1       3.890   3.939  16.815  0.00  0.00    +0.000 A 
ATOM      7  C   UNL     1       2.866   3.111  17.274  0.00  0.00    +0.000 A 
ATOM      8  C   UNL     1       1.997   3.571  18.259  0.00  0.00    +0.000 A 
ATOM      9  C   UNL     1       0.912   2.699  18.813  0.00  0.00    +0.000 C 
ATOM     10  C   UNL     1       2.145   4.881  18.728  0.00  0.00    +0.000 A 
ATOM     11  C   UNL     1       3.150   5.727  18.234  0.00  0.00    +0.000 A 
ATOM     12  C   UNL     1       4.098   5.237  17.303  0.00  0.00    +0.000 A 
ENDROOT
BRANCH   1  13
ATOM     13  C   UNL     1       5.818   7.220  17.474  0.00  0.00    +0.000 C 
BRANCH  13  14
ATOM     14  C   UNL     1       7.324   7.485  17.311  0.00  0.00    +0.000 C 
BRANCH  14  16
ATOM     15  C   UNL     1       7.851   5.847  19.134  0.00  0.00    +0.000 C 
ATOM     16  C   UNL     1       8.130   7.237  18.585  0.00  0.00    +0.000 C 
ENDBRANCH  14  16
ENDBRANCH  13  14
ENDBRANCH   1  13
BRANCH  11  17
ATOM     17  O   UNL     1       3.245   7.046  18.593  0.00  0.00    +0.000 OA
BRANCH  17  18
ATOM     18  C   UNL     1       2.125   7.681  19.189  0.00  0.00    +0.000 C 
BRANCH  18  19
ATOM     19  C   UNL     1       1.786   8.980  18.458  0.00  0.00    +0.000 C 
ATOM     20  O   UNL     1       2.169   9.140  17.295  0.00  0.00    +0.000 OA
ATOM     21  N   UNL     1       1.118   9.982  19.158  0.00  0.00    +0.000 N 
ATOM     22  C   UNL     1       0.716  11.182  18.432  0.00  0.00    +0.000 C 
ATOM     23  C   UNL     1       0.974  12.429  19.271  0.00  0.00    +0.000 C 
ATOM     24  C   UNL     1       0.258  12.344  20.624  0.00  0.00    +0.000 C 
ATOM     25  C   UNL     1       0.666  11.053  21.346  0.00  0.00    +0.000 C 
ATOM     26  C   UNL     1       0.501   9.807  20.475  0.00  0.00    +0.000 C 
BRANCH  24  27
ATOM     27  C   UNL     1      -1.254  12.462  20.464  0.00  0.00    +0.000 C 
ATOM     28  N   UNL     1      -1.670  13.190  19.389  0.00  0.00    +0.000 N 
ATOM     29  O   UNL     1      -2.071  11.963  21.227  0.00  0.00    +0.000 OA
ATOM     30  H   UNL     1      -1.042  13.671  18.759  0.00  0.00    +0.000 HD
ATOM     31  H   UNL     1      -2.667  13.305  19.256  0.00  0.00    +0.000 HD
ENDBRANCH  24  27
ENDBRANCH  18  19
ENDBRANCH  17  18
ENDBRANCH  11  17
TORSDOF 7
ENDMDL
MODEL 2
REMARK VINA RESULT:      -7.9      1.083      1.539
REMARK  Name = 
REMARK  9 active torsions:
REMARK  status: ('A' for Active; 'I' for Inactive)
REMARK    1  A    between atoms: C_1  and  C_2
REMARK    2  A    between atoms: C_2  and  C_3
REMARK    3  A    between atoms: C_3  and  C_4
REMARK    4  A    between atoms: C_4  and  C_5
REMARK    5  A    between atoms: C_12  and  C_13
REMARK    6  A    between atoms: C_15  and  O_16
REMARK    7  A    between atoms: O_16  and  C_17
REMARK    8  A    between atoms: C_17  and  C_18
REMARK    9  A    between atoms: C_23  and  C_24
REMARK                            x       y       z     vdW  Elec       q    Type
REMARK                         _______ _______ _______ _____ _____    ______ ____
ROOT
ATOM      1  C   UNL     1       5.362   5.875  16.768  0.00  0.00    +0.000 A 
ATOM      2  C   UNL     1       6.064   5.389  15.729  0.00  0.00    +0.000 A 
ATOM      3  C   UNL     1       5.814   4.088  15.107  0.00  0.00    +0.000 A 
ATOM      4  O   UNL     1       6.450   3.722  14.122  0.00  0.00    +0.000 OA
ATOM      5  O   UNL     1       4.872   3.289  15.725  0.00  0.00    +0.000 OA
ATOM      6  C   UNL     1       4.081   3.776  16.789  0.00  0.00    +0.000 A 
ATOM      7  C   UNL     1       3.139   2.874  17.282  0.00  0.00    +0.000 A 
ATOM      8  C   UNL     1       2.289   3.261  18.314  0.00  0.00    +0.000 A 
ATOM      9  C   UNL     1       1.293   2.309  18.905  0.00  0.00    +0.000 C 
ATOM     10  C   UNL     1       2.370   4.572  18.797  0.00  0.00    +0.000 A 
ATOM     11  C   UNL     1       3.291   5.491  18.269  0.00  0.00    +0.000 A 
ATOM     12  C   UNL     1       4.224   5.079  17.287  0.00  0.00    +0.000 A 
ENDROOT
BRANCH   1  13
ATOM     13  C   UNL     1       5.811   7.173  17.409  0.00  0.00    +0.000 C 
BRANCH  13  14
ATOM     14  C   UNL     1       7.317   7.469  17.307  0.00  0.00    +0.000 C 
BRANCH  14  16
ATOM     15  C   UNL     1       7.541   5.805  19.168  0.00  0.00    +0.000 C 
ATOM     16  C   UNL     1       8.102   7.080  18.557  0.00  0.00    +0.000 C 
ENDBRANCH  14  16
ENDBRANCH  13  14
ENDBRANCH   1  13
BRANCH  11  17
ATOM     17  O   UNL     1       3.313   6.808  18.644  0.00  0.00    +0.000 OA
BRANCH  17  18
ATOM     18  C   UNL     1       2.220   7.644  18.294  0.00  0.00    +0.000 C 
BRANCH  18  19
ATOM     19  C   UNL     1       1.717   8.417  19.514  0.00  0.00    +0.000 C 
ATOM     20  O   UNL     1       2.069   8.064  20.644  0.00  0.00    +0.000 OA
ATOM     21  N   UNL     1       0.810   9.455  19.316  0.00  0.00    +0.000 N 
ATOM     22  C   UNL     1       0.405  10.249  20.470  0.00  0.00    +0.000 C 
ATOM     23  C   UNL     1      -1.092  10.536  20.426  0.00  0.00    +0.000 C 
ATOM     24  C   UNL     1      -1.483  11.235  19.118  0.00  0.00    +0.000 C 
ATOM     25  C   UNL     1      -1.007  10.400  17.922  0.00  0.00    +0.000 C 
ATOM     26  C   UNL     1       0.474  10.027  18.010  0.00  0.00    +0.000 C 
BRANCH  24  27
ATOM     27  C   UNL     1      -0.956  12.665  19.071  0.00  0.00    +0.000 C 
ATOM     28  N   UNL     1      -0.846  13.204  17.823  0.00  0.00    +0.000 N 
ATOM     29  O   UNL     1      -0.634  13.316  20.057  0.00  0.00    +0.000 OA
ATOM     30  H   UNL     1      -1.043  12.696  16.972  0.00  0.00    +0.000 HD
ATOM     31  H   UNL     1      -0.486  14.147  17.749  0.00  0.00    +0.000 HD
ENDBRANCH  24  27
ENDBRANCH  18  19
ENDBRANCH  17  18
ENDBRANCH  11  17
TORSDOF 7
ENDMDL
MODEL 3
REMARK VINA RESULT:      -7.8      1.101      1.302
REMARK  Name = 
REMARK  9 active torsions:
REMARK  status: ('A' for Active; 'I' for Inactive)
REMARK    1  A    between atoms: C_1  and  C_2
REMARK    2  A    between atoms: C_2  and  C_3
REMARK    3  A    between atoms: C_3  and  C_4
REMARK    4  A    between atoms: C_4  and  C_5
REMARK    5  A    between atoms: C_12  and  C_13
REMARK    6  A    between atoms: C_15  and  O_16
REMARK    7  A    between atoms: O_16  and  C_17
REMARK    8  A    between atoms: C_17  and  C_18
REMARK    9  A    between atoms: C_23  and  C_24
REMARK                            x       y       z     vdW  Elec       q    Type
REMARK                         _______ _______ _______ _____ _____    ______ ____
ROOT
ATOM      1  C   UNL     1       5.511   5.239  17.709  0.00  0.00    +0.000 A 
ATOM      2  C   UNL     1       6.212   4.869  16.623  0.00  0.00    +0.000 A 
ATOM      3  C   UNL     1       5.792   3.819  15.693  0.00  0.00    +0.000 A 
ATOM      4  O   UNL     1       6.446   3.564  14.685  0.00  0.00    +0.000 OA
ATOM      5  O   UNL     1       4.663   3.107  16.050  0.00  0.00    +0.000 OA
ATOM      6  C   UNL     1       3.873   3.491  17.155  0.00  0.00    +0.000 A 
ATOM      7  C   UNL     1       2.738   2.709  17.366  0.00  0.00    +0.000 A 
ATOM      8  C   UNL     1       1.875   3.016  18.413  0.00  0.00    +0.000 A 
ATOM      9  C   UNL     1       0.668   2.175  18.704  0.00  0.00    +0.000 C 
ATOM     10  C   UNL     1       2.145   4.141  19.201  0.00  0.00    +0.000 A 
ATOM     11  C   UNL     1       3.266   4.951  18.960  0.00  0.00    +0.000 A 
ATOM     12  C   UNL     1       4.201   4.592  17.959  0.00  0.00    +0.000 A 
ENDROOT
BRANCH   1  13
ATOM     13  C   UNL     1       6.123   6.242  18.665  0.00  0.00    +0.000 C 
BRANCH  13  14
ATOM     14  C   UNL     1       7.549   6.701  18.313  0.00  0.00    +0.000 C 
BRANCH  14  16
ATOM     15  C   UNL     1       8.407   9.054  18.210  0.00  0.00    +0.000 C 
ATOM     16  C   UNL     1       7.592   7.988  17.493  0.00  0.00    +0.000 C 
ENDBRANCH  14  16
ENDBRANCH  13  14
ENDBRANCH   1  13
BRANCH  11  17
ATOM     17  O   UNL     1       3.490   6.118  19.641  0.00  0.00    +0.000 OA
BRANCH  17  18
ATOM     18  C   UNL     1       2.413   7.020  19.838  0.00  0.00    +0.000 C 
BRANCH  18  19
ATOM     19  C   UNL     1       2.410   8.104  18.759  0.00  0.00    +0.000 C 
ATOM     20  O   UNL     1       3.142   7.980  17.773  0.00  0.00    +0.000 OA
ATOM     21  N   UNL     1       1.633   9.242  18.961  0.00  0.00    +0.000 N 
ATOM     22  C   UNL     1       1.561  10.229  17.890  0.00  0.00    +0.000 C 
ATOM     23  C   UNL     1       1.637  11.643  18.456  0.00  0.00    +0.000 C 
ATOM     24  C   UNL     1       0.536  11.883  19.496  0.00  0.00    +0.000 C 
ATOM     25  C   UNL     1       0.608  10.806  20.586  0.00  0.00    +0.000 C 
ATOM     26  C   UNL     1       0.629   9.386  20.019  0.00  0.00    +0.000 C 
BRANCH  24  27
ATOM     27  C   UNL     1      -0.841  11.952  18.843  0.00  0.00    +0.000 C 
ATOM     28  N   UNL     1      -0.947  12.824  17.799  0.00  0.00    +0.000 N 
ATOM     29  O   UNL     1      -1.811  11.298  19.203  0.00  0.00    +0.000 OA
ATOM     30  H   UNL     1      -0.198  13.430  17.495  0.00  0.00    +0.000 HD
ATOM     31  H   UNL     1      -1.849  12.910  17.348  0.00  0.00    +0.000 HD
ENDBRANCH  24  27
ENDBRANCH  18  19
ENDBRANCH  17  18
ENDBRANCH  11  17
TORSDOF 7
ENDMDL
MODEL 4
REMARK VINA RESULT:      -7.8      1.174      1.601
REMARK  Name = 
REMARK  9 active torsions:
REMARK  status: ('A' for Active; 'I' for Inactive)
REMARK    1  A    between atoms: C_1  and  C_2
REMARK    2  A    between atoms: C_2  and  C_3
REMARK    3  A    between atoms: C_3  and  C_4
REMARK    4  A    between atoms: C_4  and  C_5
REMARK    5  A    between atoms: C_12  and  C_13
REMARK    6  A    between atoms: C_15  and  O_16
REMARK    7  A    between atoms: O_16  and  C_17
REMARK    8  A    between atoms: C_17  and  C_18
REMARK    9  A    between atoms: C_23  and  C_24
REMARK                            x       y       z     vdW  Elec       q    Type
REMARK                         _______ _______ _______ _____ _____    ______ ____
ROOT
ATOM      1  C   UNL     1       5.350   5.969  16.778  0.00  0.00    +0.000 A 
ATOM      2  C   UNL     1       6.067   5.427  15.778  0.00  0.00    +0.000 A 
ATOM      3  C   UNL     1       5.755   4.143  15.147  0.00  0.00    +0.000 A 
ATOM      4  O   UNL     1       6.412   3.725  14.198  0.00  0.00    +0.000 OA
ATOM      5  O   UNL     1       4.726   3.419  15.717  0.00  0.00    +0.000 OA
ATOM      6  C   UNL     1       3.919   3.970  16.737  0.00  0.00    +0.000 A 
ATOM      7  C   UNL     1       2.889   3.142  17.183  0.00  0.00    +0.000 A 
ATOM      8  C   UNL     1       2.018   3.596  18.167  0.00  0.00    +0.000 A 
ATOM      9  C   UNL     1       0.925   2.724  18.708  0.00  0.00    +0.000 C 
ATOM     10  C   UNL     1       2.169   4.901  18.651  0.00  0.00    +0.000 A 
ATOM     11  C   UNL     1       3.181   5.747  18.169  0.00  0.00    +0.000 A 
ATOM     12  C   UNL     1       4.131   5.262  17.239  0.00  0.00    +0.000 A 
ENDROOT
BRANCH   1  13
ATOM     13  C   UNL     1       5.858   7.235  17.437  0.00  0.00    +0.000 C 
BRANCH  13  14
ATOM     14  C   UNL     1       7.369   7.488  17.295  0.00  0.00    +0.000 C 
BRANCH  14  16
ATOM     15  C   UNL     1       7.847   5.855  19.136  0.00  0.00    +0.000 C 
ATOM     16  C   UNL     1       8.154   7.237  18.580  0.00  0.00    +0.000 C 
ENDBRANCH  14  16
ENDBRANCH  13  14
ENDBRANCH   1  13
BRANCH  11  17
ATOM     17  O   UNL     1       3.279   7.062  18.542  0.00  0.00    +0.000 OA
BRANCH  17  18
ATOM     18  C   UNL     1       2.152   7.909  18.388  0.00  0.00    +0.000 C 
BRANCH  18  19
ATOM     19  C   UNL     1       1.658   8.406  19.748  0.00  0.00    +0.000 C 
ATOM     20  O   UNL     1       1.712   7.653  20.725  0.00  0.00    +0.000 OA
ATOM     21  N   UNL     1       1.089   9.675  19.825  0.00  0.00    +0.000 N 
ATOM     22  C   UNL     1       0.705  10.181  21.138  0.00  0.00    +0.000 C 
ATOM     23  C   UNL     1      -0.642  10.892  21.067  0.00  0.00    +0.000 C 
ATOM     24  C   UNL     1      -0.617  12.023  20.032  0.00  0.00    +0.000 C 
ATOM     25  C   UNL     1      -0.168  11.471  18.673  0.00  0.00    +0.000 C 
ATOM     26  C   UNL     1       1.134  10.673  18.755  0.00  0.00    +0.000 C 
BRANCH  24  27
ATOM     27  C   UNL     1       0.253  13.186  20.498  0.00  0.00    +0.000 C 
ATOM     28  N   UNL     1       0.091  13.548  21.803  0.00  0.00    +0.000 N 
ATOM     29  O   UNL     1       1.046  13.786  19.784  0.00  0.00    +0.000 OA
ATOM     30  H   UNL     1      -0.588  13.127  22.422  0.00  0.00    +0.000 HD
ATOM     31  H   UNL     1       0.639  14.326  22.147  0.00  0.00    +0.000 HD
ENDBRANCH  24  27
ENDBRANCH  18  19
ENDBRANCH  17  18
ENDBRANCH  11  17
TORSDOF 7
ENDMDL
MODEL 5
REMARK VINA RESULT:      -7.5      1.902      4.327
REMARK  Name = 
REMARK  9 active torsions:
REMARK  status: ('A' for Active; 'I' for Inactive)
REMARK    1  A    between atoms: C_1  and  C_2
REMARK    2  A    between atoms: C_2  and  C_3
REMARK    3  A    between atoms: C_3  and  C_4
REMARK    4  A    between atoms: C_4  and  C_5
REMARK    5  A    between atoms: C_12  and  C_13
REMARK    6  A    between atoms: C_15  and  O_16
REMARK    7  A    between atoms: O_16  and  C_17
REMARK    8  A    between atoms: C_17  and  C_18
REMARK    9  A    between atoms: C_23  and  C_24
REMARK                            x       y       z     vdW  Elec       q    Type
REMARK                         _______ _______ _______ _____ _____    ______ ____
ROOT
ATOM      1  C   UNL     1       3.297   4.010  18.545  0.00  0.00    +0.000 A 
ATOM      2  C   UNL     1       3.646   2.927  19.262  0.00  0.00    +0.000 A 
ATOM      3  C   UNL     1       4.997   2.678  19.768  0.00  0.00    +0.000 A 
ATOM      4  O   UNL     1       5.243   1.699  20.467  0.00  0.00    +0.000 OA
ATOM      5  O   UNL     1       5.971   3.570  19.365  0.00  0.00    +0.000 OA
ATOM      6  C   UNL     1       5.642   4.743  18.651  0.00  0.00    +0.000 A 
ATOM      7  C   UNL     1       6.722   5.573  18.354  0.00  0.00    +0.000 A 
ATOM      8  C   UNL     1       6.506   6.769  17.677  0.00  0.00    +0.000 A 
ATOM      9  C   UNL     1       7.643   7.669  17.297  0.00  0.00    +0.000 C 
ATOM     10  C   UNL     1       5.194   7.132  17.354  0.00  0.00    +0.000 A 
ATOM     11  C   UNL     1       4.104   6.315  17.692  0.00  0.00    +0.000 A 
ATOM     12  C   UNL     1       4.321   5.052  18.295  0.00  0.00    +0.000 A 
ENDROOT
BRANCH   1  13
ATOM     13  C   UNL     1       1.900   4.081  17.963  0.00  0.00    +0.000 C 
BRANCH  13  14
ATOM     14  C   UNL     1       0.795   3.451  18.828  0.00  0.00    +0.000 C 
BRANCH  14  16
ATOM     15  C   UNL     1       1.104   2.872  21.247  0.00  0.00    +0.000 C 
ATOM     16  C   UNL     1       0.766   3.979  20.261  0.00  0.00    +0.000 C 
ENDBRANCH  14  16
ENDBRANCH  13  14
ENDBRANCH   1  13
BRANCH  11  17
ATOM     17  O   UNL     1       2.805   6.700  17.490  0.00  0.00    +0.000 OA
BRANCH  17  18
ATOM     18  C   UNL     1       2.436   8.046  17.746  0.00  0.00    +0.000 C 
BRANCH  18  19
ATOM     19  C   UNL     1       1.959   8.210  19.190  0.00  0.00    +0.000 C 
ATOM     20  O   UNL     1       2.169   7.307  20.005  0.00  0.00    +0.000 OA
ATOM     21  N   UNL     1       1.230   9.349  19.523  0.00  0.00    +0.000 N 
ATOM     22  C   UNL     1       0.858   9.547  20.920  0.00  0.00    +0.000 C 
ATOM     23  C   UNL     1      -0.574  10.061  21.027  0.00  0.00    +0.000 C 
ATOM     24  C   UNL     1      -0.760  11.353  20.223  0.00  0.00    +0.000 C 
ATOM     25  C   UNL     1      -0.320  11.129  18.771  0.00  0.00    +0.000 C 
ATOM     26  C   UNL     1       1.080  10.523  18.660  0.00  0.00    +0.000 C 
BRANCH  24  27
ATOM     27  C   UNL     1      -0.029  12.523  20.873  0.00  0.00    +0.000 C 
ATOM     28  N   UNL     1       0.387  13.499  20.016  0.00  0.00    +0.000 N 
ATOM     29  O   UNL     1       0.198  12.617  22.073  0.00  0.00    +0.000 OA
ATOM     30  H   UNL     1       0.279  13.449  19.012  0.00  0.00    +0.000 HD
ATOM     31  H   UNL     1       0.889  14.286  20.407  0.00  0.00    +0.000 HD
ENDBRANCH  24  27
ENDBRANCH  18  19
ENDBRANCH  17  18
ENDBRANCH  11  17
TORSDOF 7
ENDMDL
MODEL 6
REMARK VINA RESULT:      -7.3      1.795      4.128
REMARK  Name = 
REMARK  9 active torsions:
REMARK  status: ('A' for Active; 'I' for Inactive)
REMARK    1  A    between atoms: C_1  and  C_2
REMARK    2  A    between atoms: C_2  and  C_3
REMARK    3  A    between atoms: C_3  and  C_4
REMARK    4  A    between atoms: C_4  and  C_5
REMARK    5  A    between atoms: C_12  and  C_13
REMARK    6  A    between atoms: C_15  and  O_16
REMARK    7  A    between atoms: O_16  and  C_17
REMARK    8  A    between atoms: C_17  and  C_18
REMARK    9  A    between atoms: C_23  and  C_24
REMARK                            x       y       z     vdW  Elec       q    Type
REMARK                         _______ _______ _______ _____ _____    ______ ____
ROOT
ATOM      1  C   UNL     1       3.209   3.889  18.637  0.00  0.00    +0.000 A 
ATOM      2  C   UNL     1       3.566   2.756  19.266  0.00  0.00    +0.000 A 
ATOM      3  C   UNL     1       4.933   2.448  19.691  0.00  0.00    +0.000 A 
ATOM      4  O   UNL     1       5.189   1.421  20.314  0.00  0.00    +0.000 OA
ATOM      5  O   UNL     1       5.908   3.344  19.299  0.00  0.00    +0.000 OA
ATOM      6  C   UNL     1       5.573   4.567  18.677  0.00  0.00    +0.000 A 
ATOM      7  C   UNL     1       6.657   5.393  18.381  0.00  0.00    +0.000 A 
ATOM      8  C   UNL     1       6.438   6.633  17.792  0.00  0.00    +0.000 A 
ATOM      9  C   UNL     1       7.576   7.533  17.416  0.00  0.00    +0.000 C 
ATOM     10  C   UNL     1       5.120   7.044  17.556  0.00  0.00    +0.000 A 
ATOM     11  C   UNL     1       4.028   6.228  17.893  0.00  0.00    +0.000 A 
ATOM     12  C   UNL     1       4.244   4.925  18.404  0.00  0.00    +0.000 A 
ENDROOT
BRANCH   1  13
ATOM     13  C   UNL     1       1.789   4.026  18.128  0.00  0.00    +0.000 C 
BRANCH  13  14
ATOM     14  C   UNL     1       0.701   3.456  19.055  0.00  0.00    +0.000 C 
BRANCH  14  16
ATOM     15  C   UNL     1       1.132   2.887  21.458  0.00  0.00    +0.000 C 
ATOM     16  C   UNL     1       0.770   3.996  20.481  0.00  0.00    +0.000 C 
ENDBRANCH  14  16
ENDBRANCH  13  14
ENDBRANCH   1  13
BRANCH  11  17
ATOM     17  O   UNL     1       2.731   6.651  17.778  0.00  0.00    +0.000 OA
BRANCH  17  18
ATOM     18  C   UNL     1       2.156   7.407  18.832  0.00  0.00    +0.000 C 
BRANCH  18  19
ATOM     19  C   UNL     1       1.827   8.826  18.364  0.00  0.00    +0.000 C 
ATOM     20  O   UNL     1       2.209   9.201  17.251  0.00  0.00    +0.000 OA
ATOM     21  N   UNL     1       1.169   9.681  19.245  0.00  0.00    +0.000 N 
ATOM     22  C   UNL     1       0.776  11.000  18.763  0.00  0.00    +0.000 C 
ATOM     23  C   UNL     1       1.047  12.063  19.823  0.00  0.00    +0.000 C 
ATOM     24  C   UNL     1       0.333  11.726  21.138  0.00  0.00    +0.000 C 
ATOM     25  C   UNL     1       0.731  10.318  21.598  0.00  0.00    +0.000 C 
ATOM     26  C   UNL     1       0.553   9.262  20.506  0.00  0.00    +0.000 C 
BRANCH  24  27
ATOM     27  C   UNL     1      -1.178  11.885  21.009  0.00  0.00    +0.000 C 
ATOM     28  N   UNL     1      -1.876  11.789  22.176  0.00  0.00    +0.000 N 
ATOM     29  O   UNL     1      -1.765  12.079  19.952  0.00  0.00    +0.000 OA
ATOM     30  H   UNL     1      -1.451  11.574  23.068  0.00  0.00    +0.000 HD
ATOM     31  H   UNL     1      -2.883  11.874  22.131  0.00  0.00    +0.000 HD
ENDBRANCH  24  27
ENDBRANCH  18  19
ENDBRANCH  17  18
ENDBRANCH  11  17
TORSDOF 7
ENDMDL
MODEL 7
REMARK VINA RESULT:      -7.3      2.836      9.126
REMARK  Name = 
REMARK  9 active torsions:
REMARK  status: ('A' for Active; 'I' for Inactive)
REMARK    1  A    between atoms: C_1  and  C_2
REMARK    2  A    between atoms: C_2  and  C_3
REMARK    3  A    between atoms: C_3  and  C_4
REMARK    4  A    between atoms: C_4  and  C_5
REMARK    5  A    between atoms: C_12  and  C_13
REMARK    6  A    between atoms: C_15  and  O_16
REMARK    7  A    between atoms: O_16  and  C_17
REMARK    8  A    between atoms: C_17  and  C_18
REMARK    9  A    between atoms: C_23  and  C_24
REMARK                            x       y       z     vdW  Elec       q    Type
REMARK                         _______ _______ _______ _____ _____    ______ ____
ROOT
ATOM      1  C   UNL     1      -1.228  11.110  19.110  0.00  0.00    +0.000 A 
ATOM      2  C   UNL     1      -2.066  12.159  19.159  0.00  0.00    +0.000 A 
ATOM      3  C   UNL     1      -2.465  12.836  20.394  0.00  0.00    +0.000 A 
ATOM      4  O   UNL     1      -3.189  13.827  20.372  0.00  0.00    +0.000 OA
ATOM      5  O   UNL     1      -2.027  12.259  21.571  0.00  0.00    +0.000 OA
ATOM      6  C   UNL     1      -1.110  11.185  21.565  0.00  0.00    +0.000 A 
ATOM      7  C   UNL     1      -0.722  10.738  22.827  0.00  0.00    +0.000 A 
ATOM      8  C   UNL     1       0.199   9.700  22.937  0.00  0.00    +0.000 A 
ATOM      9  C   UNL     1       0.611   9.158  24.272  0.00  0.00    +0.000 C 
ATOM     10  C   UNL     1       0.753   9.165  21.768  0.00  0.00    +0.000 A 
ATOM     11  C   UNL     1       0.391   9.646  20.500  0.00  0.00    +0.000 A 
ATOM     12  C   UNL     1      -0.616  10.634  20.374  0.00  0.00    +0.000 A 
ENDROOT
BRANCH   1  13
ATOM     13  C   UNL     1      -1.006  10.414  17.783  0.00  0.00    +0.000 C 
BRANCH  13  14
ATOM     14  C   UNL     1      -2.230   9.676  17.214  0.00  0.00    +0.000 C 
BRANCH  14  16
ATOM     15  C   UNL     1      -3.818  11.154  15.958  0.00  0.00    +0.000 C 
ATOM     16  C   UNL     1      -2.659  10.176  15.837  0.00  0.00    +0.000 C 
ENDBRANCH  14  16
ENDBRANCH  13  14
ENDBRANCH   1  13
BRANCH  11  17
ATOM     17  O   UNL     1       0.999   9.219  19.349  0.00  0.00    +0.000 OA
BRANCH  17  18
ATOM     18  C   UNL     1       1.688   7.978  19.353  0.00  0.00    +0.000 C 
BRANCH  18  19
ATOM     19  C   UNL     1       2.666   7.898  18.180  0.00  0.00    +0.000 C 
ATOM     20  O   UNL     1       2.590   8.728  17.269  0.00  0.00    +0.000 OA
ATOM     21  N   UNL     1       3.567   6.837  18.137  0.00  0.00    +0.000 N 
ATOM     22  C   UNL     1       4.558   6.815  17.067  0.00  0.00    +0.000 C 
ATOM     23  C   UNL     1       4.717   5.404  16.510  0.00  0.00    +0.000 C 
ATOM     24  C   UNL     1       5.087   4.411  17.619  0.00  0.00    +0.000 C 
ATOM     25  C   UNL     1       4.053   4.487  18.749  0.00  0.00    +0.000 C 
ATOM     26  C   UNL     1       3.818   5.914  19.246  0.00  0.00    +0.000 C 
BRANCH  24  27
ATOM     27  C   UNL     1       6.509   4.641  18.120  0.00  0.00    +0.000 C 
ATOM     28  N   UNL     1       7.494   4.402  17.208  0.00  0.00    +0.000 N 
ATOM     29  O   UNL     1       6.792   5.004  19.255  0.00  0.00    +0.000 OA
ATOM     30  H   UNL     1       7.323   4.047  16.277  0.00  0.00    +0.000 HD
ATOM     31  H   UNL     1       8.453   4.529  17.507  0.00  0.00    +0.000 HD
ENDBRANCH  24  27
ENDBRANCH  18  19
ENDBRANCH  17  18
ENDBRANCH  11  17
TORSDOF 7
ENDMDL
MODEL 8
REMARK VINA RESULT:      -7.3      2.648      8.828
REMARK  Name = 
REMARK  9 active torsions:
REMARK  status: ('A' for Active; 'I' for Inactive)
REMARK    1  A    between atoms: C_1  and  C_2
REMARK    2  A    between atoms: C_2  and  C_3
REMARK    3  A    between atoms: C_3  and  C_4
REMARK    4  A    between atoms: C_4  and  C_5
REMARK    5  A    between atoms: C_12  and  C_13
REMARK    6  A    between atoms: C_15  and  O_16
REMARK    7  A    between atoms: O_16  and  C_17
REMARK    8  A    between atoms: C_17  and  C_18
REMARK    9  A    between atoms: C_23  and  C_24
REMARK                            x       y       z     vdW  Elec       q    Type
REMARK                         _______ _______ _______ _____ _____    ______ ____
ROOT
ATOM      1  C   UNL     1      -0.245  12.114  20.640  0.00  0.00    +0.000 A 
ATOM      2  C   UNL     1      -1.028  12.929  21.368  0.00  0.00    +0.000 A 
ATOM      3  C   UNL     1      -2.445  13.169  21.091  0.00  0.00    +0.000 A 
ATOM      4  O   UNL     1      -3.125  13.880  21.827  0.00  0.00    +0.000 OA
ATOM      5  O   UNL     1      -2.943  12.601  19.935  0.00  0.00    +0.000 OA
ATOM      6  C   UNL     1      -2.170  11.704  19.166  0.00  0.00    +0.000 A 
ATOM      7  C   UNL     1      -2.820  11.172  18.053  0.00  0.00    +0.000 A 
ATOM      8  C   UNL     1      -2.158  10.257  17.241  0.00  0.00    +0.000 A 
ATOM      9  C   UNL     1      -2.802   9.695  16.010  0.00  0.00    +0.000 C 
ATOM     10  C   UNL     1      -0.866   9.853  17.596  0.00  0.00    +0.000 A 
ATOM     11  C   UNL     1      -0.230  10.358  18.741  0.00  0.00    +0.000 A 
ATOM     12  C   UNL     1      -0.856  11.361  19.519  0.00  0.00    +0.000 A 
ENDROOT
BRANCH   1  13
ATOM     13  C   UNL     1       1.238  12.060  20.948  0.00  0.00    +0.000 C 
BRANCH  13  14
ATOM     14  C   UNL     1       2.029  13.331  20.594  0.00  0.00    +0.000 C 
BRANCH  14  16
ATOM     15  C   UNL     1       2.631  12.870  18.204  0.00  0.00    +0.000 C 
ATOM     16  C   UNL     1       1.852  13.777  19.144  0.00  0.00    +0.000 C 
ENDBRANCH  14  16
ENDBRANCH  13  14
ENDBRANCH   1  13
BRANCH  11  17
ATOM     17  O   UNL     1       0.986   9.896  19.172  0.00  0.00    +0.000 OA
BRANCH  17  18
ATOM     18  C   UNL     1       1.229   8.498  19.179  0.00  0.00    +0.000 C 
BRANCH  18  19
ATOM     19  C   UNL     1       2.426   8.152  18.291  0.00  0.00    +0.000 C 
ATOM     20  O   UNL     1       2.836   8.982  17.475  0.00  0.00    +0.000 OA
ATOM     21  N   UNL     1       2.971   6.873  18.379  0.00  0.00    +0.000 N 
ATOM     22  C   UNL     1       4.167   6.577  17.599  0.00  0.00    +0.000 C 
ATOM     23  C   UNL     1       4.070   5.191  16.971  0.00  0.00    +0.000 C 
ATOM     24  C   UNL     1       3.833   4.115  18.037  0.00  0.00    +0.000 C 
ATOM     25  C   UNL     1       2.595   4.474  18.869  0.00  0.00    +0.000 C 
ATOM     26  C   UNL     1       2.643   5.899  19.423  0.00  0.00    +0.000 C 
BRANCH  24  27
ATOM     27  C   UNL     1       5.070   3.907  18.904  0.00  0.00    +0.000 C 
ATOM     28  N   UNL     1       4.996   2.869  19.785  0.00  0.00    +0.000 N 
ATOM     29  O   UNL     1       6.076   4.603  18.852  0.00  0.00    +0.000 OA
ATOM     30  H   UNL     1       4.172   2.298  19.912  0.00  0.00    +0.000 HD
ATOM     31  H   UNL     1       5.792   2.707  20.389  0.00  0.00    +0.000 HD
ENDBRANCH  24  27
ENDBRANCH  18  19
ENDBRANCH  17  18
ENDBRANCH  11  17
TORSDOF 7
ENDMDL
MODEL 9
REMARK VINA RESULT:      -7.2      3.382      9.018
REMARK  Name = 
REMARK  9 active torsions:
REMARK  status: ('A' for Active; 'I' for Inactive)
REMARK    1  A    between atoms: C_1  and  C_2
REMARK    2  A    between atoms: C_2  and  C_3
REMARK    3  A    between atoms: C_3  and  C_4
REMARK    4  A    between atoms: C_4  and  C_5
REMARK    5  A    between atoms: C_12  and  C_13
REMARK    6  A    between atoms: C_15  and  O_16
REMARK    7  A    between atoms: O_16  and  C_17
REMARK    8  A    between atoms: C_17  and  C_18
REMARK    9  A    between atoms: C_23  and  C_24
REMARK                            x       y       z     vdW  Elec       q    Type
REMARK                         _______ _______ _______ _____ _____    ______ ____
ROOT
ATOM      1  C   UNL     1      -1.246  10.914  19.117  0.00  0.00    +0.000 A 
ATOM      2  C   UNL     1      -2.045  11.996  19.111  0.00  0.00    +0.000 A 
ATOM      3  C   UNL     1      -2.414  12.751  20.310  0.00  0.00    +0.000 A 
ATOM      4  O   UNL     1      -3.101  13.766  20.235  0.00  0.00    +0.000 OA
ATOM      5  O   UNL     1      -1.995  12.221  21.515  0.00  0.00    +0.000 OA
ATOM      6  C   UNL     1      -1.119  11.114  21.564  0.00  0.00    +0.000 A 
ATOM      7  C   UNL     1      -0.744  10.719  22.848  0.00  0.00    +0.000 A 
ATOM      8  C   UNL     1       0.138   9.655  23.011  0.00  0.00    +0.000 A 
ATOM      9  C   UNL     1       0.533   9.168  24.372  0.00  0.00    +0.000 C 
ATOM     10  C   UNL     1       0.667   9.039  21.871  0.00  0.00    +0.000 A 
ATOM     11  C   UNL     1       0.320   9.466  20.580  0.00  0.00    +0.000 A 
ATOM     12  C   UNL     1      -0.649  10.483  20.404  0.00  0.00    +0.000 A 
ENDROOT
BRANCH   1  13
ATOM     13  C   UNL     1      -1.054  10.142  17.828  0.00  0.00    +0.000 C 
BRANCH  13  14
ATOM     14  C   UNL     1      -2.350   9.728  17.110  0.00  0.00    +0.000 C 
BRANCH  14  16
ATOM     15  C   UNL     1      -4.018  11.119  15.859  0.00  0.00    +0.000 C 
ATOM     16  C   UNL     1      -2.621  10.519  15.832  0.00  0.00    +0.000 C 
ENDBRANCH  14  16
ENDBRANCH  13  14
ENDBRANCH   1  13
BRANCH  11  17
ATOM     17  O   UNL     1       0.909   8.957  19.453  0.00  0.00    +0.000 OA
BRANCH  17  18
ATOM     18  C   UNL     1       2.220   8.420  19.542  0.00  0.00    +0.000 C 
BRANCH  18  19
ATOM     19  C   UNL     1       2.444   7.356  18.466  0.00  0.00    +0.000 C 
ATOM     20  O   UNL     1       2.706   7.706  17.312  0.00  0.00    +0.000 OA
ATOM     21  N   UNL     1       2.267   6.018  18.809  0.00  0.00    +0.000 N 
ATOM     22  C   UNL     1       2.571   5.003  17.806  0.00  0.00    +0.000 C 
ATOM     23  C   UNL     1       1.516   3.902  17.819  0.00  0.00    +0.000 C 
ATOM     24  C   UNL     1       1.389   3.274  19.212  0.00  0.00    +0.000 C 
ATOM     25  C   UNL     1       1.113   4.368  20.251  0.00  0.00    +0.000 C 
ATOM     26  C   UNL     1       2.112   5.523  20.178  0.00  0.00    +0.000 C 
BRANCH  24  27
ATOM     27  C   UNL     1       2.618   2.441  19.563  0.00  0.00    +0.000 C 
ATOM     28  N   UNL     1       2.977   1.512  18.631  0.00  0.00    +0.000 N 
ATOM     29  O   UNL     1       3.260   2.560  20.598  0.00  0.00    +0.000 OA
ATOM     30  H   UNL     1       2.452   1.332  17.787  0.00  0.00    +0.000 HD
ATOM     31  H   UNL     1       3.779   0.930  18.833  0.00  0.00    +0.000 HD
ENDBRANCH  24  27
ENDBRANCH  18  19
ENDBRANCH  17  18
ENDBRANCH  11  17
TORSDOF 7
ENDMDL
