MODEL 1
REMARK VINA RESULT:      -7.1      0.000      0.000
REMARK  Name = 
REMARK  9 active torsions:
REMARK  status: ('A' for Active; 'I' for Inactive)
REMARK    1  A    between atoms: C_1  and  N_2
REMARK    2  A    between atoms: N_2  and  C_3
REMARK    3  A    between atoms: N_2  and  C_4
REMARK    4  A    between atoms: C_4  and  C_5
REMARK    5  A    between atoms: N_14  and  C_15
REMARK    6  A    between atoms: C_18  and  C_19
REMARK    7  A    between atoms: C_19  and  C_20
REMARK    8  A    between atoms: C_19  and  C_21
REMARK    9  A    between atoms: C_19  and  C_22
REMARK                            x       y       z     vdW  Elec       q    Type
REMARK                         _______ _______ _______ _____ _____    ______ ____
ROOT
ATOM      1  C   UNL     1       4.775   4.120  18.606  0.00  0.00    +0.000 C 
ATOM      2  C   UNL     1       4.844   2.940  19.626  0.00  0.00    +0.000 C 
ATOM      3  S   UNL     1       4.077   1.338  19.188  0.00  0.00    +0.000 S 
ATOM      4  C   UNL     1       2.341   1.850  19.264  0.00  0.00    +0.000 C 
ATOM      5  C   UNL     1       1.844   2.448  17.957  0.00  0.00    +0.000 C 
ATOM      6  C   UNL     1       2.833   3.364  17.232  0.00  0.00    +0.000 C 
ATOM      7  N   UNL     1       3.393   4.436  18.082  0.00  0.00    +0.000 N 
ATOM      8  C   UNL     1       2.531   5.532  18.191  0.00  0.00    +0.000 C 
ATOM      9  O   UNL     1       1.406   5.450  17.696  0.00  0.00    +0.000 OA
ATOM     10  N   UNL     1       2.975   6.680  18.791  0.00  0.00    +0.000 N 
ATOM     11  H   UNL     1       3.932   6.774  19.030  0.00  0.00    +0.000 HD
ENDROOT
BRANCH  10  12
ATOM     12  C   UNL     1       2.234   7.892  18.913  0.00  0.00    +0.000 A 
ATOM     13  C   UNL     1       2.091   8.810  17.880  0.00  0.00    +0.000 A 
ATOM     14  C   UNL     1       1.301   9.957  18.029  0.00  0.00    +0.000 A 
ATOM     15  C   UNL     1       0.611  10.222  19.216  0.00  0.00    +0.000 A 
ATOM     16  C   UNL     1       0.819   9.333  20.283  0.00  0.00    +0.000 A 
ATOM     17  C   UNL     1       1.607   8.176  20.130  0.00  0.00    +0.000 A 
BRANCH  15  18
ATOM     18  C   UNL     1      -0.415  11.363  19.305  0.00  0.00    +0.000 C 
ATOM     19  C   UNL     1       0.095  12.692  18.696  0.00  0.00    +0.000 C 
ATOM     20  C   UNL     1      -1.671  10.959  18.500  0.00  0.00    +0.000 C 
ATOM     21  C   UNL     1      -0.824  11.659  20.762  0.00  0.00    +0.000 C 
ENDBRANCH  15  18
ENDBRANCH  10  12
BRANCH   1  22
ATOM     22  C   UNL     1       5.613   5.288  19.194  0.00  0.00    +0.000 C 
BRANCH  22  24
ATOM     23  C   UNL     1       7.463   4.670  17.753  0.00  0.00    +0.000 C 
ATOM     24  N   UNL     1       6.713   5.786  18.338  0.00  0.00    +0.000 NA
ATOM     25  C   UNL     1       6.187   6.671  17.295  0.00  0.00    +0.000 C 
ENDBRANCH  22  24
ENDBRANCH   1  22
TORSDOF 4
ENDMDL
MODEL 2
REMARK VINA RESULT:      -6.9      0.493      1.092
REMARK  Name = 
REMARK  9 active torsions:
REMARK  status: ('A' for Active; 'I' for Inactive)
REMARK    1  A    between atoms: C_1  and  N_2
REMARK    2  A    between atoms: N_2  and  C_3
REMARK    3  A    between atoms: N_2  and  C_4
REMARK    4  A    between atoms: C_4  and  C_5
REMARK    5  A    between atoms: N_14  and  C_15
REMARK    6  A    between atoms: C_18  and  C_19
REMARK    7  A    between atoms: C_19  and  C_20
REMARK    8  A    between atoms: C_19  and  C_21
REMARK    9  A    between atoms: C_19  and  C_22
REMARK                            x       y       z     vdW  Elec       q    Type
REMARK                         _______ _______ _______ _____ _____    ______ ____
ROOT
ATOM      1  C   UNL     1       4.758   4.112  18.610  0.00  0.00    +0.000 C 
ATOM      2  C   UNL     1       4.831   2.907  19.601  0.00  0.00    +0.000 C 
ATOM      3  S   UNL     1       4.057   1.317  19.129  0.00  0.00    +0.000 S 
ATOM      4  C   UNL     1       2.322   1.831  19.228  0.00  0.00    +0.000 C 
ATOM      5  C   UNL     1       1.820   2.462  17.939  0.00  0.00    +0.000 C 
ATOM      6  C   UNL     1       2.806   3.392  17.230  0.00  0.00    +0.000 C 
ATOM      7  N   UNL     1       3.374   4.443  18.102  0.00  0.00    +0.000 N 
ATOM      8  C   UNL     1       2.515   5.537  18.242  0.00  0.00    +0.000 C 
ATOM      9  O   UNL     1       1.388   5.470  17.752  0.00  0.00    +0.000 OA
ATOM     10  N   UNL     1       2.965   6.670  18.867  0.00  0.00    +0.000 N 
ATOM     11  H   UNL     1       3.924   6.756  19.102  0.00  0.00    +0.000 HD
ENDROOT
BRANCH  10  12
ATOM     12  C   UNL     1       2.228   7.881  19.022  0.00  0.00    +0.000 A 
ATOM     13  C   UNL     1       1.541   8.216  20.183  0.00  0.00    +0.000 A 
ATOM     14  C   UNL     1       0.883   9.446  20.310  0.00  0.00    +0.000 A 
ATOM     15  C   UNL     1       0.899  10.394  19.283  0.00  0.00    +0.000 A 
ATOM     16  C   UNL     1       1.529  10.021  18.084  0.00  0.00    +0.000 A 
ATOM     17  C   UNL     1       2.197   8.789  17.960  0.00  0.00    +0.000 A 
BRANCH  15  18
ATOM     18  C   UNL     1       0.359  11.817  19.501  0.00  0.00    +0.000 C 
ATOM     19  C   UNL     1       1.007  12.866  18.564  0.00  0.00    +0.000 C 
ATOM     20  C   UNL     1      -1.156  11.821  19.193  0.00  0.00    +0.000 C 
ATOM     21  C   UNL     1       0.580  12.303  20.947  0.00  0.00    +0.000 C 
ENDBRANCH  15  18
ENDBRANCH  10  12
BRANCH   1  22
ATOM     22  C   UNL     1       5.603   5.263  19.221  0.00  0.00    +0.000 C 
BRANCH  22  24
ATOM     23  C   UNL     1       7.457   4.693  17.767  0.00  0.00    +0.000 C 
ATOM     24  N   UNL     1       6.690   5.789  18.365  0.00  0.00    +0.000 NA
ATOM     25  C   UNL     1       6.142   6.673  17.332  0.00  0.00    +0.000 C 
ENDBRANCH  22  24
ENDBRANCH   1  22
TORSDOF 4
ENDMDL
MODEL 3
REMARK VINA RESULT:      -6.8      0.658      1.574
REMARK  Name = 
REMARK  9 active torsions:
REMARK  status: ('A' for Active; 'I' for Inactive)
REMARK    1  A    between atoms: C_1  and  N_2
REMARK    2  A    between atoms: N_2  and  C_3
REMARK    3  A    between atoms: N_2  and  C_4
REMARK    4  A    between atoms: C_4  and  C_5
REMARK    5  A    between atoms: N_14  and  C_15
REMARK    6  A    between atoms: C_18  and  C_19
REMARK    7  A    between atoms: C_19  and  C_20
REMARK    8  A    between atoms: C_19  and  C_21
REMARK    9  A    between atoms: C_19  and  C_22
REMARK                            x       y       z     vdW  Elec       q    Type
REMARK                         _______ _______ _______ _____ _____    ______ ____
ROOT
ATOM      1  C   UNL     1       4.679   4.098  18.580  0.00  0.00    +0.000 C 
ATOM      2  C   UNL     1       4.759   2.892  19.568  0.00  0.00    +0.000 C 
ATOM      3  S   UNL     1       3.956   1.312  19.112  0.00  0.00    +0.000 S 
ATOM      4  C   UNL     1       2.230   1.846  19.251  0.00  0.00    +0.000 C 
ATOM      5  C   UNL     1       1.706   2.484  17.974  0.00  0.00    +0.000 C 
ATOM      6  C   UNL     1       2.688   3.404  17.244  0.00  0.00    +0.000 C 
ATOM      7  N   UNL     1       3.287   4.447  18.104  0.00  0.00    +0.000 N 
ATOM      8  C   UNL     1       2.445   5.551  18.265  0.00  0.00    +0.000 C 
ATOM      9  O   UNL     1       1.306   5.498  17.800  0.00  0.00    +0.000 OA
ATOM     10  N   UNL     1       2.923   6.678  18.881  0.00  0.00    +0.000 N 
ATOM     11  H   UNL     1       3.888   6.752  19.095  0.00  0.00    +0.000 HD
ENDROOT
BRANCH  10  12
ATOM     12  C   UNL     1       2.204   7.897  19.054  0.00  0.00    +0.000 A 
ATOM     13  C   UNL     1       1.547   8.239  20.230  0.00  0.00    +0.000 A 
ATOM     14  C   UNL     1       0.907   9.476  20.374  0.00  0.00    +0.000 A 
ATOM     15  C   UNL     1       0.910  10.426  19.348  0.00  0.00    +0.000 A 
ATOM     16  C   UNL     1       1.509  10.047  18.134  0.00  0.00    +0.000 A 
ATOM     17  C   UNL     1       2.159   8.807  17.994  0.00  0.00    +0.000 A 
BRANCH  15  18
ATOM     18  C   UNL     1       0.393  11.854  19.580  0.00  0.00    +0.000 C 
ATOM     19  C   UNL     1      -0.390  12.011  20.908  0.00  0.00    +0.000 C 
ATOM     20  C   UNL     1       1.604  12.810  19.663  0.00  0.00    +0.000 C 
ATOM     21  C   UNL     1      -0.542  12.321  18.446  0.00  0.00    +0.000 C 
ENDBRANCH  15  18
ENDBRANCH  10  12
BRANCH   1  22
ATOM     22  C   UNL     1       5.550   5.239  19.174  0.00  0.00    +0.000 C 
BRANCH  22  24
ATOM     23  C   UNL     1       7.846   6.018  19.122  0.00  0.00    +0.000 C 
ATOM     24  N   UNL     1       6.660   5.714  18.316  0.00  0.00    +0.000 NA
ATOM     25  C   UNL     1       6.966   4.721  17.283  0.00  0.00    +0.000 C 
ENDBRANCH  22  24
ENDBRANCH   1  22
TORSDOF 4
ENDMDL
MODEL 4
REMARK VINA RESULT:      -6.7      4.250      8.870
REMARK  Name = 
REMARK  9 active torsions:
REMARK  status: ('A' for Active; 'I' for Inactive)
REMARK    1  A    between atoms: C_1  and  N_2
REMARK    2  A    between atoms: N_2  and  C_3
REMARK    3  A    between atoms: N_2  and  C_4
REMARK    4  A    between atoms: C_4  and  C_5
REMARK    5  A    between atoms: N_14  and  C_15
REMARK    6  A    between atoms: C_18  and  C_19
REMARK    7  A    between atoms: C_19  and  C_20
REMARK    8  A    between atoms: C_19  and  C_21
REMARK    9  A    between atoms: C_19  and  C_22
REMARK                            x       y       z     vdW  Elec       q    Type
REMARK                         _______ _______ _______ _____ _____    ______ ____
ROOT
ATOM      1  C   UNL     1      -1.811  12.571  19.436  0.00  0.00    +0.000 C 
ATOM      2  C   UNL     1      -3.189  12.504  20.167  0.00  0.00    +0.000 C 
ATOM      3  S   UNL     1      -3.396  13.380  21.760  0.00  0.00    +0.000 S 
ATOM      4  C   UNL     1      -2.334  12.322  22.780  0.00  0.00    +0.000 C 
ATOM      5  C   UNL     1      -0.872  12.739  22.737  0.00  0.00    +0.000 C 
ATOM      6  C   UNL     1      -0.349  13.176  21.367  0.00  0.00    +0.000 C 
ATOM      7  N   UNL     1      -0.615  12.205  20.285  0.00  0.00    +0.000 N 
ATOM      8  C   UNL     1       0.323  11.168  20.259  0.00  0.00    +0.000 C 
ATOM      9  O   UNL     1       1.158  11.105  21.162  0.00  0.00    +0.000 OA
ATOM     10  N   UNL     1       0.326  10.289  19.209  0.00  0.00    +0.000 N 
ATOM     11  H   UNL     1      -0.246  10.462  18.418  0.00  0.00    +0.000 HD
ENDROOT
BRANCH  10  12
ATOM     12  C   UNL     1       1.260   9.229  19.017  0.00  0.00    +0.000 A 
ATOM     13  C   UNL     1       1.425   8.180  19.913  0.00  0.00    +0.000 A 
ATOM     14  C   UNL     1       2.313   7.130  19.649  0.00  0.00    +0.000 A 
ATOM     15  C   UNL     1       3.061   7.081  18.469  0.00  0.00    +0.000 A 
ATOM     16  C   UNL     1       2.949   8.180  17.601  0.00  0.00    +0.000 A 
ATOM     17  C   UNL     1       2.051   9.232  17.863  0.00  0.00    +0.000 A 
BRANCH  15  18
ATOM     18  C   UNL     1       3.870   5.832  18.087  0.00  0.00    +0.000 C 
ATOM     19  C   UNL     1       2.981   4.613  17.734  0.00  0.00    +0.000 C 
ATOM     20  C   UNL     1       4.706   6.152  16.827  0.00  0.00    +0.000 C 
ATOM     21  C   UNL     1       4.817   5.388  19.221  0.00  0.00    +0.000 C 
ENDBRANCH  15  18
ENDBRANCH  10  12
BRANCH   1  22
ATOM     22  C   UNL     1      -1.979  11.854  18.069  0.00  0.00    +0.000 C 
BRANCH  22  24
ATOM     23  C   UNL     1      -4.028  11.534  16.811  0.00  0.00    +0.000 C 
ATOM     24  N   UNL     1      -3.204  11.036  17.917  0.00  0.00    +0.000 NA
ATOM     25  C   UNL     1      -2.855   9.626  17.720  0.00  0.00    +0.000 C 
ENDBRANCH  22  24
ENDBRANCH   1  22
TORSDOF 4
ENDMDL
MODEL 5
REMARK VINA RESULT:      -6.5      4.379      9.026
REMARK  Name = 
REMARK  9 active torsions:
REMARK  status: ('A' for Active; 'I' for Inactive)
REMARK    1  A    between atoms: C_1  and  N_2
REMARK    2  A    between atoms: N_2  and  C_3
REMARK    3  A    between atoms: N_2  and  C_4
REMARK    4  A    between atoms: C_4  and  C_5
REMARK    5  A    between atoms: N_14  and  C_15
REMARK    6  A    between atoms: C_18  and  C_19
REMARK    7  A    between atoms: C_19  and  C_20
REMARK    8  A    between atoms: C_19  and  C_21
REMARK    9  A    between atoms: C_19  and  C_22
REMARK                            x       y       z     vdW  Elec       q    Type
REMARK                         _______ _______ _______ _____ _____    ______ ____
ROOT
ATOM      1  C   UNL     1      -2.017  12.640  19.709  0.00  0.00    +0.000 C 
ATOM      2  C   UNL     1      -2.883  12.923  20.978  0.00  0.00    +0.000 C 
ATOM      3  S   UNL     1      -2.496  14.381  22.014  0.00  0.00    +0.000 S 
ATOM      4  C   UNL     1      -0.924  13.802  22.705  0.00  0.00    +0.000 C 
ATOM      5  C   UNL     1       0.265  14.117  21.811  0.00  0.00    +0.000 C 
ATOM      6  C   UNL     1       0.030  13.936  20.310  0.00  0.00    +0.000 C 
ATOM      7  N   UNL     1      -0.524  12.616  19.943  0.00  0.00    +0.000 N 
ATOM      8  C   UNL     1       0.464  11.630  19.858  0.00  0.00    +0.000 C 
ATOM      9  O   UNL     1       1.613  11.917  20.195  0.00  0.00    +0.000 OA
ATOM     10  N   UNL     1       0.144  10.398  19.353  0.00  0.00    +0.000 N 
ATOM     11  H   UNL     1      -0.743  10.250  18.937  0.00  0.00    +0.000 HD
ENDROOT
BRANCH  10  12
ATOM     12  C   UNL     1       1.058   9.323  19.146  0.00  0.00    +0.000 A 
ATOM     13  C   UNL     1       1.333   8.356  20.105  0.00  0.00    +0.000 A 
ATOM     14  C   UNL     1       2.192   7.284  19.832  0.00  0.00    +0.000 A 
ATOM     15  C   UNL     1       2.799   7.131  18.581  0.00  0.00    +0.000 A 
ATOM     16  C   UNL     1       2.579   8.151  17.641  0.00  0.00    +0.000 A 
ATOM     17  C   UNL     1       1.710   9.224  17.913  0.00  0.00    +0.000 A 
BRANCH  15  18
ATOM     18  C   UNL     1       3.568   5.851  18.218  0.00  0.00    +0.000 C 
ATOM     19  C   UNL     1       4.529   6.037  17.017  0.00  0.00    +0.000 C 
ATOM     20  C   UNL     1       4.441   5.442  19.426  0.00  0.00    +0.000 C 
ATOM     21  C   UNL     1       2.619   4.689  17.864  0.00  0.00    +0.000 C 
ENDBRANCH  15  18
ENDBRANCH  10  12
BRANCH   1  22
ATOM     22  C   UNL     1      -2.658  11.431  18.975  0.00  0.00    +0.000 C 
BRANCH  22  24
ATOM     23  C   UNL     1      -2.272  10.560  16.744  0.00  0.00    +0.000 C 
ATOM     24  N   UNL     1      -2.915  11.618  17.529  0.00  0.00    +0.000 NA
ATOM     25  C   UNL     1      -4.357  11.663  17.269  0.00  0.00    +0.000 C 
ENDBRANCH  22  24
ENDBRANCH   1  22
TORSDOF 4
ENDMDL
MODEL 6
REMARK VINA RESULT:      -6.3      1.562      2.165
REMARK  Name = 
REMARK  9 active torsions:
REMARK  status: ('A' for Active; 'I' for Inactive)
REMARK    1  A    between atoms: C_1  and  N_2
REMARK    2  A    between atoms: N_2  and  C_3
REMARK    3  A    between atoms: N_2  and  C_4
REMARK    4  A    between atoms: C_4  and  C_5
REMARK    5  A    between atoms: N_14  and  C_15
REMARK    6  A    between atoms: C_18  and  C_19
REMARK    7  A    between atoms: C_19  and  C_20
REMARK    8  A    between atoms: C_19  and  C_21
REMARK    9  A    between atoms: C_19  and  C_22
REMARK                            x       y       z     vdW  Elec       q    Type
REMARK                         _______ _______ _______ _____ _____    ______ ____
ROOT
ATOM      1  C   UNL     1       3.749   4.538  18.507  0.00  0.00    +0.000 C 
ATOM      2  C   UNL     1       4.817   3.677  19.252  0.00  0.00    +0.000 C 
ATOM      3  S   UNL     1       4.350   2.021  19.875  0.00  0.00    +0.000 S 
ATOM      4  C   UNL     1       3.238   2.546  21.206  0.00  0.00    +0.000 C 
ATOM      5  C   UNL     1       1.812   2.772  20.728  0.00  0.00    +0.000 C 
ATOM      6  C   UNL     1       1.672   3.451  19.364  0.00  0.00    +0.000 C 
ATOM      7  N   UNL     1       2.438   4.710  19.238  0.00  0.00    +0.000 N 
ATOM      8  C   UNL     1       1.764   5.800  19.797  0.00  0.00    +0.000 C 
ATOM      9  O   UNL     1       0.715   5.594  20.409  0.00  0.00    +0.000 OA
ATOM     10  N   UNL     1       2.252   7.065  19.603  0.00  0.00    +0.000 N 
ATOM     11  H   UNL     1       3.000   7.213  18.970  0.00  0.00    +0.000 HD
ENDROOT
BRANCH  10  12
ATOM     12  C   UNL     1       1.638   8.269  20.054  0.00  0.00    +0.000 A 
ATOM     13  C   UNL     1       1.260   9.302  19.204  0.00  0.00    +0.000 A 
ATOM     14  C   UNL     1       0.602  10.440  19.688  0.00  0.00    +0.000 A 
ATOM     15  C   UNL     1       0.284  10.582  21.042  0.00  0.00    +0.000 A 
ATOM     16  C   UNL     1       0.735   9.572  21.909  0.00  0.00    +0.000 A 
ATOM     17  C   UNL     1       1.389   8.426  21.421  0.00  0.00    +0.000 A 
BRANCH  15  18
ATOM     18  C   UNL     1      -0.617  11.725  21.535  0.00  0.00    +0.000 C 
ATOM     19  C   UNL     1      -1.222  11.464  22.937  0.00  0.00    +0.000 C 
ATOM     20  C   UNL     1       0.235  13.009  21.651  0.00  0.00    +0.000 C 
ATOM     21  C   UNL     1      -1.795  11.986  20.575  0.00  0.00    +0.000 C 
ENDBRANCH  15  18
ENDBRANCH  10  12
BRANCH   1  22
ATOM     22  C   UNL     1       4.466   5.816  17.991  0.00  0.00    +0.000 C 
BRANCH  22  24
ATOM     23  C   UNL     1       5.409   5.635  15.763  0.00  0.00    +0.000 C 
ATOM     24  N   UNL     1       5.697   5.589  17.200  0.00  0.00    +0.000 NA
ATOM     25  C   UNL     1       6.725   6.569  17.563  0.00  0.00    +0.000 C 
ENDBRANCH  22  24
ENDBRANCH   1  22
TORSDOF 4
ENDMDL
MODEL 7
REMARK VINA RESULT:      -6.3      4.426      9.104
REMARK  Name = 
REMARK  9 active torsions:
REMARK  status: ('A' for Active; 'I' for Inactive)
REMARK    1  A    between atoms: C_1  and  N_2
REMARK    2  A    between atoms: N_2  and  C_3
REMARK    3  A    between atoms: N_2  and  C_4
REMARK    4  A    between atoms: C_4  and  C_5
REMARK    5  A    between atoms: N_14  and  C_15
REMARK    6  A    between atoms: C_18  and  C_19
REMARK    7  A    between atoms: C_19  and  C_20
REMARK    8  A    between atoms: C_19  and  C_21
REMARK    9  A    between atoms: C_19  and  C_22
REMARK                            x       y       z     vdW  Elec       q    Type
REMARK                         _______ _______ _______ _____ _____    ______ ____
ROOT
ATOM      1  C   UNL     1      -1.599  13.026  19.372  0.00  0.00    +0.000 C 
ATOM      2  C   UNL     1      -2.170  13.644  20.688  0.00  0.00    +0.000 C 
ATOM      3  S   UNL     1      -1.541  15.265  21.258  0.00  0.00    +0.000 S 
ATOM      4  C   UNL     1       0.128  14.746  21.733  0.00  0.00    +0.000 C 
ATOM      5  C   UNL     1       1.108  14.771  20.571  0.00  0.00    +0.000 C 
ATOM      6  C   UNL     1       0.556  14.278  19.231  0.00  0.00    +0.000 C 
ATOM      7  N   UNL     1      -0.092  12.951  19.300  0.00  0.00    +0.000 N 
ATOM      8  C   UNL     1       0.835  11.905  19.248  0.00  0.00    +0.000 C 
ATOM      9  O   UNL     1       2.036  12.179  19.271  0.00  0.00    +0.000 OA
ATOM     10  N   UNL     1       0.389  10.616  19.118  0.00  0.00    +0.000 N 
ATOM     11  H   UNL     1      -0.569  10.442  18.935  0.00  0.00    +0.000 HD
ENDROOT
BRANCH  10  12
ATOM     12  C   UNL     1       1.216   9.462  18.986  0.00  0.00    +0.000 A 
ATOM     13  C   UNL     1       1.406   8.535  20.004  0.00  0.00    +0.000 A 
ATOM     14  C   UNL     1       2.178   7.384  19.805  0.00  0.00    +0.000 A 
ATOM     15  C   UNL     1       2.779   7.108  18.573  0.00  0.00    +0.000 A 
ATOM     16  C   UNL     1       2.648   8.084  17.571  0.00  0.00    +0.000 A 
ATOM     17  C   UNL     1       1.865   9.237  17.769  0.00  0.00    +0.000 A 
BRANCH  15  18
ATOM     18  C   UNL     1       3.445   5.752  18.296  0.00  0.00    +0.000 C 
ATOM     19  C   UNL     1       2.448   4.669  17.814  0.00  0.00    +0.000 C 
ATOM     20  C   UNL     1       4.483   5.935  17.165  0.00  0.00    +0.000 C 
ATOM     21  C   UNL     1       4.154   5.190  19.545  0.00  0.00    +0.000 C 
ENDBRANCH  15  18
ENDBRANCH  10  12
BRANCH   1  22
ATOM     22  C   UNL     1      -2.407  11.731  19.083  0.00  0.00    +0.000 C 
BRANCH  22  24
ATOM     23  C   UNL     1      -2.314  10.764  16.861  0.00  0.00    +0.000 C 
ATOM     24  N   UNL     1      -3.055  11.660  17.753  0.00  0.00    +0.000 NA
ATOM     25  C   UNL     1      -4.450  11.234  17.888  0.00  0.00    +0.000 C 
ENDBRANCH  22  24
ENDBRANCH   1  22
TORSDOF 4
ENDMDL
MODEL 8
REMARK VINA RESULT:      -6.2      4.355      9.021
REMARK  Name = 
REMARK  9 active torsions:
REMARK  status: ('A' for Active; 'I' for Inactive)
REMARK    1  A    between atoms: C_1  and  N_2
REMARK    2  A    between atoms: N_2  and  C_3
REMARK    3  A    between atoms: N_2  and  C_4
REMARK    4  A    between atoms: C_4  and  C_5
REMARK    5  A    between atoms: N_14  and  C_15
REMARK    6  A    between atoms: C_18  and  C_19
REMARK    7  A    between atoms: C_19  and  C_20
REMARK    8  A    between atoms: C_19  and  C_21
REMARK    9  A    between atoms: C_19  and  C_22
REMARK                            x       y       z     vdW  Elec       q    Type
REMARK                         _______ _______ _______ _____ _____    ______ ____
ROOT
ATOM      1  C   UNL     1      -1.441  12.898  19.056  0.00  0.00    +0.000 C 
ATOM      2  C   UNL     1      -1.977  13.718  20.271  0.00  0.00    +0.000 C 
ATOM      3  S   UNL     1      -1.276  15.374  20.608  0.00  0.00    +0.000 S 
ATOM      4  C   UNL     1       0.372  14.854  21.153  0.00  0.00    +0.000 C 
ATOM      5  C   UNL     1       1.346  14.673  19.999  0.00  0.00    +0.000 C 
ATOM      6  C   UNL     1       0.765  14.022  18.742  0.00  0.00    +0.000 C 
ATOM      7  N   UNL     1       0.061  12.747  18.995  0.00  0.00    +0.000 N 
ATOM      8  C   UNL     1       0.942  11.664  19.092  0.00  0.00    +0.000 C 
ATOM      9  O   UNL     1       2.153  11.885  19.077  0.00  0.00    +0.000 OA
ATOM     10  N   UNL     1       0.439  10.391  19.144  0.00  0.00    +0.000 N 
ATOM     11  H   UNL     1      -0.527  10.235  18.987  0.00  0.00    +0.000 HD
ENDROOT
BRANCH  10  12
ATOM     12  C   UNL     1       1.214   9.194  19.176  0.00  0.00    +0.000 A 
ATOM     13  C   UNL     1       1.380   8.419  20.318  0.00  0.00    +0.000 A 
ATOM     14  C   UNL     1       2.099   7.218  20.284  0.00  0.00    +0.000 A 
ATOM     15  C   UNL     1       2.669   6.739  19.101  0.00  0.00    +0.000 A 
ATOM     16  C   UNL     1       2.565   7.562  17.967  0.00  0.00    +0.000 A 
ATOM     17  C   UNL     1       1.835   8.765  18.000  0.00  0.00    +0.000 A 
BRANCH  15  18
ATOM     18  C   UNL     1       3.273   5.328  19.021  0.00  0.00    +0.000 C 
ATOM     19  C   UNL     1       4.820   5.320  19.106  0.00  0.00    +0.000 C 
ATOM     20  C   UNL     1       2.758   4.502  20.221  0.00  0.00    +0.000 C 
ATOM     21  C   UNL     1       2.889   4.609  17.712  0.00  0.00    +0.000 C 
ENDBRANCH  15  18
ENDBRANCH  10  12
BRANCH   1  22
ATOM     22  C   UNL     1      -2.306  11.611  18.950  0.00  0.00    +0.000 C 
BRANCH  22  24
ATOM     23  C   UNL     1      -2.542   9.996  17.157  0.00  0.00    +0.000 C 
ATOM     24  N   UNL     1      -2.898  11.341  17.620  0.00  0.00    +0.000 NA
ATOM     25  C   UNL     1      -4.352  11.515  17.665  0.00  0.00    +0.000 C 
ENDBRANCH  22  24
ENDBRANCH   1  22
TORSDOF 4
ENDMDL
MODEL 9
REMARK VINA RESULT:      -6.2      3.750      8.321
REMARK  Name = 
REMARK  9 active torsions:
REMARK  status: ('A' for Active; 'I' for Inactive)
REMARK    1  A    between atoms: C_1  and  N_2
REMARK    2  A    between atoms: N_2  and  C_3
REMARK    3  A    between atoms: N_2  and  C_4
REMARK    4  A    between atoms: C_4  and  C_5
REMARK    5  A    between atoms: N_14  and  C_15
REMARK    6  A    between atoms: C_18  and  C_19
REMARK    7  A    between atoms: C_19  and  C_20
REMARK    8  A    between atoms: C_19  and  C_21
REMARK    9  A    between atoms: C_19  and  C_22
REMARK                            x       y       z     vdW  Elec       q    Type
REMARK                         _______ _______ _______ _____ _____    ______ ____
ROOT
ATOM      1  C   UNL     1      -0.255  11.643  20.926  0.00  0.00    +0.000 C 
ATOM      2  C   UNL     1       0.142  13.153  20.926  0.00  0.00    +0.000 C 
ATOM      3  S   UNL     1      -0.795  14.320  19.873  0.00  0.00    +0.000 S 
ATOM      4  C   UNL     1      -0.215  13.739  18.258  0.00  0.00    +0.000 C 
ATOM      5  C   UNL     1      -1.041  12.583  17.715  0.00  0.00    +0.000 C 
ATOM      6  C   UNL     1      -1.467  11.536  18.746  0.00  0.00    +0.000 C 
ATOM      7  N   UNL     1      -0.352  11.004  19.559  0.00  0.00    +0.000 N 
ATOM      8  C   UNL     1       0.355   9.996  18.897  0.00  0.00    +0.000 C 
ATOM      9  O   UNL     1       0.071   9.749  17.724  0.00  0.00    +0.000 OA
ATOM     10  N   UNL     1       1.299   9.276  19.580  0.00  0.00    +0.000 N 
ATOM     11  H   UNL     1       1.388   9.384  20.561  0.00  0.00    +0.000 HD
ENDROOT
BRANCH  10  12
ATOM     12  C   UNL     1       2.046   8.181  19.056  0.00  0.00    +0.000 A 
ATOM     13  C   UNL     1       2.767   8.242  17.869  0.00  0.00    +0.000 A 
ATOM     14  C   UNL     1       3.537   7.159  17.427  0.00  0.00    +0.000 A 
ATOM     15  C   UNL     1       3.625   5.974  18.165  0.00  0.00    +0.000 A 
ATOM     16  C   UNL     1       2.835   5.887  19.324  0.00  0.00    +0.000 A 
ATOM     17  C   UNL     1       2.068   6.980  19.771  0.00  0.00    +0.000 A 
BRANCH  15  18
ATOM     18  C   UNL     1       4.629   4.873  17.789  0.00  0.00    +0.000 C 
ATOM     19  C   UNL     1       5.425   5.188  16.498  0.00  0.00    +0.000 C 
ATOM     20  C   UNL     1       5.664   4.740  18.929  0.00  0.00    +0.000 C 
ATOM     21  C   UNL     1       3.938   3.511  17.574  0.00  0.00    +0.000 C 
ENDBRANCH  15  18
ENDBRANCH  10  12
BRANCH   1  22
ATOM     22  C   UNL     1       0.620  10.936  21.997  0.00  0.00    +0.000 C 
BRANCH  22  24
ATOM     23  C   UNL     1      -1.410  10.902  23.323  0.00  0.00    +0.000 C 
ATOM     24  N   UNL     1      -0.119  10.251  23.082  0.00  0.00    +0.000 NA
ATOM     25  C   UNL     1      -0.295   8.832  22.762  0.00  0.00    +0.000 C 
ENDBRANCH  22  24
ENDBRANCH   1  22
TORSDOF 4
ENDMDL
