MODEL 1
REMARK VINA RESULT:      -8.6      0.000      0.000
REMARK  Name = 
REMARK  6 active torsions:
REMARK  status: ('A' for Active; 'I' for Inactive)
REMARK    1  A    between atoms: C_2  and  C_23
REMARK    2  A    between atoms: N_3  and  C_4
REMARK    3  A    between atoms: C_4  and  C_5
REMARK    4  A    between atoms: C_5  and  C_6
REMARK    5  A    between atoms: C_5  and  N_15
REMARK    6  A    between atoms: C_9  and  C_10
REMARK                            x       y       z     vdW  Elec       q    Type
REMARK                         _______ _______ _______ _____ _____    ______ ____
ROOT
ATOM      1  C   UNL     1       3.137   5.868  17.695  0.00  0.00    +0.000 C 
ENDROOT
BRANCH   1   2
ATOM      2  N   UNL     1       2.817   4.778  18.685  0.00  0.00    +0.000 NA
ATOM      3  C   UNL     1       1.587   4.057  18.298  0.00  0.00    +0.000 C 
ATOM      4  C   UNL     1       1.186   2.968  19.281  0.00  0.00    +0.000 C 
ATOM      5  C   UNL     1       1.123   3.540  20.676  0.00  0.00    +0.000 C 
ATOM      6  F   UNL     1       0.793   2.567  21.561  0.00  0.00    +0.000 F 
ATOM      7  F   UNL     1       0.134   4.471  20.747  0.00  0.00    +0.000 F 
ATOM      8  C   UNL     1       2.435   4.168  21.069  0.00  0.00    +0.000 C 
ATOM      9  C   UNL     1       2.792   5.262  20.074  0.00  0.00    +0.000 C 
ENDBRANCH   1   2
BRANCH   1  10
ATOM     10  C   UNL     1       4.321   5.473  16.811  0.00  0.00    +0.000 A 
ATOM     11  C   UNL     1       4.788   4.159  16.678  0.00  0.00    +0.000 A 
ATOM     12  C   UNL     1       5.783   3.857  15.750  0.00  0.00    +0.000 A 
ATOM     13  C   UNL     1       6.304   4.877  14.961  0.00  0.00    +0.000 A 
ATOM     14  N   UNL     1       5.911   6.170  15.101  0.00  0.00    +0.000 NA
ATOM     15  C   UNL     1       4.940   6.433  16.013  0.00  0.00    +0.000 A 
BRANCH  13  16
ATOM     16  C   UNL     1       7.284   4.527  13.861  0.00  0.00    +0.000 C 
ATOM     17  F   UNL     1       6.671   4.156  12.699  0.00  0.00    +0.000 F 
ATOM     18  F   UNL     1       8.083   5.583  13.524  0.00  0.00    +0.000 F 
ENDBRANCH  13  16
ENDBRANCH   1  10
BRANCH   1  19
ATOM     19  C   UNL     1       3.277   7.292  18.342  0.00  0.00    +0.000 C 
BRANCH  19  22
ATOM     20  O   UNL     1       2.625   9.867  17.401  0.00  0.00    +0.000 OA
ATOM     21  C   UNL     1       1.798   9.245  18.065  0.00  0.00    +0.000 C 
ATOM     22  N   UNL     1       2.030   7.992  18.570  0.00  0.00    +0.000 N 
ATOM     23  H   UNL     1       1.283   7.496  19.043  0.00  0.00    +0.000 HD
BRANCH  21  24
ATOM     24  C   UNL     1       0.438   9.818  18.295  0.00  0.00    +0.000 A 
ATOM     25  C   UNL     1      -0.517   9.536  17.302  0.00  0.00    +0.000 A 
ATOM     26  C   UNL     1      -1.833   9.979  17.444  0.00  0.00    +0.000 A 
ATOM     27  C   UNL     1      -2.207  10.705  18.568  0.00  0.00    +0.000 A 
ATOM     28  C   UNL     1      -1.257  11.008  19.549  0.00  0.00    +0.000 A 
ATOM     29  C   UNL     1       0.067  10.574  19.412  0.00  0.00    +0.000 A 
ATOM     30 CL   UNL     1       1.154  11.060  20.666  0.00  0.00    +0.000 Cl
ENDBRANCH  21  24
ENDBRANCH  19  22
ENDBRANCH   1  19
TORSDOF 6
ENDMDL
MODEL 2
REMARK VINA RESULT:      -8.5      0.992      1.030
REMARK  Name = 
REMARK  6 active torsions:
REMARK  status: ('A' for Active; 'I' for Inactive)
REMARK    1  A    between atoms: C_2  and  C_23
REMARK    2  A    between atoms: N_3  and  C_4
REMARK    3  A    between atoms: C_4  and  C_5
REMARK    4  A    between atoms: C_5  and  C_6
REMARK    5  A    between atoms: C_5  and  N_15
REMARK    6  A    between atoms: C_9  and  C_10
REMARK                            x       y       z     vdW  Elec       q    Type
REMARK                         _______ _______ _______ _____ _____    ______ ____
ROOT
ATOM      1  C   UNL     1       3.262   5.431  17.891  0.00  0.00    +0.000 C 
ENDROOT
BRANCH   1   2
ATOM      2  N   UNL     1       2.874   4.221  18.700  0.00  0.00    +0.000 NA
ATOM      3  C   UNL     1       1.480   4.331  19.179  0.00  0.00    +0.000 C 
ATOM      4  C   UNL     1       1.038   3.157  20.039  0.00  0.00    +0.000 C 
ATOM      5  C   UNL     1       2.032   2.942  21.155  0.00  0.00    +0.000 C 
ATOM      6  F   UNL     1       1.658   1.879  21.909  0.00  0.00    +0.000 F 
ATOM      7  F   UNL     1       2.030   4.018  21.986  0.00  0.00    +0.000 F 
ATOM      8  C   UNL     1       3.422   2.725  20.615  0.00  0.00    +0.000 C 
ATOM      9  C   UNL     1       3.833   3.926  19.776  0.00  0.00    +0.000 C 
ENDBRANCH   1   2
BRANCH   1  10
ATOM     10  C   UNL     1       4.349   5.081  16.872  0.00  0.00    +0.000 A 
ATOM     11  C   UNL     1       4.684   3.769  16.513  0.00  0.00    +0.000 A 
ATOM     12  C   UNL     1       5.589   3.533  15.479  0.00  0.00    +0.000 A 
ATOM     13  C   UNL     1       6.152   4.616  14.813  0.00  0.00    +0.000 A 
ATOM     14  N   UNL     1       5.889   5.900  15.171  0.00  0.00    +0.000 NA
ATOM     15  C   UNL     1       5.003   6.098  16.181  0.00  0.00    +0.000 A 
BRANCH  13  16
ATOM     16  C   UNL     1       7.027   4.360  13.604  0.00  0.00    +0.000 C 
ATOM     17  F   UNL     1       6.329   3.874  12.535  0.00  0.00    +0.000 F 
ATOM     18  F   UNL     1       7.630   5.500  13.151  0.00  0.00    +0.000 F 
ENDBRANCH  13  16
ENDBRANCH   1  10
BRANCH   1  19
ATOM     19  C   UNL     1       3.593   6.697  18.759  0.00  0.00    +0.000 C 
BRANCH  19  22
ATOM     20  O   UNL     1       2.766   9.008  17.376  0.00  0.00    +0.000 OA
ATOM     21  C   UNL     1       2.124   8.636  18.357  0.00  0.00    +0.000 C 
ATOM     22  N   UNL     1       2.456   7.530  19.094  0.00  0.00    +0.000 N 
ATOM     23  H   UNL     1       1.845   7.226  19.844  0.00  0.00    +0.000 HD
BRANCH  21  24
ATOM     24  C   UNL     1       0.877   9.356  18.753  0.00  0.00    +0.000 A 
ATOM     25  C   UNL     1       0.057   9.781  17.692  0.00  0.00    +0.000 A 
ATOM     26  C   UNL     1      -1.158  10.415  17.952  0.00  0.00    +0.000 A 
ATOM     27  C   UNL     1      -1.564  10.634  19.263  0.00  0.00    +0.000 A 
ATOM     28  C   UNL     1      -0.744  10.234  20.323  0.00  0.00    +0.000 A 
ATOM     29  C   UNL     1       0.480   9.602  20.072  0.00  0.00    +0.000 A 
ATOM     30 CL   UNL     1       1.425   9.206  21.465  0.00  0.00    +0.000 Cl
ENDBRANCH  21  24
ENDBRANCH  19  22
ENDBRANCH   1  19
TORSDOF 6
ENDMDL
MODEL 3
REMARK VINA RESULT:      -8.3      1.525      1.759
REMARK  Name = 
REMARK  6 active torsions:
REMARK  status: ('A' for Active; 'I' for Inactive)
REMARK    1  A    between atoms: C_2  and  C_23
REMARK    2  A    between atoms: N_3  and  C_4
REMARK    3  A    between atoms: C_4  and  C_5
REMARK    4  A    between atoms: C_5  and  C_6
REMARK    5  A    between atoms: C_5  and  N_15
REMARK    6  A    between atoms: C_9  and  C_10
REMARK                            x       y       z     vdW  Elec       q    Type
REMARK                         _______ _______ _______ _____ _____    ______ ____
ROOT
ATOM      1  C   UNL     1       2.901   5.644  18.265  0.00  0.00    +0.000 C 
ENDROOT
BRANCH   1   2
ATOM      2  N   UNL     1       2.550   4.385  19.013  0.00  0.00    +0.000 NA
ATOM      3  C   UNL     1       1.279   4.545  19.749  0.00  0.00    +0.000 C 
ATOM      4  C   UNL     1       0.887   3.319  20.560  0.00  0.00    +0.000 C 
ATOM      5  C   UNL     1       2.037   2.908  21.447  0.00  0.00    +0.000 C 
ATOM      6  F   UNL     1       1.704   1.798  22.152  0.00  0.00    +0.000 F 
ATOM      7  F   UNL     1       2.283   3.882  22.363  0.00  0.00    +0.000 F 
ATOM      8  C   UNL     1       3.283   2.648  20.641  0.00  0.00    +0.000 C 
ATOM      9  C   UNL     1       3.651   3.900  19.859  0.00  0.00    +0.000 C 
ENDBRANCH   1   2
BRANCH   1  10
ATOM     10  C   UNL     1       3.985   5.374  17.219  0.00  0.00    +0.000 A 
ATOM     11  C   UNL     1       4.313   4.095  16.752  0.00  0.00    +0.000 A 
ATOM     12  C   UNL     1       5.215   3.940  15.701  0.00  0.00    +0.000 A 
ATOM     13  C   UNL     1       5.783   5.072  15.125  0.00  0.00    +0.000 A 
ATOM     14  N   UNL     1       5.526   6.324  15.588  0.00  0.00    +0.000 NA
ATOM     15  C   UNL     1       4.643   6.442  16.612  0.00  0.00    +0.000 A 
BRANCH  13  16
ATOM     16  C   UNL     1       6.654   4.912  13.897  0.00  0.00    +0.000 C 
ATOM     17  F   UNL     1       7.967   5.207  14.134  0.00  0.00    +0.000 F 
ATOM     18  F   UNL     1       6.654   3.629  13.425  0.00  0.00    +0.000 F 
ENDBRANCH  13  16
ENDBRANCH   1  10
BRANCH   1  19
ATOM     19  C   UNL     1       3.212   6.870  19.196  0.00  0.00    +0.000 C 
BRANCH  19  22
ATOM     20  O   UNL     1       1.546   7.679  21.319  0.00  0.00    +0.000 OA
ATOM     21  C   UNL     1       1.472   8.269  20.242  0.00  0.00    +0.000 C 
ATOM     22  N   UNL     1       2.236   7.940  19.153  0.00  0.00    +0.000 N 
ATOM     23  H   UNL     1       2.188   8.510  18.317  0.00  0.00    +0.000 HD
BRANCH  21  24
ATOM     24  C   UNL     1       0.569   9.450  20.095  0.00  0.00    +0.000 A 
ATOM     25  C   UNL     1       0.362   9.897  18.778  0.00  0.00    +0.000 A 
ATOM     26  C   UNL     1      -0.506  10.960  18.524  0.00  0.00    +0.000 A 
ATOM     27  C   UNL     1      -1.169  11.585  19.573  0.00  0.00    +0.000 A 
ATOM     28  C   UNL     1      -0.951  11.160  20.887  0.00  0.00    +0.000 A 
ATOM     29  C   UNL     1      -0.077  10.098  21.153  0.00  0.00    +0.000 A 
ATOM     30 CL   UNL     1       0.146   9.704  22.822  0.00  0.00    +0.000 Cl
ENDBRANCH  21  24
ENDBRANCH  19  22
ENDBRANCH   1  19
TORSDOF 6
ENDMDL
MODEL 4
REMARK VINA RESULT:      -8.3      1.038      1.487
REMARK  Name = 
REMARK  6 active torsions:
REMARK  status: ('A' for Active; 'I' for Inactive)
REMARK    1  A    between atoms: C_2  and  C_23
REMARK    2  A    between atoms: N_3  and  C_4
REMARK    3  A    between atoms: C_4  and  C_5
REMARK    4  A    between atoms: C_5  and  C_6
REMARK    5  A    between atoms: C_5  and  N_15
REMARK    6  A    between atoms: C_9  and  C_10
REMARK                            x       y       z     vdW  Elec       q    Type
REMARK                         _______ _______ _______ _____ _____    ______ ____
ROOT
ATOM      1  C   UNL     1       2.394   6.208  18.302  0.00  0.00    +0.000 C 
ENDROOT
BRANCH   1   2
ATOM      2  N   UNL     1       1.867   5.263  19.350  0.00  0.00    +0.000 NA
ATOM      3  C   UNL     1       2.870   5.039  20.412  0.00  0.00    +0.000 C 
ATOM      4  C   UNL     1       2.414   4.060  21.483  0.00  0.00    +0.000 C 
ATOM      5  C   UNL     1       1.944   2.782  20.834  0.00  0.00    +0.000 C 
ATOM      6  F   UNL     1       1.509   1.915  21.782  0.00  0.00    +0.000 F 
ATOM      7  F   UNL     1       2.986   2.171  20.209  0.00  0.00    +0.000 F 
ATOM      8  C   UNL     1       0.844   3.045  19.838  0.00  0.00    +0.000 C 
ATOM      9  C   UNL     1       1.344   4.014  18.777  0.00  0.00    +0.000 C 
ENDBRANCH   1   2
BRANCH   1  10
ATOM     10  C   UNL     1       3.571   5.586  17.547  0.00  0.00    +0.000 A 
ATOM     11  C   UNL     1       3.720   4.209  17.338  0.00  0.00    +0.000 A 
ATOM     12  C   UNL     1       4.744   3.727  16.525  0.00  0.00    +0.000 A 
ATOM     13  C   UNL     1       5.614   4.633  15.926  0.00  0.00    +0.000 A 
ATOM     14  N   UNL     1       5.529   5.971  16.150  0.00  0.00    +0.000 NA
ATOM     15  C   UNL     1       4.521   6.409  16.946  0.00  0.00    +0.000 A 
BRANCH  13  16
ATOM     16  C   UNL     1       6.639   4.121  14.937  0.00  0.00    +0.000 C 
ATOM     17  F   UNL     1       6.085   3.719  13.755  0.00  0.00    +0.000 F 
ATOM     18  F   UNL     1       7.553   5.079  14.597  0.00  0.00    +0.000 F 
ENDBRANCH  13  16
ENDBRANCH   1  10
BRANCH   1  19
ATOM     19  C   UNL     1       2.681   7.656  18.838  0.00  0.00    +0.000 C 
BRANCH  19  22
ATOM     20  O   UNL     1       2.081   9.994  17.386  0.00  0.00    +0.000 OA
ATOM     21  C   UNL     1       1.299   9.612  18.255  0.00  0.00    +0.000 C 
ATOM     22  N   UNL     1       1.512   8.492  19.015  0.00  0.00    +0.000 N 
ATOM     23  H   UNL     1       0.795   8.181  19.661  0.00  0.00    +0.000 HD
BRANCH  21  24
ATOM     24  C   UNL     1       0.010  10.335  18.474  0.00  0.00    +0.000 A 
ATOM     25  C   UNL     1      -1.058   9.938  17.649  0.00  0.00    +0.000 A 
ATOM     26  C   UNL     1      -2.320  10.512  17.807  0.00  0.00    +0.000 A 
ATOM     27  C   UNL     1      -2.528  11.483  18.780  0.00  0.00    +0.000 A 
ATOM     28  C   UNL     1      -1.465  11.898  19.588  0.00  0.00    +0.000 A 
ATOM     29  C   UNL     1      -0.194  11.333  19.433  0.00  0.00    +0.000 A 
ATOM     30 CL   UNL     1       1.046  11.970  20.457  0.00  0.00    +0.000 Cl
ENDBRANCH  21  24
ENDBRANCH  19  22
ENDBRANCH   1  19
TORSDOF 6
ENDMDL
MODEL 5
REMARK VINA RESULT:      -8.3      2.005      2.507
REMARK  Name = 
REMARK  6 active torsions:
REMARK  status: ('A' for Active; 'I' for Inactive)
REMARK    1  A    between atoms: C_2  and  C_23
REMARK    2  A    between atoms: N_3  and  C_4
REMARK    3  A    between atoms: C_4  and  C_5
REMARK    4  A    between atoms: C_5  and  C_6
REMARK    5  A    between atoms: C_5  and  N_15
REMARK    6  A    between atoms: C_9  and  C_10
REMARK                            x       y       z     vdW  Elec       q    Type
REMARK                         _______ _______ _______ _____ _____    ______ ____
ROOT
ATOM      1  C   UNL     1       4.043   5.170  17.144  0.00  0.00    +0.000 C 
ENDROOT
BRANCH   1   2
ATOM      2  N   UNL     1       3.478   3.849  17.597  0.00  0.00    +0.000 NA
ATOM      3  C   UNL     1       2.006   3.915  17.709  0.00  0.00    +0.000 C 
ATOM      4  C   UNL     1       1.375   2.622  18.203  0.00  0.00    +0.000 C 
ATOM      5  C   UNL     1       2.046   2.186  19.482  0.00  0.00    +0.000 C 
ATOM      6  F   UNL     1       1.507   1.019  19.913  0.00  0.00    +0.000 F 
ATOM      7  F   UNL     1       1.809   3.100  20.461  0.00  0.00    +0.000 F 
ATOM      8  C   UNL     1       3.533   2.025  19.292  0.00  0.00    +0.000 C 
ATOM      9  C   UNL     1       4.127   3.341  18.815  0.00  0.00    +0.000 C 
ENDBRANCH   1   2
BRANCH   1  10
ATOM     10  C   UNL     1       5.124   4.964  16.080  0.00  0.00    +0.000 A 
ATOM     11  C   UNL     1       4.961   4.150  14.953  0.00  0.00    +0.000 A 
ATOM     12  C   UNL     1       5.938   4.120  13.959  0.00  0.00    +0.000 A 
ATOM     13  C   UNL     1       7.074   4.909  14.104  0.00  0.00    +0.000 A 
ATOM     14  N   UNL     1       7.288   5.671  15.210  0.00  0.00    +0.000 NA
ATOM     15  C   UNL     1       6.318   5.679  16.160  0.00  0.00    +0.000 A 
BRANCH  13  16
ATOM     16  C   UNL     1       8.068   4.982  12.965  0.00  0.00    +0.000 C 
ATOM     17  F   UNL     1       7.538   4.590  11.769  0.00  0.00    +0.000 F 
ATOM     18  F   UNL     1       8.525   6.253  12.755  0.00  0.00    +0.000 F 
ENDBRANCH  13  16
ENDBRANCH   1  10
BRANCH   1  19
ATOM     19  C   UNL     1       4.485   6.110  18.321  0.00  0.00    +0.000 C 
BRANCH  19  22
ATOM     20  O   UNL     1       2.491   5.864  20.296  0.00  0.00    +0.000 OA
ATOM     21  C   UNL     1       2.590   6.920  19.674  0.00  0.00    +0.000 C 
ATOM     22  N   UNL     1       3.523   7.127  18.692  0.00  0.00    +0.000 N 
ATOM     23  H   UNL     1       3.609   8.044  18.268  0.00  0.00    +0.000 HD
BRANCH  21  24
ATOM     24  C   UNL     1       1.716   8.081  20.024  0.00  0.00    +0.000 A 
ATOM     25  C   UNL     1       1.304   8.149  21.366  0.00  0.00    +0.000 A 
ATOM     26  C   UNL     1       0.530   9.221  21.811  0.00  0.00    +0.000 A 
ATOM     27  C   UNL     1       0.159  10.228  20.928  0.00  0.00    +0.000 A 
ATOM     28  C   UNL     1       0.546  10.155  19.586  0.00  0.00    +0.000 A 
ATOM     29  C   UNL     1       1.318   9.080  19.129  0.00  0.00    +0.000 A 
ATOM     30 CL   UNL     1       1.686   9.080  17.439  0.00  0.00    +0.000 Cl
ENDBRANCH  21  24
ENDBRANCH  19  22
ENDBRANCH   1  19
TORSDOF 6
ENDMDL
MODEL 6
REMARK VINA RESULT:      -8.2      1.717      2.388
REMARK  Name = 
REMARK  6 active torsions:
REMARK  status: ('A' for Active; 'I' for Inactive)
REMARK    1  A    between atoms: C_2  and  C_23
REMARK    2  A    between atoms: N_3  and  C_4
REMARK    3  A    between atoms: C_4  and  C_5
REMARK    4  A    between atoms: C_5  and  C_6
REMARK    5  A    between atoms: C_5  and  N_15
REMARK    6  A    between atoms: C_9  and  C_10
REMARK                            x       y       z     vdW  Elec       q    Type
REMARK                         _______ _______ _______ _____ _____    ______ ____
ROOT
ATOM      1  C   UNL     1       2.433   6.269  18.051  0.00  0.00    +0.000 C 
ENDROOT
BRANCH   1   2
ATOM      2  N   UNL     1       2.020   5.439  19.237  0.00  0.00    +0.000 NA
ATOM      3  C   UNL     1       3.185   5.114  20.086  0.00  0.00    +0.000 C 
ATOM      4  C   UNL     1       2.841   4.240  21.283  0.00  0.00    +0.000 C 
ATOM      5  C   UNL     1       2.087   3.018  20.820  0.00  0.00    +0.000 C 
ATOM      6  F   UNL     1       1.753   2.249  21.886  0.00  0.00    +0.000 F 
ATOM      7  F   UNL     1       2.891   2.252  20.034  0.00  0.00    +0.000 F 
ATOM      8  C   UNL     1       0.847   3.398  20.053  0.00  0.00    +0.000 C 
ATOM      9  C   UNL     1       1.234   4.255  18.857  0.00  0.00    +0.000 C 
ENDBRANCH   1   2
BRANCH   1  10
ATOM     10  C   UNL     1       3.676   5.681  17.379  0.00  0.00    +0.000 A 
ATOM     11  C   UNL     1       3.826   4.323  17.073  0.00  0.00    +0.000 A 
ATOM     12  C   UNL     1       4.926   3.884  16.340  0.00  0.00    +0.000 A 
ATOM     13  C   UNL     1       5.871   4.813  15.916  0.00  0.00    +0.000 A 
ATOM     14  N   UNL     1       5.783   6.131  16.240  0.00  0.00    +0.000 NA
ATOM     15  C   UNL     1       4.700   6.527  16.956  0.00  0.00    +0.000 A 
BRANCH  13  16
ATOM     16  C   UNL     1       6.991   4.359  15.005  0.00  0.00    +0.000 C 
ATOM     17  F   UNL     1       6.577   3.472  14.053  0.00  0.00    +0.000 F 
ATOM     18  F   UNL     1       7.548   5.397  14.311  0.00  0.00    +0.000 F 
ENDBRANCH  13  16
ENDBRANCH   1  10
BRANCH   1  19
ATOM     19  C   UNL     1       2.547   7.805  18.359  0.00  0.00    +0.000 C 
BRANCH  19  22
ATOM     20  O   UNL     1       1.412  10.361  18.697  0.00  0.00    +0.000 OA
ATOM     21  C   UNL     1       1.277   9.524  19.587  0.00  0.00    +0.000 C 
ATOM     22  N   UNL     1       1.800   8.260  19.513  0.00  0.00    +0.000 N 
ATOM     23  H   UNL     1       1.590   7.587  20.242  0.00  0.00    +0.000 HD
BRANCH  21  24
ATOM     24  C   UNL     1       0.450   9.838  20.791  0.00  0.00    +0.000 A 
ATOM     25  C   UNL     1       0.740   9.084  21.942  0.00  0.00    +0.000 A 
ATOM     26  C   UNL     1       0.063   9.333  23.136  0.00  0.00    +0.000 A 
ATOM     27  C   UNL     1      -0.906  10.328  23.194  0.00  0.00    +0.000 A 
ATOM     28  C   UNL     1      -1.215  11.067  22.048  0.00  0.00    +0.000 A 
ATOM     29  C   UNL     1      -0.546  10.819  20.843  0.00  0.00    +0.000 A 
ATOM     30 CL   UNL     1      -1.057  11.763  19.487  0.00  0.00    +0.000 Cl
ENDBRANCH  21  24
ENDBRANCH  19  22
ENDBRANCH   1  19
TORSDOF 6
ENDMDL
MODEL 7
REMARK VINA RESULT:      -8.1      1.658      1.932
REMARK  Name = 
REMARK  6 active torsions:
REMARK  status: ('A' for Active; 'I' for Inactive)
REMARK    1  A    between atoms: C_2  and  C_23
REMARK    2  A    between atoms: N_3  and  C_4
REMARK    3  A    between atoms: C_4  and  C_5
REMARK    4  A    between atoms: C_5  and  C_6
REMARK    5  A    between atoms: C_5  and  N_15
REMARK    6  A    between atoms: C_9  and  C_10
REMARK                            x       y       z     vdW  Elec       q    Type
REMARK                         _______ _______ _______ _____ _____    ______ ____
ROOT
ATOM      1  C   UNL     1       2.777   5.596  18.309  0.00  0.00    +0.000 C 
ENDROOT
BRANCH   1   2
ATOM      2  N   UNL     1       2.480   4.320  19.051  0.00  0.00    +0.000 NA
ATOM      3  C   UNL     1       1.218   4.432  19.812  0.00  0.00    +0.000 C 
ATOM      4  C   UNL     1       0.881   3.187  20.618  0.00  0.00    +0.000 C 
ATOM      5  C   UNL     1       2.059   2.806  21.480  0.00  0.00    +0.000 C 
ATOM      6  F   UNL     1       1.775   1.681  22.181  0.00  0.00    +0.000 F 
ATOM      7  F   UNL     1       2.290   3.781  22.401  0.00  0.00    +0.000 F 
ATOM      8  C   UNL     1       3.299   2.595  20.650  0.00  0.00    +0.000 C 
ATOM      9  C   UNL     1       3.611   3.865  19.873  0.00  0.00    +0.000 C 
ENDBRANCH   1   2
BRANCH   1  10
ATOM     10  C   UNL     1       3.800   5.356  17.196  0.00  0.00    +0.000 A 
ATOM     11  C   UNL     1       4.624   6.357  16.668  0.00  0.00    +0.000 A 
ATOM     12  C   UNL     1       5.625   6.035  15.754  0.00  0.00    +0.000 A 
ATOM     13  C   UNL     1       5.792   4.707  15.374  0.00  0.00    +0.000 A 
ATOM     14  N   UNL     1       4.976   3.719  15.827  0.00  0.00    +0.000 NA
ATOM     15  C   UNL     1       4.011   4.064  16.717  0.00  0.00    +0.000 A 
BRANCH  13  16
ATOM     16  C   UNL     1       6.964   4.338  14.489  0.00  0.00    +0.000 C 
ATOM     17  F   UNL     1       6.584   3.710  13.338  0.00  0.00    +0.000 F 
ATOM     18  F   UNL     1       7.672   5.434  14.083  0.00  0.00    +0.000 F 
ENDBRANCH  13  16
ENDBRANCH   1  10
BRANCH   1  19
ATOM     19  C   UNL     1       3.132   6.807  19.243  0.00  0.00    +0.000 C 
BRANCH  19  22
ATOM     20  O   UNL     1       1.484   7.646  21.369  0.00  0.00    +0.000 OA
ATOM     21  C   UNL     1       1.434   8.250  20.299  0.00  0.00    +0.000 C 
ATOM     22  N   UNL     1       2.192   7.909  19.210  0.00  0.00    +0.000 N 
ATOM     23  H   UNL     1       2.167   8.491  18.380  0.00  0.00    +0.000 HD
BRANCH  21  24
ATOM     24  C   UNL     1       0.571   9.461  20.162  0.00  0.00    +0.000 A 
ATOM     25  C   UNL     1       0.400   9.942  18.852  0.00  0.00    +0.000 A 
ATOM     26  C   UNL     1      -0.430  11.037  18.606  0.00  0.00    +0.000 A 
ATOM     27  C   UNL     1      -1.090  11.661  19.658  0.00  0.00    +0.000 A 
ATOM     28  C   UNL     1      -0.907  11.203  20.966  0.00  0.00    +0.000 A 
ATOM     29  C   UNL     1      -0.071  10.109  21.223  0.00  0.00    +0.000 A 
ATOM     30 CL   UNL     1       0.113   9.674  22.887  0.00  0.00    +0.000 Cl
ENDBRANCH  21  24
ENDBRANCH  19  22
ENDBRANCH   1  19
TORSDOF 6
ENDMDL
MODEL 8
REMARK VINA RESULT:      -8.0      0.892      1.055
REMARK  Name = 
REMARK  6 active torsions:
REMARK  status: ('A' for Active; 'I' for Inactive)
REMARK    1  A    between atoms: C_2  and  C_23
REMARK    2  A    between atoms: N_3  and  C_4
REMARK    3  A    between atoms: C_4  and  C_5
REMARK    4  A    between atoms: C_5  and  C_6
REMARK    5  A    between atoms: C_5  and  N_15
REMARK    6  A    between atoms: C_9  and  C_10
REMARK                            x       y       z     vdW  Elec       q    Type
REMARK                         _______ _______ _______ _____ _____    ______ ____
ROOT
ATOM      1  C   UNL     1       2.994   6.045  17.891  0.00  0.00    +0.000 C 
ENDROOT
BRANCH   1   2
ATOM      2  N   UNL     1       2.814   4.956  18.915  0.00  0.00    +0.000 NA
ATOM      3  C   UNL     1       1.808   3.970  18.469  0.00  0.00    +0.000 C 
ATOM      4  C   UNL     1       1.549   2.863  19.479  0.00  0.00    +0.000 C 
ATOM      5  C   UNL     1       1.229   3.468  20.824  0.00  0.00    +0.000 C 
ATOM      6  F   UNL     1       1.025   2.486  21.736  0.00  0.00    +0.000 F 
ATOM      7  F   UNL     1       0.063   4.166  20.749  0.00  0.00    +0.000 F 
ATOM      8  C   UNL     1       2.333   4.381  21.291  0.00  0.00    +0.000 C 
ATOM      9  C   UNL     1       2.549   5.482  20.263  0.00  0.00    +0.000 C 
ENDBRANCH   1   2
BRANCH   1  10
ATOM     10  C   UNL     1       4.114   5.692  16.909  0.00  0.00    +0.000 A 
ATOM     11  C   UNL     1       4.509   4.380  16.619  0.00  0.00    +0.000 A 
ATOM     12  C   UNL     1       5.442   4.132  15.614  0.00  0.00    +0.000 A 
ATOM     13  C   UNL     1       5.973   5.205  14.906  0.00  0.00    +0.000 A 
ATOM     14  N   UNL     1       5.651   6.493  15.197  0.00  0.00    +0.000 NA
ATOM     15  C   UNL     1       4.739   6.702  16.181  0.00  0.00    +0.000 A 
BRANCH  13  16
ATOM     16  C   UNL     1       6.881   4.928  13.726  0.00  0.00    +0.000 C 
ATOM     17  F   UNL     1       8.170   5.322  13.941  0.00  0.00    +0.000 F 
ATOM     18  F   UNL     1       6.957   3.595  13.432  0.00  0.00    +0.000 F 
ENDBRANCH  13  16
ENDBRANCH   1  10
BRANCH   1  19
ATOM     19  C   UNL     1       3.124   7.483  18.508  0.00  0.00    +0.000 C 
BRANCH  19  22
ATOM     20  O   UNL     1       1.511   8.869  20.355  0.00  0.00    +0.000 OA
ATOM     21  C   UNL     1       1.316   9.031  19.152  0.00  0.00    +0.000 C 
ATOM     22  N   UNL     1       2.045   8.393  18.183  0.00  0.00    +0.000 N 
ATOM     23  H   UNL     1       1.893   8.625  17.208  0.00  0.00    +0.000 HD
BRANCH  21  24
ATOM     24  C   UNL     1       0.293  10.013  18.684  0.00  0.00    +0.000 A 
ATOM     25  C   UNL     1      -0.657   9.516  17.773  0.00  0.00    +0.000 A 
ATOM     26  C   UNL     1      -1.688  10.336  17.314  0.00  0.00    +0.000 A 
ATOM     27  C   UNL     1      -1.781  11.651  17.753  0.00  0.00    +0.000 A 
ATOM     28  C   UNL     1      -0.828  12.159  18.640  0.00  0.00    +0.000 A 
ATOM     29  C   UNL     1       0.215  11.346  19.102  0.00  0.00    +0.000 A 
ATOM     30 CL   UNL     1       1.358  12.108  20.153  0.00  0.00    +0.000 Cl
ENDBRANCH  21  24
ENDBRANCH  19  22
ENDBRANCH   1  19
TORSDOF 6
ENDMDL
MODEL 9
REMARK VINA RESULT:      -7.9      3.804      7.249
REMARK  Name = 
REMARK  6 active torsions:
REMARK  status: ('A' for Active; 'I' for Inactive)
REMARK    1  A    between atoms: C_2  and  C_23
REMARK    2  A    between atoms: N_3  and  C_4
REMARK    3  A    between atoms: C_4  and  C_5
REMARK    4  A    between atoms: C_5  and  C_6
REMARK    5  A    between atoms: C_5  and  N_15
REMARK    6  A    between atoms: C_9  and  C_10
REMARK                            x       y       z     vdW  Elec       q    Type
REMARK                         _______ _______ _______ _____ _____    ______ ____
ROOT
ATOM      1  C   UNL     1       4.253   5.763  18.757  0.00  0.00    +0.000 C 
ENDROOT
BRANCH   1   2
ATOM      2  N   UNL     1       3.482   4.508  18.440  0.00  0.00    +0.000 NA
ATOM      3  C   UNL     1       2.145   4.832  17.900  0.00  0.00    +0.000 C 
ATOM      4  C   UNL     1       1.298   3.605  17.597  0.00  0.00    +0.000 C 
ATOM      5  C   UNL     1       1.245   2.712  18.812  0.00  0.00    +0.000 C 
ATOM      6  F   UNL     1       0.515   1.603  18.539  0.00  0.00    +0.000 F 
ATOM      7  F   UNL     1       0.602   3.352  19.826  0.00  0.00    +0.000 F 
ATOM      8  C   UNL     1       2.628   2.318  19.262  0.00  0.00    +0.000 C 
ATOM      9  C   UNL     1       3.436   3.569  19.571  0.00  0.00    +0.000 C 
ENDBRANCH   1   2
BRANCH   1  10
ATOM     10  C   UNL     1       3.334   6.986  18.746  0.00  0.00    +0.000 A 
ATOM     11  C   UNL     1       3.196   7.846  17.649  0.00  0.00    +0.000 A 
ATOM     12  C   UNL     1       2.239   8.859  17.664  0.00  0.00    +0.000 A 
ATOM     13  C   UNL     1       1.424   9.002  18.783  0.00  0.00    +0.000 A 
ATOM     14  N   UNL     1       1.567   8.219  19.885  0.00  0.00    +0.000 NA
ATOM     15  C   UNL     1       2.508   7.241  19.839  0.00  0.00    +0.000 A 
BRANCH  13  16
ATOM     16  C   UNL     1       0.296  10.011  18.745  0.00  0.00    +0.000 C 
ATOM     17  F   UNL     1       0.737  11.303  18.726  0.00  0.00    +0.000 F 
ATOM     18  F   UNL     1      -0.479   9.880  17.626  0.00  0.00    +0.000 F 
ENDBRANCH  13  16
ENDBRANCH   1  10
BRANCH   1  19
ATOM     19  C   UNL     1       5.555   5.943  17.897  0.00  0.00    +0.000 C 
BRANCH  19  22
ATOM     20  O   UNL     1       7.579   6.091  15.943  0.00  0.00    +0.000 OA
ATOM     21  C   UNL     1       6.542   5.482  15.686  0.00  0.00    +0.000 C 
ATOM     22  N   UNL     1       5.503   5.364  16.571  0.00  0.00    +0.000 N 
ATOM     23  H   UNL     1       4.706   4.784  16.333  0.00  0.00    +0.000 HD
BRANCH  21  24
ATOM     24  C   UNL     1       6.400   4.762  14.385  0.00  0.00    +0.000 A 
ATOM     25  C   UNL     1       5.269   3.935  14.267  0.00  0.00    +0.000 A 
ATOM     26  C   UNL     1       5.012   3.259  13.074  0.00  0.00    +0.000 A 
ATOM     27  C   UNL     1       5.876   3.398  11.994  0.00  0.00    +0.000 A 
ATOM     28  C   UNL     1       7.014   4.201  12.111  0.00  0.00    +0.000 A 
ATOM     29  C   UNL     1       7.284   4.878  13.306  0.00  0.00    +0.000 A 
ATOM     30 CL   UNL     1       8.750   5.795  13.340  0.00  0.00    +0.000 Cl
ENDBRANCH  21  24
ENDBRANCH  19  22
ENDBRANCH   1  19
TORSDOF 6
ENDMDL
