MODEL 1
REMARK VINA RESULT:      -7.8      0.000      0.000
REMARK  Name = 
REMARK  7 active torsions:
REMARK  status: ('A' for Active; 'I' for Inactive)
REMARK    1  A    between atoms: C_1  and  C_2
REMARK    2  A    between atoms: C_2  and  O_3
REMARK    3  A    between atoms: O_3  and  C_4
REMARK    4  A    between atoms: C_9  and  N_10
REMARK    5  A    between atoms: C_11  and  C_13
REMARK    6  A    between atoms: C_13  and  O_14
REMARK    7  A    between atoms: O_14  and  C_15
REMARK                            x       y       z     vdW  Elec       q    Type
REMARK                         _______ _______ _______ _____ _____    ______ ____
ROOT
ATOM      1  N   UNL     1       6.730   7.441  16.958  0.00  0.00    +0.000 N 
ATOM      2  C   UNL     1       7.720   7.592  17.921  0.00  0.00    +0.000 C 
ATOM      3  O   UNL     1       8.104   6.737  18.709  0.00  0.00    +0.000 OA
ATOM      4  H   UNL     1       6.219   8.297  16.771  0.00  0.00    +0.000 HD
ENDROOT
BRANCH   1  10
ATOM      5  C   UNL     1       6.344   5.214  15.938  0.00  0.00    +0.000 A 
ATOM      6  C   UNL     1       5.562   4.050  15.920  0.00  0.00    +0.000 A 
ATOM      7  C   UNL     1       4.424   3.943  16.722  0.00  0.00    +0.000 A 
ATOM      8  C   UNL     1       4.057   4.990  17.559  0.00  0.00    +0.000 A 
ATOM      9  C   UNL     1       4.840   6.141  17.610  0.00  0.00    +0.000 A 
ATOM     10  C   UNL     1       5.998   6.244  16.834  0.00  0.00    +0.000 A 
BRANCH   5  11
ATOM     11  O   UNL     1       7.393   5.435  15.086  0.00  0.00    +0.000 OA
BRANCH  11  13
ATOM     12  C   UNL     1       8.195   5.594  12.831  0.00  0.00    +0.000 C 
ATOM     13  C   UNL     1       7.274   4.852  13.782  0.00  0.00    +0.000 C 
ENDBRANCH  11  13
ENDBRANCH   5  11
ENDBRANCH   1  10
BRANCH   2  14
ATOM     14  C   UNL     1       8.283   9.013  17.929  0.00  0.00    +0.000 C 
BRANCH  14  15
ATOM     15  O   UNL     1       8.978   9.330  19.139  0.00  0.00    +0.000 OA
BRANCH  15  16
ATOM     16  C   UNL     1       9.577  10.571  19.131  0.00  0.00    +0.000 A 
ATOM     17  C   UNL     1       9.894  11.128  20.389  0.00  0.00    +0.000 A 
ATOM     18  C   UNL     1      10.647  12.310  20.485  0.00  0.00    +0.000 A 
ATOM     19  C   UNL     1      11.086  12.873  19.309  0.00  0.00    +0.000 A 
ATOM     20  C   UNL     1      10.716  12.367  18.085  0.00  0.00    +0.000 A 
ATOM     21  C   UNL     1       9.923  11.251  17.961  0.00  0.00    +0.000 A 
ATOM     22  O   UNL     1      11.308  13.026  17.050  0.00  0.00    +0.000 OA
ATOM     23  C   UNL     1      12.326  13.731  17.787  0.00  0.00    +0.000 C 
ATOM     24  O   UNL     1      11.974  13.899  19.178  0.00  0.00    +0.000 OA
ENDBRANCH  15  16
ENDBRANCH  14  15
ENDBRANCH   2  14
TORSDOF 6
ENDMDL
MODEL 2
REMARK VINA RESULT:      -7.6      1.220      2.577
REMARK  Name = 
REMARK  7 active torsions:
REMARK  status: ('A' for Active; 'I' for Inactive)
REMARK    1  A    between atoms: C_1  and  C_2
REMARK    2  A    between atoms: C_2  and  O_3
REMARK    3  A    between atoms: O_3  and  C_4
REMARK    4  A    between atoms: C_9  and  N_10
REMARK    5  A    between atoms: C_11  and  C_13
REMARK    6  A    between atoms: C_13  and  O_14
REMARK    7  A    between atoms: O_14  and  C_15
REMARK                            x       y       z     vdW  Elec       q    Type
REMARK                         _______ _______ _______ _____ _____    ______ ____
ROOT
ATOM      1  N   UNL     1       6.807   7.476  16.862  0.00  0.00    +0.000 N 
ATOM      2  C   UNL     1       7.733   7.666  17.880  0.00  0.00    +0.000 C 
ATOM      3  O   UNL     1       8.122   6.821  18.677  0.00  0.00    +0.000 OA
ATOM      4  H   UNL     1       6.259   8.305  16.658  0.00  0.00    +0.000 HD
ENDROOT
BRANCH   1  10
ATOM      5  C   UNL     1       4.901   5.941  17.257  0.00  0.00    +0.000 A 
ATOM      6  C   UNL     1       4.321   4.692  16.988  0.00  0.00    +0.000 A 
ATOM      7  C   UNL     1       5.003   3.741  16.224  0.00  0.00    +0.000 A 
ATOM      8  C   UNL     1       6.262   4.027  15.712  0.00  0.00    +0.000 A 
ATOM      9  C   UNL     1       6.838   5.274  15.947  0.00  0.00    +0.000 A 
ATOM     10  C   UNL     1       6.151   6.243  16.683  0.00  0.00    +0.000 A 
BRANCH   5  11
ATOM     11  O   UNL     1       4.346   6.865  18.102  0.00  0.00    +0.000 OA
BRANCH  11  13
ATOM     12  C   UNL     1       2.457   8.315  17.814  0.00  0.00    +0.000 C 
ATOM     13  C   UNL     1       2.914   6.904  18.135  0.00  0.00    +0.000 C 
ENDBRANCH  11  13
ENDBRANCH   5  11
ENDBRANCH   1  10
BRANCH   2  14
ATOM     14  C   UNL     1       8.215   9.116  17.937  0.00  0.00    +0.000 C 
BRANCH  14  15
ATOM     15  O   UNL     1       8.934   9.417  19.137  0.00  0.00    +0.000 OA
BRANCH  15  16
ATOM     16  C   UNL     1       9.560  10.644  19.120  0.00  0.00    +0.000 A 
ATOM     17  C   UNL     1       9.942  11.177  20.370  0.00  0.00    +0.000 A 
ATOM     18  C   UNL     1      10.724  12.341  20.451  0.00  0.00    +0.000 A 
ATOM     19  C   UNL     1      11.127  12.910  19.265  0.00  0.00    +0.000 A 
ATOM     20  C   UNL     1      10.694  12.430  18.051  0.00  0.00    +0.000 A 
ATOM     21  C   UNL     1       9.872  11.333  17.946  0.00  0.00    +0.000 A 
ATOM     22  O   UNL     1      11.258  13.090  17.001  0.00  0.00    +0.000 OA
ATOM     23  C   UNL     1      12.321  13.762  17.704  0.00  0.00    +0.000 C 
ATOM     24  O   UNL     1      12.031  13.918  19.111  0.00  0.00    +0.000 OA
ENDBRANCH  15  16
ENDBRANCH  14  15
ENDBRANCH   2  14
TORSDOF 6
ENDMDL
MODEL 3
REMARK VINA RESULT:      -7.3      4.459      8.119
REMARK  Name = 
REMARK  7 active torsions:
REMARK  status: ('A' for Active; 'I' for Inactive)
REMARK    1  A    between atoms: C_1  and  C_2
REMARK    2  A    between atoms: C_2  and  O_3
REMARK    3  A    between atoms: O_3  and  C_4
REMARK    4  A    between atoms: C_9  and  N_10
REMARK    5  A    between atoms: C_11  and  C_13
REMARK    6  A    between atoms: C_13  and  O_14
REMARK    7  A    between atoms: O_14  and  C_15
REMARK                            x       y       z     vdW  Elec       q    Type
REMARK                         _______ _______ _______ _____ _____    ______ ____
ROOT
ATOM      1  N   UNL     1       2.794   6.610  19.879  0.00  0.00    +0.000 N 
ATOM      2  C   UNL     1       2.473   5.353  19.381  0.00  0.00    +0.000 C 
ATOM      3  O   UNL     1       1.660   5.107  18.499  0.00  0.00    +0.000 OA
ATOM      4  H   UNL     1       3.059   6.596  20.859  0.00  0.00    +0.000 HD
ENDROOT
BRANCH   1  10
ATOM      5  C   UNL     1       1.336   8.576  20.269  0.00  0.00    +0.000 A 
ATOM      6  C   UNL     1       0.749   9.730  19.729  0.00  0.00    +0.000 A 
ATOM      7  C   UNL     1       0.895  10.034  18.373  0.00  0.00    +0.000 A 
ATOM      8  C   UNL     1       1.635   9.201  17.544  0.00  0.00    +0.000 A 
ATOM      9  C   UNL     1       2.248   8.067  18.073  0.00  0.00    +0.000 A 
ATOM     10  C   UNL     1       2.134   7.771  19.434  0.00  0.00    +0.000 A 
BRANCH   5  11
ATOM     11  O   UNL     1       1.126   8.151  21.554  0.00  0.00    +0.000 OA
BRANCH  11  13
ATOM     12  C   UNL     1      -0.088   9.429  23.182  0.00  0.00    +0.000 C 
ATOM     13  C   UNL     1       1.274   9.147  22.575  0.00  0.00    +0.000 C 
ENDBRANCH  11  13
ENDBRANCH   5  11
ENDBRANCH   1  10
BRANCH   2  14
ATOM     14  C   UNL     1       3.243   4.248  20.104  0.00  0.00    +0.000 C 
BRANCH  14  15
ATOM     15  O   UNL     1       3.973   3.402  19.212  0.00  0.00    +0.000 OA
BRANCH  15  16
ATOM     16  C   UNL     1       4.961   4.053  18.507  0.00  0.00    +0.000 A 
ATOM     17  C   UNL     1       4.897   3.965  17.099  0.00  0.00    +0.000 A 
ATOM     18  C   UNL     1       5.760   4.721  16.288  0.00  0.00    +0.000 A 
ATOM     19  C   UNL     1       6.636   5.571  16.924  0.00  0.00    +0.000 A 
ATOM     20  C   UNL     1       6.743   5.601  18.295  0.00  0.00    +0.000 A 
ATOM     21  C   UNL     1       5.960   4.821  19.111  0.00  0.00    +0.000 A 
ATOM     22  O   UNL     1       7.618   6.553  18.725  0.00  0.00    +0.000 OA
ATOM     23  C   UNL     1       7.746   7.309  17.505  0.00  0.00    +0.000 C 
ATOM     24  O   UNL     1       7.420   6.520  16.339  0.00  0.00    +0.000 OA
ENDBRANCH  15  16
ENDBRANCH  14  15
ENDBRANCH   2  14
TORSDOF 6
ENDMDL
MODEL 4
REMARK VINA RESULT:      -7.3      5.563      8.483
REMARK  Name = 
REMARK  7 active torsions:
REMARK  status: ('A' for Active; 'I' for Inactive)
REMARK    1  A    between atoms: C_1  and  C_2
REMARK    2  A    between atoms: C_2  and  O_3
REMARK    3  A    between atoms: O_3  and  C_4
REMARK    4  A    between atoms: C_9  and  N_10
REMARK    5  A    between atoms: C_11  and  C_13
REMARK    6  A    between atoms: C_13  and  O_14
REMARK    7  A    between atoms: O_14  and  C_15
REMARK                            x       y       z     vdW  Elec       q    Type
REMARK                         _______ _______ _______ _____ _____    ______ ____
ROOT
ATOM      1  N   UNL     1       2.812   6.614  19.893  0.00  0.00    +0.000 N 
ATOM      2  C   UNL     1       2.411   5.355  19.462  0.00  0.00    +0.000 C 
ATOM      3  O   UNL     1       1.535   5.113  18.643  0.00  0.00    +0.000 OA
ATOM      4  H   UNL     1       3.138   6.624  20.854  0.00  0.00    +0.000 HD
ENDROOT
BRANCH   1  10
ATOM      5  C   UNL     1       1.283   8.534  20.244  0.00  0.00    +0.000 A 
ATOM      6  C   UNL     1       0.724   9.704  19.710  0.00  0.00    +0.000 A 
ATOM      7  C   UNL     1       0.986  10.080  18.390  0.00  0.00    +0.000 A 
ATOM      8  C   UNL     1       1.815   9.302  17.592  0.00  0.00    +0.000 A 
ATOM      9  C   UNL     1       2.401   8.153  18.118  0.00  0.00    +0.000 A 
ATOM     10  C   UNL     1       2.171   7.785  19.447  0.00  0.00    +0.000 A 
BRANCH   5  11
ATOM     11  O   UNL     1       0.966   8.041  21.482  0.00  0.00    +0.000 OA
BRANCH  11  13
ATOM     12  C   UNL     1       0.027   9.419  23.205  0.00  0.00    +0.000 C 
ATOM     13  C   UNL     1      -0.274   8.496  22.038  0.00  0.00    +0.000 C 
ENDBRANCH  11  13
ENDBRANCH   5  11
ENDBRANCH   1  10
BRANCH   2  14
ATOM     14  C   UNL     1       3.181   4.245  20.177  0.00  0.00    +0.000 C 
BRANCH  14  15
ATOM     15  O   UNL     1       3.905   3.401  19.277  0.00  0.00    +0.000 OA
BRANCH  15  16
ATOM     16  C   UNL     1       4.702   4.088  18.387  0.00  0.00    +0.000 A 
ATOM     17  C   UNL     1       5.803   4.785  18.930  0.00  0.00    +0.000 A 
ATOM     18  C   UNL     1       6.763   5.382  18.096  0.00  0.00    +0.000 A 
ATOM     19  C   UNL     1       6.601   5.224  16.739  0.00  0.00    +0.000 A 
ATOM     20  C   UNL     1       5.491   4.604  16.212  0.00  0.00    +0.000 A 
ATOM     21  C   UNL     1       4.502   4.073  17.004  0.00  0.00    +0.000 A 
ATOM     22  O   UNL     1       5.555   4.493  14.856  0.00  0.00    +0.000 OA
ATOM     23  C   UNL     1       6.954   4.784  14.672  0.00  0.00    +0.000 C 
ATOM     24  O   UNL     1       7.499   5.552  15.768  0.00  0.00    +0.000 OA
ENDBRANCH  15  16
ENDBRANCH  14  15
ENDBRANCH   2  14
TORSDOF 6
ENDMDL
MODEL 5
REMARK VINA RESULT:      -7.1      1.116      1.208
REMARK  Name = 
REMARK  7 active torsions:
REMARK  status: ('A' for Active; 'I' for Inactive)
REMARK    1  A    between atoms: C_1  and  C_2
REMARK    2  A    between atoms: C_2  and  O_3
REMARK    3  A    between atoms: O_3  and  C_4
REMARK    4  A    between atoms: C_9  and  N_10
REMARK    5  A    between atoms: C_11  and  C_13
REMARK    6  A    between atoms: C_13  and  O_14
REMARK    7  A    between atoms: O_14  and  C_15
REMARK                            x       y       z     vdW  Elec       q    Type
REMARK                         _______ _______ _______ _____ _____    ______ ____
ROOT
ATOM      1  N   UNL     1       6.007   7.221  17.249  0.00  0.00    +0.000 N 
ATOM      2  C   UNL     1       7.261   7.194  17.848  0.00  0.00    +0.000 C 
ATOM      3  O   UNL     1       7.757   6.252  18.452  0.00  0.00    +0.000 OA
ATOM      4  H   UNL     1       5.580   8.142  17.255  0.00  0.00    +0.000 HD
ENDROOT
BRANCH   1  10
ATOM      5  C   UNL     1       5.133   5.048  16.438  0.00  0.00    +0.000 A 
ATOM      6  C   UNL     1       4.228   3.996  16.640  0.00  0.00    +0.000 A 
ATOM      7  C   UNL     1       3.288   4.054  17.672  0.00  0.00    +0.000 A 
ATOM      8  C   UNL     1       3.247   5.154  18.520  0.00  0.00    +0.000 A 
ATOM      9  C   UNL     1       4.159   6.193  18.350  0.00  0.00    +0.000 A 
ATOM     10  C   UNL     1       5.123   6.130  17.340  0.00  0.00    +0.000 A 
BRANCH   5  11
ATOM     11  O   UNL     1       5.990   5.114  15.372  0.00  0.00    +0.000 OA
BRANCH  11  13
ATOM     12  C   UNL     1       6.344   3.941  13.309  0.00  0.00    +0.000 C 
ATOM     13  C   UNL     1       6.405   3.856  14.823  0.00  0.00    +0.000 C 
ENDBRANCH  11  13
ENDBRANCH   5  11
ENDBRANCH   1  10
BRANCH   2  14
ATOM     14  C   UNL     1       7.980   8.536  17.707  0.00  0.00    +0.000 C 
BRANCH  14  15
ATOM     15  O   UNL     1       8.879   8.802  18.787  0.00  0.00    +0.000 OA
BRANCH  15  16
ATOM     16  C   UNL     1       9.145  10.141  18.976  0.00  0.00    +0.000 A 
ATOM     17  C   UNL     1       9.339  10.566  20.308  0.00  0.00    +0.000 A 
ATOM     18  C   UNL     1       9.770  11.871  20.594  0.00  0.00    +0.000 A 
ATOM     19  C   UNL     1      10.028  12.697  19.523  0.00  0.00    +0.000 A 
ATOM     20  C   UNL     1       9.771  12.302  18.231  0.00  0.00    +0.000 A 
ATOM     21  C   UNL     1       9.283  11.054  17.927  0.00  0.00    +0.000 A 
ATOM     22  O   UNL     1      10.156  13.237  17.317  0.00  0.00    +0.000 OA
ATOM     23  C   UNL     1      10.978  14.058  18.169  0.00  0.00    +0.000 C 
ATOM     24  O   UNL     1      10.626  13.921  19.563  0.00  0.00    +0.000 OA
ENDBRANCH  15  16
ENDBRANCH  14  15
ENDBRANCH   2  14
TORSDOF 6
ENDMDL
MODEL 6
REMARK VINA RESULT:      -7.1      1.560      3.201
REMARK  Name = 
REMARK  7 active torsions:
REMARK  status: ('A' for Active; 'I' for Inactive)
REMARK    1  A    between atoms: C_1  and  C_2
REMARK    2  A    between atoms: C_2  and  O_3
REMARK    3  A    between atoms: O_3  and  C_4
REMARK    4  A    between atoms: C_9  and  N_10
REMARK    5  A    between atoms: C_11  and  C_13
REMARK    6  A    between atoms: C_13  and  O_14
REMARK    7  A    between atoms: O_14  and  C_15
REMARK                            x       y       z     vdW  Elec       q    Type
REMARK                         _______ _______ _______ _____ _____    ______ ____
ROOT
ATOM      1  N   UNL     1       6.810   7.370  16.802  0.00  0.00    +0.000 N 
ATOM      2  C   UNL     1       7.686   7.546  17.866  0.00  0.00    +0.000 C 
ATOM      3  O   UNL     1       8.059   6.683  18.651  0.00  0.00    +0.000 OA
ATOM      4  H   UNL     1       6.252   8.194  16.602  0.00  0.00    +0.000 HD
ENDROOT
BRANCH   1  10
ATOM      5  C   UNL     1       4.948   5.761  17.100  0.00  0.00    +0.000 A 
ATOM      6  C   UNL     1       4.408   4.512  16.760  0.00  0.00    +0.000 A 
ATOM      7  C   UNL     1       5.122   3.624  15.952  0.00  0.00    +0.000 A 
ATOM      8  C   UNL     1       6.375   3.973  15.466  0.00  0.00    +0.000 A 
ATOM      9  C   UNL     1       6.912   5.222  15.771  0.00  0.00    +0.000 A 
ATOM     10  C   UNL     1       6.192   6.130  16.552  0.00  0.00    +0.000 A 
BRANCH   5  11
ATOM     11  O   UNL     1       4.361   6.622  17.989  0.00  0.00    +0.000 OA
BRANCH  11  13
ATOM     12  C   UNL     1       2.438   7.059  19.354  0.00  0.00    +0.000 C 
ATOM     13  C   UNL     1       3.472   6.027  18.943  0.00  0.00    +0.000 C 
ENDBRANCH  11  13
ENDBRANCH   5  11
ENDBRANCH   1  10
BRANCH   2  14
ATOM     14  C   UNL     1       8.130   9.003  17.994  0.00  0.00    +0.000 C 
BRANCH  14  15
ATOM     15  O   UNL     1       9.026   9.218  19.088  0.00  0.00    +0.000 OA
BRANCH  15  16
ATOM     16  C   UNL     1       9.460  10.521  19.206  0.00  0.00    +0.000 A 
ATOM     17  C   UNL     1       9.650  11.236  18.003  0.00  0.00    +0.000 A 
ATOM     18  C   UNL     1       9.936  12.611  18.019  0.00  0.00    +0.000 A 
ATOM     19  C   UNL     1       9.985  13.229  19.247  0.00  0.00    +0.000 A 
ATOM     20  C   UNL     1       9.869  12.516  20.418  0.00  0.00    +0.000 A 
ATOM     21  C   UNL     1       9.658  11.158  20.433  0.00  0.00    +0.000 A 
ATOM     22  O   UNL     1       9.879  13.320  21.518  0.00  0.00    +0.000 OA
ATOM     23  C   UNL     1       9.657  14.588  20.871  0.00  0.00    +0.000 C 
ATOM     24  O   UNL     1      10.060  14.569  19.483  0.00  0.00    +0.000 OA
ENDBRANCH  15  16
ENDBRANCH  14  15
ENDBRANCH   2  14
TORSDOF 6
ENDMDL
MODEL 7
REMARK VINA RESULT:      -6.9      4.270      7.356
REMARK  Name = 
REMARK  7 active torsions:
REMARK  status: ('A' for Active; 'I' for Inactive)
REMARK    1  A    between atoms: C_1  and  C_2
REMARK    2  A    between atoms: C_2  and  O_3
REMARK    3  A    between atoms: O_3  and  C_4
REMARK    4  A    between atoms: C_9  and  N_10
REMARK    5  A    between atoms: C_11  and  C_13
REMARK    6  A    between atoms: C_13  and  O_14
REMARK    7  A    between atoms: O_14  and  C_15
REMARK                            x       y       z     vdW  Elec       q    Type
REMARK                         _______ _______ _______ _____ _____    ______ ____
ROOT
ATOM      1  N   UNL     1       4.403   5.553  17.634  0.00  0.00    +0.000 N 
ATOM      2  C   UNL     1       4.657   5.191  18.951  0.00  0.00    +0.000 C 
ATOM      3  O   UNL     1       5.647   4.601  19.365  0.00  0.00    +0.000 OA
ATOM      4  H   UNL     1       3.414   5.557  17.404  0.00  0.00    +0.000 HD
ENDROOT
BRANCH   1  10
ATOM      5  C   UNL     1       6.384   5.985  16.209  0.00  0.00    +0.000 A 
ATOM      6  C   UNL     1       7.212   5.523  15.175  0.00  0.00    +0.000 A 
ATOM      7  C   UNL     1       6.905   4.345  14.490  0.00  0.00    +0.000 A 
ATOM      8  C   UNL     1       5.778   3.609  14.834  0.00  0.00    +0.000 A 
ATOM      9  C   UNL     1       4.963   4.040  15.879  0.00  0.00    +0.000 A 
ATOM     10  C   UNL     1       5.279   5.200  16.590  0.00  0.00    +0.000 A 
BRANCH   5  11
ATOM     11  O   UNL     1       6.554   7.193  16.831  0.00  0.00    +0.000 OA
BRANCH  11  13
ATOM     12  C   UNL     1       8.090   8.717  17.868  0.00  0.00    +0.000 C 
ATOM     13  C   UNL     1       7.641   7.270  17.762  0.00  0.00    +0.000 C 
ENDBRANCH  11  13
ENDBRANCH   5  11
ENDBRANCH   1  10
BRANCH   2  14
ATOM     14  C   UNL     1       3.505   5.587  19.875  0.00  0.00    +0.000 C 
BRANCH  14  15
ATOM     15  O   UNL     1       2.338   6.006  19.161  0.00  0.00    +0.000 OA
BRANCH  15  16
ATOM     16  C   UNL     1       2.015   7.332  19.349  0.00  0.00    +0.000 A 
ATOM     17  C   UNL     1       2.072   8.164  18.210  0.00  0.00    +0.000 A 
ATOM     18  C   UNL     1       1.611   9.490  18.261  0.00  0.00    +0.000 A 
ATOM     19  C   UNL     1       1.071   9.923  19.451  0.00  0.00    +0.000 A 
ATOM     20  C   UNL     1       1.081   9.132  20.576  0.00  0.00    +0.000 A 
ATOM     21  C   UNL     1       1.590   7.855  20.573  0.00  0.00    +0.000 A 
ATOM     22  O   UNL     1       0.443   9.719  21.627  0.00  0.00    +0.000 OA
ATOM     23  C   UNL     1      -0.244  10.766  20.916  0.00  0.00    +0.000 C 
ATOM     24  O   UNL     1       0.403  11.091  19.665  0.00  0.00    +0.000 OA
ENDBRANCH  15  16
ENDBRANCH  14  15
ENDBRANCH   2  14
TORSDOF 6
ENDMDL
MODEL 8
REMARK VINA RESULT:      -6.9      7.202     10.385
REMARK  Name = 
REMARK  7 active torsions:
REMARK  status: ('A' for Active; 'I' for Inactive)
REMARK    1  A    between atoms: C_1  and  C_2
REMARK    2  A    between atoms: C_2  and  O_3
REMARK    3  A    between atoms: O_3  and  C_4
REMARK    4  A    between atoms: C_9  and  N_10
REMARK    5  A    between atoms: C_11  and  C_13
REMARK    6  A    between atoms: C_13  and  O_14
REMARK    7  A    between atoms: O_14  and  C_15
REMARK                            x       y       z     vdW  Elec       q    Type
REMARK                         _______ _______ _______ _____ _____    ______ ____
ROOT
ATOM      1  N   UNL     1       0.765   9.394  19.207  0.00  0.00    +0.000 N 
ATOM      2  C   UNL     1       1.809   9.230  18.304  0.00  0.00    +0.000 C 
ATOM      3  O   UNL     1       2.228  10.070  17.519  0.00  0.00    +0.000 OA
ATOM      4  H   UNL     1       0.251   8.537  19.386  0.00  0.00    +0.000 HD
ENDROOT
BRANCH   1  10
ATOM      5  C   UNL     1      -1.107  10.832  18.450  0.00  0.00    +0.000 A 
ATOM      6  C   UNL     1      -1.798  12.041  18.609  0.00  0.00    +0.000 A 
ATOM      7  C   UNL     1      -1.340  13.011  19.504  0.00  0.00    +0.000 A 
ATOM      8  C   UNL     1      -0.196  12.783  20.258  0.00  0.00    +0.000 A 
ATOM      9  C   UNL     1       0.486  11.574  20.132  0.00  0.00    +0.000 A 
ATOM     10  C   UNL     1       0.017  10.585  19.262  0.00  0.00    +0.000 A 
BRANCH   5  11
ATOM     11  O   UNL     1      -1.426   9.897  17.501  0.00  0.00    +0.000 OA
BRANCH  11  13
ATOM     12  C   UNL     1      -2.753  10.089  15.512  0.00  0.00    +0.000 C 
ATOM     13  C   UNL     1      -2.776   9.928  17.021  0.00  0.00    +0.000 C 
ENDBRANCH  11  13
ENDBRANCH   5  11
ENDBRANCH   1  10
BRANCH   2  14
ATOM     14  C   UNL     1       2.383   7.815  18.360  0.00  0.00    +0.000 C 
BRANCH  14  15
ATOM     15  O   UNL     1       2.449   7.293  19.691  0.00  0.00    +0.000 OA
BRANCH  15  16
ATOM     16  C   UNL     1       2.513   5.918  19.749  0.00  0.00    +0.000 A 
ATOM     17  C   UNL     1       1.477   5.266  20.452  0.00  0.00    +0.000 A 
ATOM     18  C   UNL     1       1.363   3.866  20.436  0.00  0.00    +0.000 A 
ATOM     19  C   UNL     1       2.277   3.170  19.679  0.00  0.00    +0.000 A 
ATOM     20  C   UNL     1       3.325   3.803  19.053  0.00  0.00    +0.000 A 
ATOM     21  C   UNL     1       3.501   5.165  19.110  0.00  0.00    +0.000 A 
ATOM     22  O   UNL     1       4.075   2.947  18.304  0.00  0.00    +0.000 OA
ATOM     23  C   UNL     1       3.168   1.828  18.266  0.00  0.00    +0.000 C 
ATOM     24  O   UNL     1       2.239   1.842  19.373  0.00  0.00    +0.000 OA
ENDBRANCH  15  16
ENDBRANCH  14  15
ENDBRANCH   2  14
TORSDOF 6
ENDMDL
MODEL 9
REMARK VINA RESULT:      -6.8      1.273      1.752
REMARK  Name = 
REMARK  7 active torsions:
REMARK  status: ('A' for Active; 'I' for Inactive)
REMARK    1  A    between atoms: C_1  and  C_2
REMARK    2  A    between atoms: C_2  and  O_3
REMARK    3  A    between atoms: O_3  and  C_4
REMARK    4  A    between atoms: C_9  and  N_10
REMARK    5  A    between atoms: C_11  and  C_13
REMARK    6  A    between atoms: C_13  and  O_14
REMARK    7  A    between atoms: O_14  and  C_15
REMARK                            x       y       z     vdW  Elec       q    Type
REMARK                         _______ _______ _______ _____ _____    ______ ____
ROOT
ATOM      1  N   UNL     1       6.219   7.205  17.072  0.00  0.00    +0.000 N 
ATOM      2  C   UNL     1       7.335   7.243  17.900  0.00  0.00    +0.000 C 
ATOM      3  O   UNL     1       7.632   6.421  18.758  0.00  0.00    +0.000 OA
ATOM      4  H   UNL     1       5.876   8.126  16.820  0.00  0.00    +0.000 HD
ENDROOT
BRANCH   1  10
ATOM      5  C   UNL     1       5.432   4.880  16.723  0.00  0.00    +0.000 A 
ATOM      6  C   UNL     1       4.408   3.943  16.923  0.00  0.00    +0.000 A 
ATOM      7  C   UNL     1       3.200   4.325  17.513  0.00  0.00    +0.000 A 
ATOM      8  C   UNL     1       3.003   5.638  17.919  0.00  0.00    +0.000 A 
ATOM      9  C   UNL     1       4.023   6.573  17.753  0.00  0.00    +0.000 A 
ATOM     10  C   UNL     1       5.246   6.195  17.193  0.00  0.00    +0.000 A 
BRANCH   5  11
ATOM     11  O   UNL     1       6.585   4.605  16.037  0.00  0.00    +0.000 OA
BRANCH  11  13
ATOM     12  C   UNL     1       7.013   4.721  13.679  0.00  0.00    +0.000 C 
ATOM     13  C   UNL     1       6.425   3.890  14.805  0.00  0.00    +0.000 C 
ENDBRANCH  11  13
ENDBRANCH   5  11
ENDBRANCH   1  10
BRANCH   2  14
ATOM     14  C   UNL     1       8.176   8.495  17.652  0.00  0.00    +0.000 C 
BRANCH  14  15
ATOM     15  O   UNL     1       8.710   9.054  18.855  0.00  0.00    +0.000 OA
BRANCH  15  16
ATOM     16  C   UNL     1       9.139  10.357  18.723  0.00  0.00    +0.000 A 
ATOM     17  C   UNL     1       8.451  11.157  17.785  0.00  0.00    +0.000 A 
ATOM     18  C   UNL     1       8.704  12.536  17.689  0.00  0.00    +0.000 A 
ATOM     19  C   UNL     1       9.617  13.070  18.569  0.00  0.00    +0.000 A 
ATOM     20  C   UNL     1      10.336  12.276  19.433  0.00  0.00    +0.000 A 
ATOM     21  C   UNL     1      10.158  10.915  19.499  0.00  0.00    +0.000 A 
ATOM     22  O   UNL     1      11.136  13.004  20.261  0.00  0.00    +0.000 OA
ATOM     23  C   UNL     1      10.559  14.306  20.044  0.00  0.00    +0.000 C 
ATOM     24  O   UNL     1       9.872  14.393  18.775  0.00  0.00    +0.000 OA
ENDBRANCH  15  16
ENDBRANCH  14  15
ENDBRANCH   2  14
TORSDOF 6
ENDMDL
