MODEL 1
REMARK VINA RESULT:      -7.2      0.000      0.000
REMARK  Name = 
REMARK  7 active torsions:
REMARK  status: ('A' for Active; 'I' for Inactive)
REMARK    1  A    between atoms: C_1  and  O_2
REMARK    2  A    between atoms: O_2  and  C_3
REMARK    3  A    between atoms: N_10  and  C_11
REMARK    4  A    between atoms: C_14  and  O_15
REMARK    5  A    between atoms: O_15  and  C_16
REMARK    6  A    between atoms: C_18  and  C_19
REMARK    7  A    between atoms: C_19  and  O_20
REMARK                            x       y       z     vdW  Elec       q    Type
REMARK                         _______ _______ _______ _____ _____    ______ ____
ROOT
ATOM      1  C   UNL     1       6.089   5.269  16.090  0.00  0.00    +0.000 A 
ATOM      2  C   UNL     1       5.378   4.102  15.833  0.00  0.00    +0.000 A 
ATOM      3  C   UNL     1       4.262   3.763  16.609  0.00  0.00    +0.000 A 
ATOM      4  C   UNL     1       3.833   4.590  17.655  0.00  0.00    +0.000 A 
ATOM      5  C   UNL     1       4.570   5.761  17.923  0.00  0.00    +0.000 A 
ATOM      6  C   UNL     1       5.706   6.076  17.157  0.00  0.00    +0.000 A 
ATOM      7  C   UNL     1       4.138   6.706  19.016  0.00  0.00    +0.000 C 
ATOM      8  N   UNL     1       2.716   6.502  19.274  0.00  0.00    +0.000 N 
ATOM      9  C   UNL     1       2.426   5.120  19.628  0.00  0.00    +0.000 C 
ATOM     10  N   UNL     1       2.677   4.305  18.446  0.00  0.00    +0.000 N 
ATOM     11  C   UNL     1       1.776   3.297  18.173  0.00  0.00    +0.000 C 
ATOM     12  O   UNL     1       0.799   3.006  18.863  0.00  0.00    +0.000 OA
ENDROOT
BRANCH   8  13
ATOM     13  C   UNL     1       1.940   7.540  19.783  0.00  0.00    +0.000 A 
ATOM     14  C   UNL     1       1.503   7.510  21.124  0.00  0.00    +0.000 A 
ATOM     15  C   UNL     1       0.845   8.588  21.726  0.00  0.00    +0.000 A 
ATOM     16  C   UNL     1       0.579   9.742  21.004  0.00  0.00    +0.000 A 
ATOM     17  C   UNL     1       0.954   9.785  19.668  0.00  0.00    +0.000 A 
ATOM     18  C   UNL     1       1.638   8.709  19.044  0.00  0.00    +0.000 A 
BRANCH  16  19
ATOM     19  O   UNL     1      -0.024  10.744  21.709  0.00  0.00    +0.000 OA
ATOM     20  C   UNL     1      -0.174  11.990  21.040  0.00  0.00    +0.000 C 
ENDBRANCH  16  19
BRANCH  18  21
ATOM     21  C   UNL     1       2.086   8.974  17.626  0.00  0.00    +0.000 C 
BRANCH  21  22
ATOM     22  O   UNL     1       1.924  10.359  17.331  0.00  0.00    +0.000 OA
ATOM     23  H   UNL     1       2.757  10.658  16.927  0.00  0.00    +0.000 HD
ENDBRANCH  21  22
ENDBRANCH  18  21
ENDBRANCH   8  13
BRANCH   1  25
ATOM     24  C   UNL     1       7.373   5.038  14.130  0.00  0.00    +0.000 C 
ATOM     25  O   UNL     1       7.182   5.689  15.384  0.00  0.00    +0.000 OA
ENDBRANCH   1  25
TORSDOF 5
ENDMDL
MODEL 2
REMARK VINA RESULT:      -6.9      1.638      7.008
REMARK  Name = 
REMARK  7 active torsions:
REMARK  status: ('A' for Active; 'I' for Inactive)
REMARK    1  A    between atoms: C_1  and  O_2
REMARK    2  A    between atoms: O_2  and  C_3
REMARK    3  A    between atoms: N_10  and  C_11
REMARK    4  A    between atoms: C_14  and  O_15
REMARK    5  A    between atoms: O_15  and  C_16
REMARK    6  A    between atoms: C_18  and  C_19
REMARK    7  A    between atoms: C_19  and  O_20
REMARK                            x       y       z     vdW  Elec       q    Type
REMARK                         _______ _______ _______ _____ _____    ______ ____
ROOT
ATOM      1  C   UNL     1       1.189   9.336  20.117  0.00  0.00    +0.000 A 
ATOM      2  C   UNL     1       0.975   8.540  21.237  0.00  0.00    +0.000 A 
ATOM      3  C   UNL     1       1.341   7.188  21.230  0.00  0.00    +0.000 A 
ATOM      4  C   UNL     1       1.934   6.608  20.101  0.00  0.00    +0.000 A 
ATOM      5  C   UNL     1       2.130   7.415  18.963  0.00  0.00    +0.000 A 
ATOM      6  C   UNL     1       1.731   8.763  18.971  0.00  0.00    +0.000 A 
ATOM      7  C   UNL     1       2.792   6.854  17.730  0.00  0.00    +0.000 C 
ATOM      8  N   UNL     1       3.592   5.696  18.114  0.00  0.00    +0.000 N 
ATOM      9  C   UNL     1       2.787   4.685  18.785  0.00  0.00    +0.000 C 
ATOM     10  N   UNL     1       2.361   5.244  20.062  0.00  0.00    +0.000 N 
ATOM     11  C   UNL     1       2.391   4.406  21.158  0.00  0.00    +0.000 C 
ATOM     12  O   UNL     1       2.712   3.218  21.140  0.00  0.00    +0.000 OA
ENDROOT
BRANCH   8  13
ATOM     13  C   UNL     1       4.702   5.329  17.360  0.00  0.00    +0.000 A 
ATOM     14  C   UNL     1       4.591   5.165  15.963  0.00  0.00    +0.000 A 
ATOM     15  C   UNL     1       5.700   4.938  15.140  0.00  0.00    +0.000 A 
ATOM     16  C   UNL     1       6.972   4.847  15.684  0.00  0.00    +0.000 A 
ATOM     17  C   UNL     1       7.111   4.956  17.062  0.00  0.00    +0.000 A 
ATOM     18  C   UNL     1       6.001   5.204  17.911  0.00  0.00    +0.000 A 
BRANCH  16  19
ATOM     19  O   UNL     1       7.982   4.672  14.780  0.00  0.00    +0.000 OA
ATOM     20  C   UNL     1       7.735   5.126  13.455  0.00  0.00    +0.000 C 
ENDBRANCH  16  19
BRANCH  18  21
ATOM     21  C   UNL     1       6.346   5.425  19.365  0.00  0.00    +0.000 C 
BRANCH  21  22
ATOM     22  O   UNL     1       7.761   5.368  19.527  0.00  0.00    +0.000 OA
ATOM     23  H   UNL     1       7.990   6.022  20.211  0.00  0.00    +0.000 HD
ENDBRANCH  21  22
ENDBRANCH  18  21
ENDBRANCH   8  13
BRANCH   1  25
ATOM     24  C   UNL     1       1.374  11.326  18.872  0.00  0.00    +0.000 C 
ATOM     25  O   UNL     1       0.876  10.665  20.032  0.00  0.00    +0.000 OA
ENDBRANCH   1  25
TORSDOF 5
ENDMDL
MODEL 3
REMARK VINA RESULT:      -6.9      3.865      6.364
REMARK  Name = 
REMARK  7 active torsions:
REMARK  status: ('A' for Active; 'I' for Inactive)
REMARK    1  A    between atoms: C_1  and  O_2
REMARK    2  A    between atoms: O_2  and  C_3
REMARK    3  A    between atoms: N_10  and  C_11
REMARK    4  A    between atoms: C_14  and  O_15
REMARK    5  A    between atoms: O_15  and  C_16
REMARK    6  A    between atoms: C_18  and  C_19
REMARK    7  A    between atoms: C_19  and  O_20
REMARK                            x       y       z     vdW  Elec       q    Type
REMARK                         _______ _______ _______ _____ _____    ______ ____
ROOT
ATOM      1  C   UNL     1       2.039   3.582  18.620  0.00  0.00    +0.000 A 
ATOM      2  C   UNL     1       2.412   2.644  17.664  0.00  0.00    +0.000 A 
ATOM      3  C   UNL     1       3.428   2.931  16.744  0.00  0.00    +0.000 A 
ATOM      4  C   UNL     1       4.094   4.164  16.767  0.00  0.00    +0.000 A 
ATOM      5  C   UNL     1       3.697   5.117  17.725  0.00  0.00    +0.000 A 
ATOM      6  C   UNL     1       2.656   4.829  18.625  0.00  0.00    +0.000 A 
ATOM      7  C   UNL     1       4.399   6.449  17.817  0.00  0.00    +0.000 C 
ATOM      8  N   UNL     1       5.726   6.319  17.226  0.00  0.00    +0.000 N 
ATOM      9  C   UNL     1       5.659   5.855  15.848  0.00  0.00    +0.000 C 
ATOM     10  N   UNL     1       5.163   4.485  15.873  0.00  0.00    +0.000 N 
ATOM     11  C   UNL     1       5.761   3.582  15.018  0.00  0.00    +0.000 C 
ATOM     12  O   UNL     1       6.651   3.846  14.210  0.00  0.00    +0.000 OA
ENDROOT
BRANCH   8  13
ATOM     13  C   UNL     1       6.763   7.150  17.642  0.00  0.00    +0.000 A 
ATOM     14  C   UNL     1       6.801   8.500  17.233  0.00  0.00    +0.000 A 
ATOM     15  C   UNL     1       7.736   9.413  17.734  0.00  0.00    +0.000 A 
ATOM     16  C   UNL     1       8.689   9.009  18.656  0.00  0.00    +0.000 A 
ATOM     17  C   UNL     1       8.710   7.675  19.043  0.00  0.00    +0.000 A 
ATOM     18  C   UNL     1       7.759   6.738  18.560  0.00  0.00    +0.000 A 
BRANCH  16  19
ATOM     19  O   UNL     1       9.518   9.996  19.110  0.00  0.00    +0.000 OA
ATOM     20  C   UNL     1       9.665  11.136  18.272  0.00  0.00    +0.000 C 
ENDBRANCH  16  19
BRANCH  18  21
ATOM     21  C   UNL     1       7.844   5.365  19.182  0.00  0.00    +0.000 C 
BRANCH  21  22
ATOM     22  O   UNL     1       7.866   5.490  20.602  0.00  0.00    +0.000 OA
ATOM     23  H   UNL     1       7.283   6.236  20.826  0.00  0.00    +0.000 HD
ENDBRANCH  21  22
ENDBRANCH  18  21
ENDBRANCH   8  13
BRANCH   1  25
ATOM     24  C   UNL     1       1.539   2.896  20.817  0.00  0.00    +0.000 C 
ATOM     25  O   UNL     1       1.069   3.391  19.565  0.00  0.00    +0.000 OA
ENDBRANCH   1  25
TORSDOF 5
ENDMDL
MODEL 4
REMARK VINA RESULT:      -6.9      1.539      2.345
REMARK  Name = 
REMARK  7 active torsions:
REMARK  status: ('A' for Active; 'I' for Inactive)
REMARK    1  A    between atoms: C_1  and  O_2
REMARK    2  A    between atoms: O_2  and  C_3
REMARK    3  A    between atoms: N_10  and  C_11
REMARK    4  A    between atoms: C_14  and  O_15
REMARK    5  A    between atoms: O_15  and  C_16
REMARK    6  A    between atoms: C_18  and  C_19
REMARK    7  A    between atoms: C_19  and  O_20
REMARK                            x       y       z     vdW  Elec       q    Type
REMARK                         _______ _______ _______ _____ _____    ______ ____
ROOT
ATOM      1  C   UNL     1       5.287   5.389  15.856  0.00  0.00    +0.000 A 
ATOM      2  C   UNL     1       4.750   4.172  16.260  0.00  0.00    +0.000 A 
ATOM      3  C   UNL     1       3.831   4.114  17.315  0.00  0.00    +0.000 A 
ATOM      4  C   UNL     1       3.426   5.278  17.982  0.00  0.00    +0.000 A 
ATOM      5  C   UNL     1       3.988   6.505  17.581  0.00  0.00    +0.000 A 
ATOM      6  C   UNL     1       4.932   6.548  16.540  0.00  0.00    +0.000 A 
ATOM      7  C   UNL     1       3.567   7.794  18.241  0.00  0.00    +0.000 C 
ATOM      8  N   UNL     1       2.251   7.602  18.843  0.00  0.00    +0.000 N 
ATOM      9  C   UNL     1       2.250   6.499  19.793  0.00  0.00    +0.000 C 
ATOM     10  N   UNL     1       2.460   5.271  19.036  0.00  0.00    +0.000 N 
ATOM     11  C   UNL     1       1.709   4.172  19.398  0.00  0.00    +0.000 C 
ATOM     12  O   UNL     1       0.905   4.131  20.329  0.00  0.00    +0.000 OA
ENDROOT
BRANCH   8  13
ATOM     13  C   UNL     1       1.395   8.686  19.017  0.00  0.00    +0.000 A 
ATOM     14  C   UNL     1       0.806   9.314  17.898  0.00  0.00    +0.000 A 
ATOM     15  C   UNL     1      -0.169  10.310  18.020  0.00  0.00    +0.000 A 
ATOM     16  C   UNL     1      -0.586  10.736  19.272  0.00  0.00    +0.000 A 
ATOM     17  C   UNL     1       0.009  10.172  20.393  0.00  0.00    +0.000 A 
ATOM     18  C   UNL     1       0.986   9.148  20.291  0.00  0.00    +0.000 A 
BRANCH  16  19
ATOM     19  O   UNL     1      -1.576  11.678  19.267  0.00  0.00    +0.000 OA
ATOM     20  C   UNL     1      -2.612  11.506  18.308  0.00  0.00    +0.000 C 
ENDBRANCH  16  19
BRANCH  18  21
ATOM     21  C   UNL     1       1.431   8.557  21.607  0.00  0.00    +0.000 C 
BRANCH  21  22
ATOM     22  O   UNL     1       1.319   9.543  22.630  0.00  0.00    +0.000 OA
ATOM     23  H   UNL     1       2.224   9.830  22.842  0.00  0.00    +0.000 HD
ENDBRANCH  21  22
ENDBRANCH  18  21
ENDBRANCH   8  13
BRANCH   1  25
ATOM     24  C   UNL     1       6.452   4.366  14.083  0.00  0.00    +0.000 C 
ATOM     25  O   UNL     1       6.181   5.548  14.833  0.00  0.00    +0.000 OA
ENDBRANCH   1  25
TORSDOF 5
ENDMDL
MODEL 5
REMARK VINA RESULT:      -6.8      1.590      7.092
REMARK  Name = 
REMARK  7 active torsions:
REMARK  status: ('A' for Active; 'I' for Inactive)
REMARK    1  A    between atoms: C_1  and  O_2
REMARK    2  A    between atoms: O_2  and  C_3
REMARK    3  A    between atoms: N_10  and  C_11
REMARK    4  A    between atoms: C_14  and  O_15
REMARK    5  A    between atoms: O_15  and  C_16
REMARK    6  A    between atoms: C_18  and  C_19
REMARK    7  A    between atoms: C_19  and  O_20
REMARK                            x       y       z     vdW  Elec       q    Type
REMARK                         _______ _______ _______ _____ _____    ______ ____
ROOT
ATOM      1  C   UNL     1       0.992  10.110  20.194  0.00  0.00    +0.000 A 
ATOM      2  C   UNL     1       0.761   9.311  21.308  0.00  0.00    +0.000 A 
ATOM      3  C   UNL     1       1.083   7.948  21.286  0.00  0.00    +0.000 A 
ATOM      4  C   UNL     1       1.649   7.360  20.147  0.00  0.00    +0.000 A 
ATOM      5  C   UNL     1       1.863   8.171  19.015  0.00  0.00    +0.000 A 
ATOM      6  C   UNL     1       1.507   9.531  19.039  0.00  0.00    +0.000 A 
ATOM      7  C   UNL     1       2.497   7.601  17.772  0.00  0.00    +0.000 C 
ATOM      8  N   UNL     1       3.262   6.414  18.140  0.00  0.00    +0.000 N 
ATOM      9  C   UNL     1       2.430   5.423  18.808  0.00  0.00    +0.000 C 
ATOM     10  N   UNL     1       2.031   5.983  20.093  0.00  0.00    +0.000 N 
ATOM     11  C   UNL     1       2.042   5.135  21.181  0.00  0.00    +0.000 C 
ATOM     12  O   UNL     1       2.325   3.938  21.149  0.00  0.00    +0.000 OA
ENDROOT
BRANCH   8  13
ATOM     13  C   UNL     1       4.355   6.019  17.374  0.00  0.00    +0.000 A 
ATOM     14  C   UNL     1       4.492   6.468  16.043  0.00  0.00    +0.000 A 
ATOM     15  C   UNL     1       5.637   6.220  15.278  0.00  0.00    +0.000 A 
ATOM     16  C   UNL     1       6.692   5.493  15.807  0.00  0.00    +0.000 A 
ATOM     17  C   UNL     1       6.569   4.995  17.097  0.00  0.00    +0.000 A 
ATOM     18  C   UNL     1       5.424   5.250  17.896  0.00  0.00    +0.000 A 
BRANCH  16  19
ATOM     19  O   UNL     1       7.775   5.355  14.985  0.00  0.00    +0.000 OA
ATOM     20  C   UNL     1       7.512   4.925  13.655  0.00  0.00    +0.000 C 
ENDBRANCH  16  19
BRANCH  18  21
ATOM     21  C   UNL     1       5.511   4.747  19.317  0.00  0.00    +0.000 C 
BRANCH  21  22
ATOM     22  O   UNL     1       5.374   3.328  19.324  0.00  0.00    +0.000 OA
ATOM     23  H   UNL     1       4.609   3.118  18.761  0.00  0.00    +0.000 HD
ENDBRANCH  21  22
ENDBRANCH  18  21
ENDBRANCH   8  13
BRANCH   1  25
ATOM     24  C   UNL     1      -0.183  11.825  19.087  0.00  0.00    +0.000 C 
ATOM     25  O   UNL     1       0.721  11.449  20.123  0.00  0.00    +0.000 OA
ENDBRANCH   1  25
TORSDOF 5
ENDMDL
MODEL 6
REMARK VINA RESULT:      -6.6      1.436      2.413
REMARK  Name = 
REMARK  7 active torsions:
REMARK  status: ('A' for Active; 'I' for Inactive)
REMARK    1  A    between atoms: C_1  and  O_2
REMARK    2  A    between atoms: O_2  and  C_3
REMARK    3  A    between atoms: N_10  and  C_11
REMARK    4  A    between atoms: C_14  and  O_15
REMARK    5  A    between atoms: O_15  and  C_16
REMARK    6  A    between atoms: C_18  and  C_19
REMARK    7  A    between atoms: C_19  and  O_20
REMARK                            x       y       z     vdW  Elec       q    Type
REMARK                         _______ _______ _______ _____ _____    ______ ____
ROOT
ATOM      1  C   UNL     1       6.941   5.035  14.841  0.00  0.00    +0.000 A 
ATOM      2  C   UNL     1       6.250   3.852  14.603  0.00  0.00    +0.000 A 
ATOM      3  C   UNL     1       5.162   3.489  15.407  0.00  0.00    +0.000 A 
ATOM      4  C   UNL     1       4.741   4.309  16.463  0.00  0.00    +0.000 A 
ATOM      5  C   UNL     1       5.458   5.496  16.711  0.00  0.00    +0.000 A 
ATOM      6  C   UNL     1       6.567   5.835  15.916  0.00  0.00    +0.000 A 
ATOM      7  C   UNL     1       5.033   6.432  17.814  0.00  0.00    +0.000 C 
ATOM      8  N   UNL     1       3.623   6.197  18.108  0.00  0.00    +0.000 N 
ATOM      9  C   UNL     1       3.373   4.809  18.471  0.00  0.00    +0.000 C 
ATOM     10  N   UNL     1       3.612   3.998  17.284  0.00  0.00    +0.000 N 
ATOM     11  C   UNL     1       2.727   2.970  17.034  0.00  0.00    +0.000 C 
ATOM     12  O   UNL     1       1.775   2.658  17.749  0.00  0.00    +0.000 OA
ENDROOT
BRANCH   8  13
ATOM     13  C   UNL     1       2.837   7.218  18.636  0.00  0.00    +0.000 A 
ATOM     14  C   UNL     1       2.591   8.386  17.884  0.00  0.00    +0.000 A 
ATOM     15  C   UNL     1       1.696   9.377  18.303  0.00  0.00    +0.000 A 
ATOM     16  C   UNL     1       1.019   9.250  19.507  0.00  0.00    +0.000 A 
ATOM     17  C   UNL     1       1.276   8.135  20.293  0.00  0.00    +0.000 A 
ATOM     18  C   UNL     1       2.166   7.110  19.877  0.00  0.00    +0.000 A 
BRANCH  16  19
ATOM     19  O   UNL     1       0.137  10.255  19.789  0.00  0.00    +0.000 OA
ATOM     20  C   UNL     1      -0.879  10.498  18.824  0.00  0.00    +0.000 C 
ENDBRANCH  16  19
BRANCH  18  21
ATOM     21  C   UNL     1       2.228   5.909  20.791  0.00  0.00    +0.000 C 
BRANCH  21  22
ATOM     22  O   UNL     1       1.034   5.144  20.646  0.00  0.00    +0.000 OA
ATOM     23  H   UNL     1       1.302   4.209  20.631  0.00  0.00    +0.000 HD
ENDBRANCH  21  22
ENDBRANCH  18  21
ENDBRANCH   8  13
BRANCH   1  25
ATOM     24  C   UNL     1       7.875   5.311  12.697  0.00  0.00    +0.000 C 
ATOM     25  O   UNL     1       8.006   5.479  14.106  0.00  0.00    +0.000 OA
ENDBRANCH   1  25
TORSDOF 5
ENDMDL
MODEL 7
REMARK VINA RESULT:      -6.6      1.818      7.108
REMARK  Name = 
REMARK  7 active torsions:
REMARK  status: ('A' for Active; 'I' for Inactive)
REMARK    1  A    between atoms: C_1  and  O_2
REMARK    2  A    between atoms: O_2  and  C_3
REMARK    3  A    between atoms: N_10  and  C_11
REMARK    4  A    between atoms: C_14  and  O_15
REMARK    5  A    between atoms: O_15  and  C_16
REMARK    6  A    between atoms: C_18  and  C_19
REMARK    7  A    between atoms: C_19  and  O_20
REMARK                            x       y       z     vdW  Elec       q    Type
REMARK                         _______ _______ _______ _____ _____    ______ ____
ROOT
ATOM      1  C   UNL     1       1.656   7.376  20.629  0.00  0.00    +0.000 A 
ATOM      2  C   UNL     1       1.376   6.165  21.253  0.00  0.00    +0.000 A 
ATOM      3  C   UNL     1       1.704   4.953  20.634  0.00  0.00    +0.000 A 
ATOM      4  C   UNL     1       2.326   4.930  19.379  0.00  0.00    +0.000 A 
ATOM      5  C   UNL     1       2.590   6.159  18.743  0.00  0.00    +0.000 A 
ATOM      6  C   UNL     1       2.229   7.369  19.361  0.00  0.00    +0.000 A 
ATOM      7  C   UNL     1       3.285   6.198  17.406  0.00  0.00    +0.000 C 
ATOM      8  N   UNL     1       4.036   4.958  17.234  0.00  0.00    +0.000 N 
ATOM      9  C   UNL     1       3.177   3.788  17.347  0.00  0.00    +0.000 C 
ATOM     10  N   UNL     1       2.716   3.718  18.728  0.00  0.00    +0.000 N 
ATOM     11  C   UNL     1       2.678   2.471  19.316  0.00  0.00    +0.000 C 
ATOM     12  O   UNL     1       2.966   1.411  18.762  0.00  0.00    +0.000 OA
ENDROOT
BRANCH   8  13
ATOM     13  C   UNL     1       5.166   4.930  16.422  0.00  0.00    +0.000 A 
ATOM     14  C   UNL     1       5.051   4.599  15.054  0.00  0.00    +0.000 A 
ATOM     15  C   UNL     1       6.125   4.694  14.163  0.00  0.00    +0.000 A 
ATOM     16  C   UNL     1       7.372   5.109  14.606  0.00  0.00    +0.000 A 
ATOM     17  C   UNL     1       7.531   5.395  15.956  0.00  0.00    +0.000 A 
ATOM     18  C   UNL     1       6.449   5.322  16.872  0.00  0.00    +0.000 A 
BRANCH  16  19
ATOM     19  O   UNL     1       8.331   5.209  13.639  0.00  0.00    +0.000 OA
ATOM     20  C   UNL     1       7.872   5.335  12.299  0.00  0.00    +0.000 C 
ENDBRANCH  16  19
BRANCH  18  21
ATOM     21  C   UNL     1       6.766   5.793  18.272  0.00  0.00    +0.000 C 
BRANCH  21  22
ATOM     22  O   UNL     1       7.780   4.963  18.831  0.00  0.00    +0.000 OA
ATOM     23  H   UNL     1       7.354   4.120  19.064  0.00  0.00    +0.000 HD
ENDBRANCH  21  22
ENDBRANCH  18  21
ENDBRANCH   8  13
BRANCH   1  25
ATOM     24  C   UNL     1       0.869   9.559  20.228  0.00  0.00    +0.000 C 
ATOM     25  O   UNL     1       1.384   8.608  21.157  0.00  0.00    +0.000 OA
ENDBRANCH   1  25
TORSDOF 5
ENDMDL
MODEL 8
REMARK VINA RESULT:      -6.5      2.906      5.227
REMARK  Name = 
REMARK  7 active torsions:
REMARK  status: ('A' for Active; 'I' for Inactive)
REMARK    1  A    between atoms: C_1  and  O_2
REMARK    2  A    between atoms: O_2  and  C_3
REMARK    3  A    between atoms: N_10  and  C_11
REMARK    4  A    between atoms: C_14  and  O_15
REMARK    5  A    between atoms: O_15  and  C_16
REMARK    6  A    between atoms: C_18  and  C_19
REMARK    7  A    between atoms: C_19  and  O_20
REMARK                            x       y       z     vdW  Elec       q    Type
REMARK                         _______ _______ _______ _____ _____    ______ ____
ROOT
ATOM      1  C   UNL     1       6.237   3.897  13.170  0.00  0.00    +0.000 A 
ATOM      2  C   UNL     1       7.401   4.591  13.480  0.00  0.00    +0.000 A 
ATOM      3  C   UNL     1       7.511   5.295  14.685  0.00  0.00    +0.000 A 
ATOM      4  C   UNL     1       6.456   5.313  15.608  0.00  0.00    +0.000 A 
ATOM      5  C   UNL     1       5.272   4.625  15.279  0.00  0.00    +0.000 A 
ATOM      6  C   UNL     1       5.162   3.946  14.053  0.00  0.00    +0.000 A 
ATOM      7  C   UNL     1       4.116   4.584  16.246  0.00  0.00    +0.000 C 
ATOM      8  N   UNL     1       4.622   4.838  17.591  0.00  0.00    +0.000 N 
ATOM      9  C   UNL     1       5.328   6.109  17.669  0.00  0.00    +0.000 C 
ATOM     10  N   UNL     1       6.539   5.985  16.868  0.00  0.00    +0.000 N 
ATOM     11  C   UNL     1       7.694   6.537  17.382  0.00  0.00    +0.000 C 
ATOM     12  O   UNL     1       7.779   7.156  18.441  0.00  0.00    +0.000 OA
ENDROOT
BRANCH   8  13
ATOM     13  C   UNL     1       3.949   4.334  18.700  0.00  0.00    +0.000 A 
ATOM     14  C   UNL     1       4.262   3.052  19.200  0.00  0.00    +0.000 A 
ATOM     15  C   UNL     1       3.721   2.555  20.392  0.00  0.00    +0.000 A 
ATOM     16  C   UNL     1       2.826   3.316  21.128  0.00  0.00    +0.000 A 
ATOM     17  C   UNL     1       2.460   4.563  20.639  0.00  0.00    +0.000 A 
ATOM     18  C   UNL     1       3.011   5.092  19.442  0.00  0.00    +0.000 A 
BRANCH  16  19
ATOM     19  O   UNL     1       2.402   2.748  22.297  0.00  0.00    +0.000 OA
ATOM     20  C   UNL     1       1.061   2.277  22.324  0.00  0.00    +0.000 C 
ENDBRANCH  16  19
BRANCH  18  21
ATOM     21  C   UNL     1       2.604   6.511  19.125  0.00  0.00    +0.000 C 
BRANCH  21  22
ATOM     22  O   UNL     1       2.306   7.199  20.338  0.00  0.00    +0.000 OA
ATOM     23  H   UNL     1       2.304   6.530  21.044  0.00  0.00    +0.000 HD
ENDBRANCH  21  22
ENDBRANCH  18  21
ENDBRANCH   8  13
BRANCH   1  25
ATOM     24  C   UNL     1       4.683   3.090  11.596  0.00  0.00    +0.000 C 
ATOM     25  O   UNL     1       6.039   3.174  12.026  0.00  0.00    +0.000 OA
ENDBRANCH   1  25
TORSDOF 5
ENDMDL
MODEL 9
REMARK VINA RESULT:      -6.4      0.877      1.010
REMARK  Name = 
REMARK  7 active torsions:
REMARK  status: ('A' for Active; 'I' for Inactive)
REMARK    1  A    between atoms: C_1  and  O_2
REMARK    2  A    between atoms: O_2  and  C_3
REMARK    3  A    between atoms: N_10  and  C_11
REMARK    4  A    between atoms: C_14  and  O_15
REMARK    5  A    between atoms: O_15  and  C_16
REMARK    6  A    between atoms: C_18  and  C_19
REMARK    7  A    between atoms: C_19  and  O_20
REMARK                            x       y       z     vdW  Elec       q    Type
REMARK                         _______ _______ _______ _____ _____    ______ ____
ROOT
ATOM      1  C   UNL     1       6.255   5.558  16.704  0.00  0.00    +0.000 A 
ATOM      2  C   UNL     1       5.585   4.438  16.224  0.00  0.00    +0.000 A 
ATOM      3  C   UNL     1       4.352   4.058  16.769  0.00  0.00    +0.000 A 
ATOM      4  C   UNL     1       3.763   4.797  17.804  0.00  0.00    +0.000 A 
ATOM      5  C   UNL     1       4.457   5.919  18.299  0.00  0.00    +0.000 A 
ATOM      6  C   UNL     1       5.708   6.273  17.764  0.00  0.00    +0.000 A 
ATOM      7  C   UNL     1       3.859   6.770  19.391  0.00  0.00    +0.000 C 
ATOM      8  N   UNL     1       2.412   6.580  19.391  0.00  0.00    +0.000 N 
ATOM      9  C   UNL     1       2.053   5.179  19.560  0.00  0.00    +0.000 C 
ATOM     10  N   UNL     1       2.489   4.470  18.363  0.00  0.00    +0.000 N 
ATOM     11  C   UNL     1       1.635   3.515  17.850  0.00  0.00    +0.000 C 
ATOM     12  O   UNL     1       0.555   3.187  18.339  0.00  0.00    +0.000 OA
ENDROOT
BRANCH   8  13
ATOM     13  C   UNL     1       1.573   7.586  19.861  0.00  0.00    +0.000 A 
ATOM     14  C   UNL     1       1.078   7.540  21.182  0.00  0.00    +0.000 A 
ATOM     15  C   UNL     1       0.350   8.592  21.751  0.00  0.00    +0.000 A 
ATOM     16  C   UNL     1       0.071   9.733  21.014  0.00  0.00    +0.000 A 
ATOM     17  C   UNL     1       0.502   9.789  19.695  0.00  0.00    +0.000 A 
ATOM     18  C   UNL     1       1.256   8.741  19.106  0.00  0.00    +0.000 A 
BRANCH  16  19
ATOM     19  O   UNL     1      -0.604  10.711  21.688  0.00  0.00    +0.000 OA
ATOM     20  C   UNL     1      -0.898  10.454  23.055  0.00  0.00    +0.000 C 
ENDBRANCH  16  19
BRANCH  18  21
ATOM     21  C   UNL     1       1.756   9.022  17.709  0.00  0.00    +0.000 C 
BRANCH  21  22
ATOM     22  O   UNL     1       2.059  10.409  17.586  0.00  0.00    +0.000 OA
ATOM     23  H   UNL     1       2.796  10.589  18.195  0.00  0.00    +0.000 HD
ENDBRANCH  21  22
ENDBRANCH  18  21
ENDBRANCH   8  13
BRANCH   1  25
ATOM     24  C   UNL     1       7.897   7.244  16.798  0.00  0.00    +0.000 C 
ATOM     25  O   UNL     1       7.455   6.013  16.230  0.00  0.00    +0.000 OA
ENDBRANCH   1  25
TORSDOF 5
ENDMDL
