MODEL 1
REMARK VINA RESULT:      -7.8      0.000      0.000
REMARK  Name = 
REMARK  12 active torsions:
REMARK  status: ('A' for Active; 'I' for Inactive)
REMARK    1  A    between atoms: N_1  and  C_2
REMARK    2  A    between atoms: C_2  and  N_4
REMARK    3  A    between atoms: N_4  and  C_5
REMARK    4  A    between atoms: C_9  and  O_10
REMARK    5  A    between atoms: O_10  and  C_11
REMARK    6  A    between atoms: C_11  and  C_12
REMARK    7  A    between atoms: C_12  and  C_13
REMARK    8  A    between atoms: C_13  and  C_14
REMARK    9  A    between atoms: C_14  and  C_15
REMARK   10  A    between atoms: C_15  and  N_16
REMARK   11  A    between atoms: N_19  and  C_20
REMARK   12  A    between atoms: C_23  and  C_24
REMARK                            x       y       z     vdW  Elec       q    Type
REMARK                         _______ _______ _______ _____ _____    ______ ____
ROOT
ATOM      1  C   UNL     1      -0.940  10.756  22.603  0.00  0.00    +0.000 C 
ENDROOT
BRANCH   1   2
ATOM      2  N   UNL     1      -0.342  10.371  21.340  0.00  0.00    +0.000 N 
ATOM      3  C   UNL     1      -1.008  10.503  20.067  0.00  0.00    +0.000 C 
ATOM      4  C   UNL     1       0.067  10.080  19.085  0.00  0.00    +0.000 C 
ATOM      5  N   UNL     1       0.908   9.202  19.867  0.00  0.00    +0.000 N 
ATOM      6  C   UNL     1       0.704   9.443  21.244  0.00  0.00    +0.000 C 
ATOM      7  O   UNL     1       1.295   8.977  22.200  0.00  0.00    +0.000 OA
BRANCH   5   8
ATOM      8  C   UNL     1       1.842   8.310  19.301  0.00  0.00    +0.000 A 
ATOM      9  C   UNL     1       2.166   7.103  19.920  0.00  0.00    +0.000 A 
ATOM     10  C   UNL     1       3.056   6.202  19.326  0.00  0.00    +0.000 A 
ATOM     11  C   UNL     1       3.645   6.465  18.082  0.00  0.00    +0.000 A 
ATOM     12  C   UNL     1       3.356   7.705  17.494  0.00  0.00    +0.000 A 
ATOM     13  C   UNL     1       2.459   8.603  18.083  0.00  0.00    +0.000 A 
BRANCH  11  14
ATOM     14  C   UNL     1       4.615   5.473  17.437  0.00  0.00    +0.000 C 
ATOM     15  C   UNL     1       5.662   6.113  16.496  0.00  0.00    +0.000 C 
ATOM     16  C   UNL     1       6.691   6.953  17.254  0.00  0.00    +0.000 C 
ATOM     17  C   UNL     1       7.382   6.161  18.362  0.00  0.00    +0.000 C 
ATOM     18  C   UNL     1       6.414   5.383  19.248  0.00  0.00    +0.000 C 
ATOM     19  C   UNL     1       5.394   4.585  18.432  0.00  0.00    +0.000 C 
ENDBRANCH  11  14
ENDBRANCH   5   8
ENDBRANCH   1   2
BRANCH   1  20
ATOM     20  C   UNL     1      -0.931  12.269  22.756  0.00  0.00    +0.000 C 
BRANCH  20  21
ATOM     21  C   UNL     1      -2.200  12.912  22.198  0.00  0.00    +0.000 C 
BRANCH  21  22
ATOM     22  C   UNL     1      -3.431  12.635  23.068  0.00  0.00    +0.000 C 
BRANCH  22  23
ATOM     23  C   UNL     1      -4.719  13.024  22.350  0.00  0.00    +0.000 C 
BRANCH  23  24
ATOM     24  O   UNL     1      -4.448  13.557  21.054  0.00  0.00    +0.000 OA
BRANCH  24  29
ATOM     25  C   UNL     1      -4.589  11.201  18.172  0.00  0.00    +0.000 A 
ATOM     26  C   UNL     1      -5.973  11.200  17.973  0.00  0.00    +0.000 A 
ATOM     27  C   UNL     1      -6.808  11.946  18.812  0.00  0.00    +0.000 A 
ATOM     28  C   UNL     1      -6.265  12.713  19.843  0.00  0.00    +0.000 A 
ATOM     29  C   UNL     1      -4.885  12.765  20.019  0.00  0.00    +0.000 A 
ATOM     30  C   UNL     1      -4.059  12.026  19.162  0.00  0.00    +0.000 A 
BRANCH  25  31
ATOM     31  N   UNL     1      -3.793  10.381  17.338  0.00  0.00    +0.000 N 
ATOM     32  H   UNL     1      -3.520   9.496  17.743  0.00  0.00    +0.000 HD
BRANCH  31  33
ATOM     33  C   UNL     1      -3.083  10.705  16.202  0.00  0.00    +0.000 C 
ATOM     34  S   UNL     1      -3.223  10.167  14.634  0.00  0.00    +0.000 S 
BRANCH  33  35
ATOM     35  N   UNL     1      -2.163  11.687  16.440  0.00  0.00    +0.000 N 
ATOM     36  H   UNL     1      -2.366  12.304  17.220  0.00  0.00    +0.000 HD
ATOM     37  H   UNL     1      -1.637  12.095  15.681  0.00  0.00    +0.000 HD
ENDBRANCH  33  35
ENDBRANCH  31  33
ENDBRANCH  25  31
ENDBRANCH  24  29
ENDBRANCH  23  24
ENDBRANCH  22  23
ENDBRANCH  21  22
ENDBRANCH  20  21
ENDBRANCH   1  20
TORSDOF 12
ENDMDL
MODEL 2
REMARK VINA RESULT:      -7.5      1.087      1.294
REMARK  Name = 
REMARK  12 active torsions:
REMARK  status: ('A' for Active; 'I' for Inactive)
REMARK    1  A    between atoms: N_1  and  C_2
REMARK    2  A    between atoms: C_2  and  N_4
REMARK    3  A    between atoms: N_4  and  C_5
REMARK    4  A    between atoms: C_9  and  O_10
REMARK    5  A    between atoms: O_10  and  C_11
REMARK    6  A    between atoms: C_11  and  C_12
REMARK    7  A    between atoms: C_12  and  C_13
REMARK    8  A    between atoms: C_13  and  C_14
REMARK    9  A    between atoms: C_14  and  C_15
REMARK   10  A    between atoms: C_15  and  N_16
REMARK   11  A    between atoms: N_19  and  C_20
REMARK   12  A    between atoms: C_23  and  C_24
REMARK                            x       y       z     vdW  Elec       q    Type
REMARK                         _______ _______ _______ _____ _____    ______ ____
ROOT
ATOM      1  C   UNL     1      -0.442  12.110  22.058  0.00  0.00    +0.000 C 
ENDROOT
BRANCH   1   2
ATOM      2  N   UNL     1      -0.193  10.742  21.650  0.00  0.00    +0.000 N 
ATOM      3  C   UNL     1      -0.484   9.595  22.477  0.00  0.00    +0.000 C 
ATOM      4  C   UNL     1      -0.155   8.434  21.560  0.00  0.00    +0.000 C 
ATOM      5  N   UNL     1       0.823   8.990  20.652  0.00  0.00    +0.000 N 
ATOM      6  C   UNL     1       0.738  10.399  20.660  0.00  0.00    +0.000 C 
ATOM      7  O   UNL     1       1.322  11.207  19.962  0.00  0.00    +0.000 OA
BRANCH   5   8
ATOM      8  C   UNL     1       1.663   8.204  19.835  0.00  0.00    +0.000 A 
ATOM      9  C   UNL     1       2.129   6.959  20.254  0.00  0.00    +0.000 A 
ATOM     10  C   UNL     1       2.921   6.165  19.418  0.00  0.00    +0.000 A 
ATOM     11  C   UNL     1       3.264   6.578  18.124  0.00  0.00    +0.000 A 
ATOM     12  C   UNL     1       2.837   7.856  17.733  0.00  0.00    +0.000 A 
ATOM     13  C   UNL     1       2.038   8.646  18.565  0.00  0.00    +0.000 A 
BRANCH  11  14
ATOM     14  C   UNL     1       4.128   5.703  17.214  0.00  0.00    +0.000 C 
ATOM     15  C   UNL     1       5.158   6.478  16.360  0.00  0.00    +0.000 C 
ATOM     16  C   UNL     1       6.282   7.080  17.205  0.00  0.00    +0.000 C 
ATOM     17  C   UNL     1       6.984   6.031  18.065  0.00  0.00    +0.000 C 
ATOM     18  C   UNL     1       6.021   5.128  18.830  0.00  0.00    +0.000 C 
ATOM     19  C   UNL     1       4.905   4.581  17.937  0.00  0.00    +0.000 C 
ENDBRANCH  11  14
ENDBRANCH   5   8
ENDBRANCH   1   2
BRANCH   1  20
ATOM     20  C   UNL     1      -1.581  12.708  21.247  0.00  0.00    +0.000 C 
BRANCH  20  21
ATOM     21  C   UNL     1      -2.462  13.634  22.085  0.00  0.00    +0.000 C 
BRANCH  21  22
ATOM     22  C   UNL     1      -3.373  12.864  23.047  0.00  0.00    +0.000 C 
BRANCH  22  23
ATOM     23  C   UNL     1      -4.831  12.927  22.604  0.00  0.00    +0.000 C 
BRANCH  23  24
ATOM     24  O   UNL     1      -4.947  13.461  21.285  0.00  0.00    +0.000 OA
BRANCH  24  29
ATOM     25  C   UNL     1      -5.666  11.345  18.304  0.00  0.00    +0.000 A 
ATOM     26  C   UNL     1      -6.910  10.845  18.701  0.00  0.00    +0.000 A 
ATOM     27  C   UNL     1      -7.449  11.194  19.943  0.00  0.00    +0.000 A 
ATOM     28  C   UNL     1      -6.758  12.061  20.790  0.00  0.00    +0.000 A 
ATOM     29  C   UNL     1      -5.544  12.610  20.385  0.00  0.00    +0.000 A 
ATOM     30  C   UNL     1      -5.023  12.264  19.132  0.00  0.00    +0.000 A 
BRANCH  25  31
ATOM     31  N   UNL     1      -5.134  10.912  17.066  0.00  0.00    +0.000 N 
ATOM     32  H   UNL     1      -5.822  10.661  16.370  0.00  0.00    +0.000 HD
BRANCH  31  33
ATOM     33  C   UNL     1      -3.860  10.489  16.754  0.00  0.00    +0.000 C 
ATOM     34  S   UNL     1      -2.903  10.790  15.425  0.00  0.00    +0.000 S 
BRANCH  33  35
ATOM     35  N   UNL     1      -3.304   9.758  17.765  0.00  0.00    +0.000 N 
ATOM     36  H   UNL     1      -2.499  10.175  18.222  0.00  0.00    +0.000 HD
ATOM     37  H   UNL     1      -3.325   8.749  17.742  0.00  0.00    +0.000 HD
ENDBRANCH  33  35
ENDBRANCH  31  33
ENDBRANCH  25  31
ENDBRANCH  24  29
ENDBRANCH  23  24
ENDBRANCH  22  23
ENDBRANCH  21  22
ENDBRANCH  20  21
ENDBRANCH   1  20
TORSDOF 12
ENDMDL
MODEL 3
REMARK VINA RESULT:      -7.4      3.642     10.716
REMARK  Name = 
REMARK  12 active torsions:
REMARK  status: ('A' for Active; 'I' for Inactive)
REMARK    1  A    between atoms: N_1  and  C_2
REMARK    2  A    between atoms: C_2  and  N_4
REMARK    3  A    between atoms: N_4  and  C_5
REMARK    4  A    between atoms: C_9  and  O_10
REMARK    5  A    between atoms: O_10  and  C_11
REMARK    6  A    between atoms: C_11  and  C_12
REMARK    7  A    between atoms: C_12  and  C_13
REMARK    8  A    between atoms: C_13  and  C_14
REMARK    9  A    between atoms: C_14  and  C_15
REMARK   10  A    between atoms: C_15  and  N_16
REMARK   11  A    between atoms: N_19  and  C_20
REMARK   12  A    between atoms: C_23  and  C_24
REMARK                            x       y       z     vdW  Elec       q    Type
REMARK                         _______ _______ _______ _____ _____    ______ ____
ROOT
ATOM      1  C   UNL     1       2.299   7.329  19.905  0.00  0.00    +0.000 C 
ENDROOT
BRANCH   1   2
ATOM      2  N   UNL     1       1.421   8.482  19.904  0.00  0.00    +0.000 N 
ATOM      3  C   UNL     1       1.134   9.268  18.728  0.00  0.00    +0.000 C 
ATOM      4  C   UNL     1       0.100  10.255  19.234  0.00  0.00    +0.000 C 
ATOM      5  N   UNL     1       0.387  10.347  20.648  0.00  0.00    +0.000 N 
ATOM      6  C   UNL     1       1.130   9.219  21.060  0.00  0.00    +0.000 C 
ATOM      7  O   UNL     1       1.471   8.894  22.182  0.00  0.00    +0.000 OA
BRANCH   5   8
ATOM      8  C   UNL     1      -0.093  11.384  21.474  0.00  0.00    +0.000 A 
ATOM      9  C   UNL     1       0.352  12.697  21.328  0.00  0.00    +0.000 A 
ATOM     10  C   UNL     1      -0.167  13.728  22.119  0.00  0.00    +0.000 A 
ATOM     11  C   UNL     1      -1.162  13.488  23.076  0.00  0.00    +0.000 A 
ATOM     12  C   UNL     1      -1.562  12.156  23.253  0.00  0.00    +0.000 A 
ATOM     13  C   UNL     1      -1.051  11.126  22.456  0.00  0.00    +0.000 A 
BRANCH  11  14
ATOM     14  C   UNL     1      -1.726  14.622  23.935  0.00  0.00    +0.000 C 
ATOM     15  C   UNL     1      -1.881  15.973  23.199  0.00  0.00    +0.000 C 
ATOM     16  C   UNL     1      -2.986  15.938  22.142  0.00  0.00    +0.000 C 
ATOM     17  C   UNL     1      -4.326  15.489  22.720  0.00  0.00    +0.000 C 
ATOM     18  C   UNL     1      -4.226  14.234  23.582  0.00  0.00    +0.000 C 
ATOM     19  C   UNL     1      -3.086  14.319  24.600  0.00  0.00    +0.000 C 
ENDBRANCH  11  14
ENDBRANCH   5   8
ENDBRANCH   1   2
BRANCH   1  20
ATOM     20  C   UNL     1       1.625   6.148  20.586  0.00  0.00    +0.000 C 
BRANCH  20  21
ATOM     21  C   UNL     1       1.762   4.859  19.775  0.00  0.00    +0.000 C 
BRANCH  21  22
ATOM     22  C   UNL     1       2.240   5.116  18.342  0.00  0.00    +0.000 C 
BRANCH  22  23
ATOM     23  C   UNL     1       2.847   3.860  17.725  0.00  0.00    +0.000 C 
BRANCH  23  24
ATOM     24  O   UNL     1       4.037   3.471  18.410  0.00  0.00    +0.000 OA
BRANCH  24  29
ATOM     25  C   UNL     1       6.697   5.424  16.680  0.00  0.00    +0.000 A 
ATOM     26  C   UNL     1       7.348   5.931  17.809  0.00  0.00    +0.000 A 
ATOM     27  C   UNL     1       6.871   5.640  19.091  0.00  0.00    +0.000 A 
ATOM     28  C   UNL     1       5.751   4.825  19.256  0.00  0.00    +0.000 A 
ATOM     29  C   UNL     1       5.125   4.269  18.144  0.00  0.00    +0.000 A 
ATOM     30  C   UNL     1       5.623   4.556  16.866  0.00  0.00    +0.000 A 
BRANCH  25  31
ATOM     31  N   UNL     1       7.180   5.799  15.404  0.00  0.00    +0.000 N 
ATOM     32  H   UNL     1       7.324   6.791  15.276  0.00  0.00    +0.000 HD
BRANCH  31  33
ATOM     33  C   UNL     1       7.197   5.087  14.224  0.00  0.00    +0.000 C 
ATOM     34  S   UNL     1       6.184   3.897  13.651  0.00  0.00    +0.000 S 
BRANCH  33  35
ATOM     35  N   UNL     1       8.190   5.511  13.388  0.00  0.00    +0.000 N 
ATOM     36  H   UNL     1       8.032   5.355  12.398  0.00  0.00    +0.000 HD
ATOM     37  H   UNL     1       9.155   5.501  13.687  0.00  0.00    +0.000 HD
ENDBRANCH  33  35
ENDBRANCH  31  33
ENDBRANCH  25  31
ENDBRANCH  24  29
ENDBRANCH  23  24
ENDBRANCH  22  23
ENDBRANCH  21  22
ENDBRANCH  20  21
ENDBRANCH   1  20
TORSDOF 12
ENDMDL
MODEL 4
REMARK VINA RESULT:      -7.4      1.384      1.731
REMARK  Name = 
REMARK  12 active torsions:
REMARK  status: ('A' for Active; 'I' for Inactive)
REMARK    1  A    between atoms: N_1  and  C_2
REMARK    2  A    between atoms: C_2  and  N_4
REMARK    3  A    between atoms: N_4  and  C_5
REMARK    4  A    between atoms: C_9  and  O_10
REMARK    5  A    between atoms: O_10  and  C_11
REMARK    6  A    between atoms: C_11  and  C_12
REMARK    7  A    between atoms: C_12  and  C_13
REMARK    8  A    between atoms: C_13  and  C_14
REMARK    9  A    between atoms: C_14  and  C_15
REMARK   10  A    between atoms: C_15  and  N_16
REMARK   11  A    between atoms: N_19  and  C_20
REMARK   12  A    between atoms: C_23  and  C_24
REMARK                            x       y       z     vdW  Elec       q    Type
REMARK                         _______ _______ _______ _____ _____    ______ ____
ROOT
ATOM      1  C   UNL     1      -1.093  11.562  20.875  0.00  0.00    +0.000 C 
ENDROOT
BRANCH   1   2
ATOM      2  N   UNL     1      -0.309  10.345  20.924  0.00  0.00    +0.000 N 
ATOM      3  C   UNL     1       0.261   9.809  22.136  0.00  0.00    +0.000 C 
ATOM      4  C   UNL     1       0.867   8.500  21.668  0.00  0.00    +0.000 C 
ATOM      5  N   UNL     1       1.136   8.739  20.267  0.00  0.00    +0.000 N 
ATOM      6  C   UNL     1       0.354   9.820  19.806  0.00  0.00    +0.000 C 
ATOM      7  O   UNL     1       0.233  10.250  18.674  0.00  0.00    +0.000 OA
BRANCH   5   8
ATOM      8  C   UNL     1       1.997   7.934  19.492  0.00  0.00    +0.000 A 
ATOM      9  C   UNL     1       2.385   6.663  19.916  0.00  0.00    +0.000 A 
ATOM     10  C   UNL     1       3.198   5.852  19.118  0.00  0.00    +0.000 A 
ATOM     11  C   UNL     1       3.645   6.275  17.858  0.00  0.00    +0.000 A 
ATOM     12  C   UNL     1       3.296   7.575  17.466  0.00  0.00    +0.000 A 
ATOM     13  C   UNL     1       2.474   8.383  18.259  0.00  0.00    +0.000 A 
BRANCH  11  14
ATOM     14  C   UNL     1       4.532   5.381  16.990  0.00  0.00    +0.000 C 
ATOM     15  C   UNL     1       5.581   6.139  16.143  0.00  0.00    +0.000 C 
ATOM     16  C   UNL     1       6.682   6.764  17.001  0.00  0.00    +0.000 C 
ATOM     17  C   UNL     1       7.366   5.737  17.902  0.00  0.00    +0.000 C 
ATOM     18  C   UNL     1       6.387   4.850  18.665  0.00  0.00    +0.000 C 
ATOM     19  C   UNL     1       5.295   4.278  17.758  0.00  0.00    +0.000 C 
ENDBRANCH  11  14
ENDBRANCH   5   8
ENDBRANCH   1   2
BRANCH   1  20
ATOM     20  C   UNL     1      -0.701  12.494  22.011  0.00  0.00    +0.000 C 
BRANCH  20  21
ATOM     21  C   UNL     1      -1.865  12.759  22.966  0.00  0.00    +0.000 C 
BRANCH  21  22
ATOM     22  C   UNL     1      -2.505  14.134  22.745  0.00  0.00    +0.000 C 
BRANCH  22  23
ATOM     23  C   UNL     1      -3.683  14.051  21.781  0.00  0.00    +0.000 C 
BRANCH  23  24
ATOM     24  O   UNL     1      -4.824  13.465  22.407  0.00  0.00    +0.000 OA
BRANCH  24  29
ATOM     25  C   UNL     1      -6.114  11.538  19.491  0.00  0.00    +0.000 A 
ATOM     26  C   UNL     1      -7.402  11.277  19.970  0.00  0.00    +0.000 A 
ATOM     27  C   UNL     1      -7.786  11.715  21.242  0.00  0.00    +0.000 A 
ATOM     28  C   UNL     1      -6.893  12.433  22.037  0.00  0.00    +0.000 A 
ATOM     29  C   UNL     1      -5.626  12.746  21.553  0.00  0.00    +0.000 A 
ATOM     30  C   UNL     1      -5.259  12.315  20.271  0.00  0.00    +0.000 A 
BRANCH  25  31
ATOM     31  N   UNL     1      -5.753  11.020  18.226  0.00  0.00    +0.000 N 
ATOM     32  H   UNL     1      -6.406  10.356  17.833  0.00  0.00    +0.000 HD
BRANCH  31  33
ATOM     33  C   UNL     1      -4.533  11.032  17.583  0.00  0.00    +0.000 C 
ATOM     34  S   UNL     1      -3.227  10.006  17.696  0.00  0.00    +0.000 S 
BRANCH  33  35
ATOM     35  N   UNL     1      -4.455  12.035  16.659  0.00  0.00    +0.000 N 
ATOM     36  H   UNL     1      -5.314  12.548  16.489  0.00  0.00    +0.000 HD
ATOM     37  H   UNL     1      -3.821  11.965  15.876  0.00  0.00    +0.000 HD
ENDBRANCH  33  35
ENDBRANCH  31  33
ENDBRANCH  25  31
ENDBRANCH  24  29
ENDBRANCH  23  24
ENDBRANCH  22  23
ENDBRANCH  21  22
ENDBRANCH  20  21
ENDBRANCH   1  20
TORSDOF 12
ENDMDL
MODEL 5
REMARK VINA RESULT:      -7.4      1.706      2.619
REMARK  Name = 
REMARK  12 active torsions:
REMARK  status: ('A' for Active; 'I' for Inactive)
REMARK    1  A    between atoms: N_1  and  C_2
REMARK    2  A    between atoms: C_2  and  N_4
REMARK    3  A    between atoms: N_4  and  C_5
REMARK    4  A    between atoms: C_9  and  O_10
REMARK    5  A    between atoms: O_10  and  C_11
REMARK    6  A    between atoms: C_11  and  C_12
REMARK    7  A    between atoms: C_12  and  C_13
REMARK    8  A    between atoms: C_13  and  C_14
REMARK    9  A    between atoms: C_14  and  C_15
REMARK   10  A    between atoms: C_15  and  N_16
REMARK   11  A    between atoms: N_19  and  C_20
REMARK   12  A    between atoms: C_23  and  C_24
REMARK                            x       y       z     vdW  Elec       q    Type
REMARK                         _______ _______ _______ _____ _____    ______ ____
ROOT
ATOM      1  C   UNL     1      -1.664  12.341  22.908  0.00  0.00    +0.000 C 
ENDROOT
BRANCH   1   2
ATOM      2  N   UNL     1      -0.897  11.758  21.826  0.00  0.00    +0.000 N 
ATOM      3  C   UNL     1      -1.079  12.107  20.437  0.00  0.00    +0.000 C 
ATOM      4  C   UNL     1       0.021  11.321  19.751  0.00  0.00    +0.000 C 
ATOM      5  N   UNL     1       0.247  10.208  20.646  0.00  0.00    +0.000 N 
ATOM      6  C   UNL     1      -0.251  10.518  21.931  0.00  0.00    +0.000 C 
ATOM      7  O   UNL     1      -0.159   9.880  22.963  0.00  0.00    +0.000 OA
BRANCH   5   8
ATOM      8  C   UNL     1       0.939   9.037  20.274  0.00  0.00    +0.000 A 
ATOM      9  C   UNL     1       1.544   8.914  19.024  0.00  0.00    +0.000 A 
ATOM     10  C   UNL     1       2.271   7.769  18.682  0.00  0.00    +0.000 A 
ATOM     11  C   UNL     1       2.435   6.708  19.583  0.00  0.00    +0.000 A 
ATOM     12  C   UNL     1       1.777   6.818  20.816  0.00  0.00    +0.000 A 
ATOM     13  C   UNL     1       1.057   7.967  21.162  0.00  0.00    +0.000 A 
BRANCH  11  14
ATOM     14  C   UNL     1       3.234   5.461  19.202  0.00  0.00    +0.000 C 
ATOM     15  C   UNL     1       3.074   4.270  20.176  0.00  0.00    +0.000 C 
ATOM     16  C   UNL     1       1.677   3.652  20.118  0.00  0.00    +0.000 C 
ATOM     17  C   UNL     1       1.285   3.238  18.701  0.00  0.00    +0.000 C 
ATOM     18  C   UNL     1       1.550   4.319  17.657  0.00  0.00    +0.000 C 
ATOM     19  C   UNL     1       2.954   4.916  17.784  0.00  0.00    +0.000 C 
ENDBRANCH  11  14
ENDBRANCH   5   8
ENDBRANCH   1   2
BRANCH   1  20
ATOM     20  C   UNL     1      -2.205  13.703  22.502  0.00  0.00    +0.000 C 
BRANCH  20  21
ATOM     21  C   UNL     1      -3.305  14.191  23.445  0.00  0.00    +0.000 C 
BRANCH  21  22
ATOM     22  C   UNL     1      -4.556  13.307  23.393  0.00  0.00    +0.000 C 
BRANCH  22  23
ATOM     23  C   UNL     1      -4.747  12.694  22.011  0.00  0.00    +0.000 C 
BRANCH  23  24
ATOM     24  O   UNL     1      -5.617  13.490  21.207  0.00  0.00    +0.000 OA
BRANCH  24  29
ATOM     25  C   UNL     1      -4.899  11.859  17.935  0.00  0.00    +0.000 A 
ATOM     26  C   UNL     1      -5.814  12.565  17.147  0.00  0.00    +0.000 A 
ATOM     27  C   UNL     1      -6.652  13.524  17.725  0.00  0.00    +0.000 A 
ATOM     28  C   UNL     1      -6.570  13.799  19.090  0.00  0.00    +0.000 A 
ATOM     29  C   UNL     1      -5.627  13.142  19.877  0.00  0.00    +0.000 A 
ATOM     30  C   UNL     1      -4.783  12.195  19.283  0.00  0.00    +0.000 A 
BRANCH  25  31
ATOM     31  N   UNL     1      -4.118  10.855  17.316  0.00  0.00    +0.000 N 
ATOM     32  H   UNL     1      -4.050   9.988  17.832  0.00  0.00    +0.000 HD
BRANCH  31  33
ATOM     33  C   UNL     1      -3.199  10.957  16.294  0.00  0.00    +0.000 C 
ATOM     34  S   UNL     1      -3.141  10.230  14.798  0.00  0.00    +0.000 S 
BRANCH  33  35
ATOM     35  N   UNL     1      -2.225  11.874  16.576  0.00  0.00    +0.000 N 
ATOM     36  H   UNL     1      -1.490  11.559  17.201  0.00  0.00    +0.000 HD
ATOM     37  H   UNL     1      -2.440  12.860  16.608  0.00  0.00    +0.000 HD
ENDBRANCH  33  35
ENDBRANCH  31  33
ENDBRANCH  25  31
ENDBRANCH  24  29
ENDBRANCH  23  24
ENDBRANCH  22  23
ENDBRANCH  21  22
ENDBRANCH  20  21
ENDBRANCH   1  20
TORSDOF 12
ENDMDL
MODEL 6
REMARK VINA RESULT:      -7.3      4.190     10.004
REMARK  Name = 
REMARK  12 active torsions:
REMARK  status: ('A' for Active; 'I' for Inactive)
REMARK    1  A    between atoms: N_1  and  C_2
REMARK    2  A    between atoms: C_2  and  N_4
REMARK    3  A    between atoms: N_4  and  C_5
REMARK    4  A    between atoms: C_9  and  O_10
REMARK    5  A    between atoms: O_10  and  C_11
REMARK    6  A    between atoms: C_11  and  C_12
REMARK    7  A    between atoms: C_12  and  C_13
REMARK    8  A    between atoms: C_13  and  C_14
REMARK    9  A    between atoms: C_14  and  C_15
REMARK   10  A    between atoms: C_15  and  N_16
REMARK   11  A    between atoms: N_19  and  C_20
REMARK   12  A    between atoms: C_23  and  C_24
REMARK                            x       y       z     vdW  Elec       q    Type
REMARK                         _______ _______ _______ _____ _____    ______ ____
ROOT
ATOM      1  C   UNL     1       2.108   6.608  19.599  0.00  0.00    +0.000 C 
ENDROOT
BRANCH   1   2
ATOM      2  N   UNL     1       1.748   7.907  20.131  0.00  0.00    +0.000 N 
ATOM      3  C   UNL     1       1.079   8.096  21.396  0.00  0.00    +0.000 C 
ATOM      4  C   UNL     1       1.044   9.606  21.529  0.00  0.00    +0.000 C 
ATOM      5  N   UNL     1       1.083  10.065  20.159  0.00  0.00    +0.000 N 
ATOM      6  C   UNL     1       1.587   9.043  19.325  0.00  0.00    +0.000 C 
ATOM      7  O   UNL     1       1.857   9.084  18.140  0.00  0.00    +0.000 OA
BRANCH   5   8
ATOM      8  C   UNL     1       0.738  11.375  19.766  0.00  0.00    +0.000 A 
ATOM      9  C   UNL     1      -0.533  11.897  20.004  0.00  0.00    +0.000 A 
ATOM     10  C   UNL     1      -0.850  13.214  19.656  0.00  0.00    +0.000 A 
ATOM     11  C   UNL     1       0.096  14.066  19.071  0.00  0.00    +0.000 A 
ATOM     12  C   UNL     1       1.354  13.515  18.785  0.00  0.00    +0.000 A 
ATOM     13  C   UNL     1       1.675  12.201  19.142  0.00  0.00    +0.000 A 
BRANCH  11  14
ATOM     14  C   UNL     1      -0.258  15.506  18.696  0.00  0.00    +0.000 C 
ATOM     15  C   UNL     1      -1.172  16.232  19.711  0.00  0.00    +0.000 C 
ATOM     16  C   UNL     1      -0.459  16.525  21.032  0.00  0.00    +0.000 C 
ATOM     17  C   UNL     1       0.837  17.307  20.828  0.00  0.00    +0.000 C 
ATOM     18  C   UNL     1       1.730  16.729  19.734  0.00  0.00    +0.000 C 
ATOM     19  C   UNL     1       0.954  16.432  18.449  0.00  0.00    +0.000 C 
ENDBRANCH  11  14
ENDBRANCH   5   8
ENDBRANCH   1   2
BRANCH   1  20
ATOM     20  C   UNL     1       1.986   5.540  20.675  0.00  0.00    +0.000 C 
BRANCH  20  21
ATOM     21  C   UNL     1       0.930   4.491  20.328  0.00  0.00    +0.000 C 
BRANCH  21  22
ATOM     22  C   UNL     1       1.311   3.090  20.819  0.00  0.00    +0.000 C 
BRANCH  22  23
ATOM     23  C   UNL     1       2.091   2.321  19.759  0.00  0.00    +0.000 C 
BRANCH  23  24
ATOM     24  O   UNL     1       3.498   2.491  19.927  0.00  0.00    +0.000 OA
BRANCH  24  29
ATOM     25  C   UNL     1       5.750   4.831  18.101  0.00  0.00    +0.000 A 
ATOM     26  C   UNL     1       5.172   4.725  16.832  0.00  0.00    +0.000 A 
ATOM     27  C   UNL     1       4.088   3.867  16.618  0.00  0.00    +0.000 A 
ATOM     28  C   UNL     1       3.562   3.122  17.673  0.00  0.00    +0.000 A 
ATOM     29  C   UNL     1       4.093   3.258  18.953  0.00  0.00    +0.000 A 
ATOM     30  C   UNL     1       5.167   4.133  19.158  0.00  0.00    +0.000 A 
BRANCH  25  31
ATOM     31  N   UNL     1       6.883   5.664  18.253  0.00  0.00    +0.000 N 
ATOM     32  H   UNL     1       7.262   5.704  19.189  0.00  0.00    +0.000 HD
BRANCH  31  33
ATOM     33  C   UNL     1       7.367   6.653  17.424  0.00  0.00    +0.000 C 
ATOM     34  S   UNL     1       7.851   8.212  17.748  0.00  0.00    +0.000 S 
BRANCH  33  35
ATOM     35  N   UNL     1       7.521   6.211  16.140  0.00  0.00    +0.000 N 
ATOM     36  H   UNL     1       6.705   5.778  15.720  0.00  0.00    +0.000 HD
ATOM     37  H   UNL     1       8.416   5.872  15.817  0.00  0.00    +0.000 HD
ENDBRANCH  33  35
ENDBRANCH  31  33
ENDBRANCH  25  31
ENDBRANCH  24  29
ENDBRANCH  23  24
ENDBRANCH  22  23
ENDBRANCH  21  22
ENDBRANCH  20  21
ENDBRANCH   1  20
TORSDOF 12
ENDMDL
MODEL 7
REMARK VINA RESULT:      -7.2      3.761     10.296
REMARK  Name = 
REMARK  12 active torsions:
REMARK  status: ('A' for Active; 'I' for Inactive)
REMARK    1  A    between atoms: N_1  and  C_2
REMARK    2  A    between atoms: C_2  and  N_4
REMARK    3  A    between atoms: N_4  and  C_5
REMARK    4  A    between atoms: C_9  and  O_10
REMARK    5  A    between atoms: O_10  and  C_11
REMARK    6  A    between atoms: C_11  and  C_12
REMARK    7  A    between atoms: C_12  and  C_13
REMARK    8  A    between atoms: C_13  and  C_14
REMARK    9  A    between atoms: C_14  and  C_15
REMARK   10  A    between atoms: C_15  and  N_16
REMARK   11  A    between atoms: N_19  and  C_20
REMARK   12  A    between atoms: C_23  and  C_24
REMARK                            x       y       z     vdW  Elec       q    Type
REMARK                         _______ _______ _______ _____ _____    ______ ____
ROOT
ATOM      1  C   UNL     1       2.533   6.683  19.618  0.00  0.00    +0.000 C 
ENDROOT
BRANCH   1   2
ATOM      2  N   UNL     1       1.807   7.935  19.541  0.00  0.00    +0.000 N 
ATOM      3  C   UNL     1       1.839   8.809  18.393  0.00  0.00    +0.000 C 
ATOM      4  C   UNL     1       0.845   9.890  18.772  0.00  0.00    +0.000 C 
ATOM      5  N   UNL     1       0.868   9.874  20.218  0.00  0.00    +0.000 N 
ATOM      6  C   UNL     1       1.387   8.643  20.676  0.00  0.00    +0.000 C 
ATOM      7  O   UNL     1       1.470   8.222  21.814  0.00  0.00    +0.000 OA
BRANCH   5   8
ATOM      8  C   UNL     1       0.360  10.920  21.016  0.00  0.00    +0.000 A 
ATOM      9  C   UNL     1       0.778  12.238  20.843  0.00  0.00    +0.000 A 
ATOM     10  C   UNL     1       0.232  13.276  21.605  0.00  0.00    +0.000 A 
ATOM     11  C   UNL     1      -0.765  13.038  22.561  0.00  0.00    +0.000 A 
ATOM     12  C   UNL     1      -1.139  11.702  22.767  0.00  0.00    +0.000 A 
ATOM     13  C   UNL     1      -0.600  10.665  21.998  0.00  0.00    +0.000 A 
BRANCH  11  14
ATOM     14  C   UNL     1      -1.359  14.179  23.389  0.00  0.00    +0.000 C 
ATOM     15  C   UNL     1      -1.367  15.554  22.681  0.00  0.00    +0.000 C 
ATOM     16  C   UNL     1      -2.353  15.603  21.513  0.00  0.00    +0.000 C 
ATOM     17  C   UNL     1      -3.768  15.212  21.934  0.00  0.00    +0.000 C 
ATOM     18  C   UNL     1      -3.824  13.933  22.764  0.00  0.00    +0.000 C 
ATOM     19  C   UNL     1      -2.796  13.933  23.899  0.00  0.00    +0.000 C 
ENDBRANCH  11  14
ENDBRANCH   5   8
ENDBRANCH   1   2
BRANCH   1  20
ATOM     20  C   UNL     1       1.611   5.560  20.069  0.00  0.00    +0.000 C 
BRANCH  20  21
ATOM     21  C   UNL     1       2.215   4.743  21.211  0.00  0.00    +0.000 C 
BRANCH  21  22
ATOM     22  C   UNL     1       1.552   3.370  21.365  0.00  0.00    +0.000 C 
BRANCH  22  23
ATOM     23  C   UNL     1       2.080   2.379  20.333  0.00  0.00    +0.000 C 
BRANCH  23  24
ATOM     24  O   UNL     1       3.489   2.519  20.156  0.00  0.00    +0.000 OA
BRANCH  24  29
ATOM     25  C   UNL     1       5.379   4.123  17.374  0.00  0.00    +0.000 A 
ATOM     26  C   UNL     1       4.411   4.004  16.372  0.00  0.00    +0.000 A 
ATOM     27  C   UNL     1       3.191   3.373  16.638  0.00  0.00    +0.000 A 
ATOM     28  C   UNL     1       2.921   2.875  17.912  0.00  0.00    +0.000 A 
ATOM     29  C   UNL     1       3.853   3.034  18.934  0.00  0.00    +0.000 A 
ATOM     30  C   UNL     1       5.064   3.681  18.658  0.00  0.00    +0.000 A 
BRANCH  25  31
ATOM     31  N   UNL     1       6.621   4.712  17.039  0.00  0.00    +0.000 N 
ATOM     32  H   UNL     1       7.213   4.150  16.443  0.00  0.00    +0.000 HD
BRANCH  31  33
ATOM     33  C   UNL     1       7.281   5.771  17.624  0.00  0.00    +0.000 C 
ATOM     34  S   UNL     1       7.886   5.968  19.162  0.00  0.00    +0.000 S 
BRANCH  33  35
ATOM     35  N   UNL     1       7.513   6.780  16.733  0.00  0.00    +0.000 N 
ATOM     36  H   UNL     1       7.285   6.577  15.765  0.00  0.00    +0.000 HD
ATOM     37  H   UNL     1       8.270   7.433  16.880  0.00  0.00    +0.000 HD
ENDBRANCH  33  35
ENDBRANCH  31  33
ENDBRANCH  25  31
ENDBRANCH  24  29
ENDBRANCH  23  24
ENDBRANCH  22  23
ENDBRANCH  21  22
ENDBRANCH  20  21
ENDBRANCH   1  20
TORSDOF 12
ENDMDL
MODEL 8
REMARK VINA RESULT:      -7.1      5.759      8.270
REMARK  Name = 
REMARK  12 active torsions:
REMARK  status: ('A' for Active; 'I' for Inactive)
REMARK    1  A    between atoms: N_1  and  C_2
REMARK    2  A    between atoms: C_2  and  N_4
REMARK    3  A    between atoms: N_4  and  C_5
REMARK    4  A    between atoms: C_9  and  O_10
REMARK    5  A    between atoms: O_10  and  C_11
REMARK    6  A    between atoms: C_11  and  C_12
REMARK    7  A    between atoms: C_12  and  C_13
REMARK    8  A    between atoms: C_13  and  C_14
REMARK    9  A    between atoms: C_14  and  C_15
REMARK   10  A    between atoms: C_15  and  N_16
REMARK   11  A    between atoms: N_19  and  C_20
REMARK   12  A    between atoms: C_23  and  C_24
REMARK                            x       y       z     vdW  Elec       q    Type
REMARK                         _______ _______ _______ _____ _____    ______ ____
ROOT
ATOM      1  C   UNL     1      -0.117  13.523  20.764  0.00  0.00    +0.000 C 
ENDROOT
BRANCH   1   2
ATOM      2  N   UNL     1       0.046  12.314  19.983  0.00  0.00    +0.000 N 
ATOM      3  C   UNL     1      -0.893  11.878  18.977  0.00  0.00    +0.000 C 
ATOM      4  C   UNL     1      -0.212  10.655  18.394  0.00  0.00    +0.000 C 
ATOM      5  N   UNL     1       0.625  10.190  19.478  0.00  0.00    +0.000 N 
ATOM      6  C   UNL     1       0.838  11.236  20.402  0.00  0.00    +0.000 C 
ATOM      7  O   UNL     1       1.560  11.258  21.381  0.00  0.00    +0.000 OA
BRANCH   5   8
ATOM      8  C   UNL     1       1.194   8.900  19.523  0.00  0.00    +0.000 A 
ATOM      9  C   UNL     1       1.863   8.359  18.426  0.00  0.00    +0.000 A 
ATOM     10  C   UNL     1       2.466   7.099  18.497  0.00  0.00    +0.000 A 
ATOM     11  C   UNL     1       2.437   6.337  19.673  0.00  0.00    +0.000 A 
ATOM     12  C   UNL     1       1.715   6.866  20.753  0.00  0.00    +0.000 A 
ATOM     13  C   UNL     1       1.119   8.130  20.685  0.00  0.00    +0.000 A 
BRANCH  11  14
ATOM     14  C   UNL     1       3.102   4.961  19.743  0.00  0.00    +0.000 C 
ATOM     15  C   UNL     1       2.530   4.022  20.831  0.00  0.00    +0.000 C 
ATOM     16  C   UNL     1       1.110   3.556  20.510  0.00  0.00    +0.000 C 
ATOM     17  C   UNL     1       1.013   2.899  19.134  0.00  0.00    +0.000 C 
ATOM     18  C   UNL     1       1.688   3.705  18.027  0.00  0.00    +0.000 C 
ATOM     19  C   UNL     1       3.093   4.165  18.420  0.00  0.00    +0.000 C 
ENDBRANCH  11  14
ENDBRANCH   5   8
ENDBRANCH   1   2
BRANCH   1  20
ATOM     20  C   UNL     1       0.962  14.535  20.410  0.00  0.00    +0.000 C 
BRANCH  20  21
ATOM     21  C   UNL     1       1.075  14.752  18.901  0.00  0.00    +0.000 C 
BRANCH  21  22
ATOM     22  C   UNL     1       2.341  14.122  18.310  0.00  0.00    +0.000 C 
BRANCH  22  23
ATOM     23  C   UNL     1       3.598  14.827  18.808  0.00  0.00    +0.000 C 
BRANCH  23  24
ATOM     24  O   UNL     1       4.586  14.909  17.781  0.00  0.00    +0.000 OA
BRANCH  24  29
ATOM     25  C   UNL     1       8.292  14.680  18.086  0.00  0.00    +0.000 A 
ATOM     26  C   UNL     1       8.428  15.225  19.367  0.00  0.00    +0.000 A 
ATOM     27  C   UNL     1       7.303  15.676  20.067  0.00  0.00    +0.000 A 
ATOM     28  C   UNL     1       6.033  15.568  19.500  0.00  0.00    +0.000 A 
ATOM     29  C   UNL     1       5.877  14.979  18.248  0.00  0.00    +0.000 A 
ATOM     30  C   UNL     1       7.010  14.517  17.565  0.00  0.00    +0.000 A 
BRANCH  25  31
ATOM     31  N   UNL     1       9.465  14.297  17.395  0.00  0.00    +0.000 N 
ATOM     32  H   UNL     1       9.560  14.686  16.467  0.00  0.00    +0.000 HD
BRANCH  31  33
ATOM     33  C   UNL     1      10.337  13.259  17.645  0.00  0.00    +0.000 C 
ATOM     34  S   UNL     1      11.977  13.126  17.398  0.00  0.00    +0.000 S 
BRANCH  33  35
ATOM     35  N   UNL     1       9.716  12.210  18.262  0.00  0.00    +0.000 N 
ATOM     36  H   UNL     1      10.304  11.635  18.856  0.00  0.00    +0.000 HD
ATOM     37  H   UNL     1       8.940  11.738  17.819  0.00  0.00    +0.000 HD
ENDBRANCH  33  35
ENDBRANCH  31  33
ENDBRANCH  25  31
ENDBRANCH  24  29
ENDBRANCH  23  24
ENDBRANCH  22  23
ENDBRANCH  21  22
ENDBRANCH  20  21
ENDBRANCH   1  20
TORSDOF 12
ENDMDL
MODEL 9
REMARK VINA RESULT:      -7.1      6.055      8.608
REMARK  Name = 
REMARK  12 active torsions:
REMARK  status: ('A' for Active; 'I' for Inactive)
REMARK    1  A    between atoms: N_1  and  C_2
REMARK    2  A    between atoms: C_2  and  N_4
REMARK    3  A    between atoms: N_4  and  C_5
REMARK    4  A    between atoms: C_9  and  O_10
REMARK    5  A    between atoms: O_10  and  C_11
REMARK    6  A    between atoms: C_11  and  C_12
REMARK    7  A    between atoms: C_12  and  C_13
REMARK    8  A    between atoms: C_13  and  C_14
REMARK    9  A    between atoms: C_14  and  C_15
REMARK   10  A    between atoms: C_15  and  N_16
REMARK   11  A    between atoms: N_19  and  C_20
REMARK   12  A    between atoms: C_23  and  C_24
REMARK                            x       y       z     vdW  Elec       q    Type
REMARK                         _______ _______ _______ _____ _____    ______ ____
ROOT
ATOM      1  C   UNL     1       0.960  13.039  18.342  0.00  0.00    +0.000 C 
ENDROOT
BRANCH   1   2
ATOM      2  N   UNL     1       0.815  11.781  19.047  0.00  0.00    +0.000 N 
ATOM      3  C   UNL     1       0.463  11.683  20.443  0.00  0.00    +0.000 C 
ATOM      4  C   UNL     1       0.332  10.186  20.648  0.00  0.00    +0.000 C 
ATOM      5  N   UNL     1       1.195   9.632  19.628  0.00  0.00    +0.000 N 
ATOM      6  C   UNL     1       1.420  10.592  18.617  0.00  0.00    +0.000 C 
ATOM      7  O   UNL     1       2.005  10.467  17.558  0.00  0.00    +0.000 OA
BRANCH   5   8
ATOM      8  C   UNL     1       1.653   8.298  19.636  0.00  0.00    +0.000 A 
ATOM      9  C   UNL     1       2.347   7.759  18.554  0.00  0.00    +0.000 A 
ATOM     10  C   UNL     1       2.842   6.451  18.592  0.00  0.00    +0.000 A 
ATOM     11  C   UNL     1       2.674   5.636  19.720  0.00  0.00    +0.000 A 
ATOM     12  C   UNL     1       1.927   6.168  20.780  0.00  0.00    +0.000 A 
ATOM     13  C   UNL     1       1.440   7.480  20.747  0.00  0.00    +0.000 A 
BRANCH  11  14
ATOM     14  C   UNL     1       3.220   4.207  19.754  0.00  0.00    +0.000 C 
ATOM     15  C   UNL     1       2.458   3.248  20.698  0.00  0.00    +0.000 C 
ATOM     16  C   UNL     1       1.052   2.925  20.192  0.00  0.00    +0.000 C 
ATOM     17  C   UNL     1       1.062   2.375  18.767  0.00  0.00    +0.000 C 
ATOM     18  C   UNL     1       1.917   3.195  17.804  0.00  0.00    +0.000 C 
ATOM     19  C   UNL     1       3.300   3.508  18.379  0.00  0.00    +0.000 C 
ENDBRANCH  11  14
ENDBRANCH   5   8
ENDBRANCH   1   2
BRANCH   1  20
ATOM     20  C   UNL     1       0.956  14.202  19.322  0.00  0.00    +0.000 C 
BRANCH  20  21
ATOM     21  C   UNL     1       2.368  14.704  19.625  0.00  0.00    +0.000 C 
BRANCH  21  22
ATOM     22  C   UNL     1       2.985  15.465  18.446  0.00  0.00    +0.000 C 
BRANCH  22  23
ATOM     23  C   UNL     1       4.265  14.794  17.961  0.00  0.00    +0.000 C 
BRANCH  23  24
ATOM     24  O   UNL     1       5.352  15.718  17.923  0.00  0.00    +0.000 OA
BRANCH  24  29
ATOM     25  C   UNL     1       8.841  14.720  18.766  0.00  0.00    +0.000 A 
ATOM     26  C   UNL     1       8.650  14.424  20.119  0.00  0.00    +0.000 A 
ATOM     27  C   UNL     1       7.393  14.594  20.710  0.00  0.00    +0.000 A 
ATOM     28  C   UNL     1       6.314  15.042  19.948  0.00  0.00    +0.000 A 
ATOM     29  C   UNL     1       6.477  15.290  18.588  0.00  0.00    +0.000 A 
ATOM     30  C   UNL     1       7.737  15.100  18.006  0.00  0.00    +0.000 A 
BRANCH  25  31
ATOM     31  N   UNL     1      10.144  14.592  18.231  0.00  0.00    +0.000 N 
ATOM     32  H   UNL     1      10.690  15.443  18.225  0.00  0.00    +0.000 HD
BRANCH  31  33
ATOM     33  C   UNL     1      10.682  13.593  17.448  0.00  0.00    +0.000 C 
ATOM     34  S   UNL     1      10.963  11.984  17.769  0.00  0.00    +0.000 S 
BRANCH  33  35
ATOM     35  N   UNL     1      10.952  14.028  16.182  0.00  0.00    +0.000 N 
ATOM     36  H   UNL     1      11.680  14.731  16.101  0.00  0.00    +0.000 HD
ATOM     37  H   UNL     1      10.223  14.067  15.484  0.00  0.00    +0.000 HD
ENDBRANCH  33  35
ENDBRANCH  31  33
ENDBRANCH  25  31
ENDBRANCH  24  29
ENDBRANCH  23  24
ENDBRANCH  22  23
ENDBRANCH  21  22
ENDBRANCH  20  21
ENDBRANCH   1  20
TORSDOF 12
ENDMDL
