MODEL 1
REMARK VINA RESULT:      -7.5      0.000      0.000
REMARK  Name = 
REMARK  5 active torsions:
REMARK  status: ('A' for Active; 'I' for Inactive)
REMARK    1  A    between atoms: C_1  and  C_2
REMARK    2  A    between atoms: C_5  and  N_6
REMARK    3  A    between atoms: C_7  and  C_9
REMARK    4  A    between atoms: C_10  and  C_11
REMARK    5  A    between atoms: C_16  and  N_17
REMARK                            x       y       z     vdW  Elec       q    Type
REMARK                         _______ _______ _______ _____ _____    ______ ____
ROOT
ATOM      1  N   UNL     1       8.876   9.131  18.933  0.00  0.00    +0.000 N 
ATOM      2  C   UNL     1       7.956   8.954  17.920  0.00  0.00    +0.000 C 
ATOM      3  O   UNL     1       7.583   9.793  17.107  0.00  0.00    +0.000 OA
ATOM      4  H   UNL     1       9.096   8.333  19.514  0.00  0.00    +0.000 HD
ENDROOT
BRANCH   1   9
ATOM      5  C   UNL     1      11.705  13.988  20.120  0.00  0.00    +0.000 C 
ATOM      6  C   UNL     1      10.947  12.728  19.825  0.00  0.00    +0.000 A 
ATOM      7  C   UNL     1      10.204  12.092  20.820  0.00  0.00    +0.000 A 
ATOM      8  C   UNL     1       9.507  10.909  20.545  0.00  0.00    +0.000 A 
ATOM      9  C   UNL     1       9.539  10.337  19.272  0.00  0.00    +0.000 A 
ATOM     10  C   UNL     1      10.281  10.979  18.273  0.00  0.00    +0.000 A 
ATOM     11  C   UNL     1      10.978  12.163  18.546  0.00  0.00    +0.000 A 
ENDBRANCH   1   9
BRANCH   2  12
ATOM     12  C   UNL     1       7.358   7.586  17.912  0.00  0.00    +0.000 C 
ATOM     13  C   UNL     1       6.294   7.357  17.122  0.00  0.00    +0.000 C 
BRANCH  13  14
ATOM     14  C   UNL     1       5.515   6.116  17.163  0.00  0.00    +0.000 A 
ATOM     15  C   UNL     1       4.213   6.206  17.679  0.00  0.00    +0.000 A 
ATOM     16  C   UNL     1       3.370   5.090  17.704  0.00  0.00    +0.000 A 
ATOM     17  C   UNL     1       3.809   3.864  17.207  0.00  0.00    +0.000 A 
ATOM     18  C   UNL     1       5.097   3.747  16.687  0.00  0.00    +0.000 A 
ATOM     19  C   UNL     1       5.938   4.872  16.674  0.00  0.00    +0.000 A 
BRANCH  19  20
ATOM     20  N   UNL     1       7.272   4.700  16.130  0.00  0.00    +0.000 N 
ATOM     21  O   UNL     1       7.474   5.118  14.982  0.00  0.00    +0.000 OA
ATOM     22  O   UNL     1       8.124   4.203  16.878  0.00  0.00    +0.000 OA
ENDBRANCH  19  20
ENDBRANCH  13  14
ENDBRANCH   2  12
TORSDOF 4
ENDMDL
MODEL 2
REMARK VINA RESULT:      -7.4      5.150      6.998
REMARK  Name = 
REMARK  5 active torsions:
REMARK  status: ('A' for Active; 'I' for Inactive)
REMARK    1  A    between atoms: C_1  and  C_2
REMARK    2  A    between atoms: C_5  and  N_6
REMARK    3  A    between atoms: C_7  and  C_9
REMARK    4  A    between atoms: C_10  and  C_11
REMARK    5  A    between atoms: C_16  and  N_17
REMARK                            x       y       z     vdW  Elec       q    Type
REMARK                         _______ _______ _______ _____ _____    ______ ____
ROOT
ATOM      1  N   UNL     1       2.378   7.370  19.802  0.00  0.00    +0.000 N 
ATOM      2  C   UNL     1       2.333   6.004  19.993  0.00  0.00    +0.000 C 
ATOM      3  O   UNL     1       1.558   5.385  20.713  0.00  0.00    +0.000 OA
ATOM      4  H   UNL     1       3.067   7.733  19.156  0.00  0.00    +0.000 HD
ENDROOT
BRANCH   1   9
ATOM      5  C   UNL     1      -0.879  11.444  22.210  0.00  0.00    +0.000 C 
ATOM      6  C   UNL     1      -0.038  10.363  21.598  0.00  0.00    +0.000 A 
ATOM      7  C   UNL     1       0.593   9.410  22.399  0.00  0.00    +0.000 A 
ATOM      8  C   UNL     1       1.388   8.410  21.827  0.00  0.00    +0.000 A 
ATOM      9  C   UNL     1       1.569   8.340  20.444  0.00  0.00    +0.000 A 
ATOM     10  C   UNL     1       0.931   9.295  19.641  0.00  0.00    +0.000 A 
ATOM     11  C   UNL     1       0.135  10.297  20.212  0.00  0.00    +0.000 A 
ENDBRANCH   1   9
BRANCH   2  12
ATOM     12  C   UNL     1       3.406   5.278  19.250  0.00  0.00    +0.000 C 
ATOM     13  C   UNL     1       4.168   5.971  18.388  0.00  0.00    +0.000 C 
BRANCH  13  14
ATOM     14  C   UNL     1       5.126   5.340  17.474  0.00  0.00    +0.000 A 
ATOM     15  C   UNL     1       4.605   4.809  16.284  0.00  0.00    +0.000 A 
ATOM     16  C   UNL     1       5.444   4.240  15.321  0.00  0.00    +0.000 A 
ATOM     17  C   UNL     1       6.823   4.197  15.525  0.00  0.00    +0.000 A 
ATOM     18  C   UNL     1       7.367   4.720  16.697  0.00  0.00    +0.000 A 
ATOM     19  C   UNL     1       6.513   5.281  17.661  0.00  0.00    +0.000 A 
BRANCH  19  20
ATOM     20  N   UNL     1       7.125   5.805  18.868  0.00  0.00    +0.000 N 
ATOM     21  O   UNL     1       6.888   5.210  19.929  0.00  0.00    +0.000 OA
ATOM     22  O   UNL     1       7.886   6.772  18.737  0.00  0.00    +0.000 OA
ENDBRANCH  19  20
ENDBRANCH  13  14
ENDBRANCH   2  12
TORSDOF 4
ENDMDL
MODEL 3
REMARK VINA RESULT:      -7.4      5.451      7.188
REMARK  Name = 
REMARK  5 active torsions:
REMARK  status: ('A' for Active; 'I' for Inactive)
REMARK    1  A    between atoms: C_1  and  C_2
REMARK    2  A    between atoms: C_5  and  N_6
REMARK    3  A    between atoms: C_7  and  C_9
REMARK    4  A    between atoms: C_10  and  C_11
REMARK    5  A    between atoms: C_16  and  N_17
REMARK                            x       y       z     vdW  Elec       q    Type
REMARK                         _______ _______ _______ _____ _____    ______ ____
ROOT
ATOM      1  N   UNL     1       1.961   7.977  19.835  0.00  0.00    +0.000 N 
ATOM      2  C   UNL     1       2.086   7.967  18.461  0.00  0.00    +0.000 C 
ATOM      3  O   UNL     1       1.563   8.740  17.667  0.00  0.00    +0.000 OA
ATOM      4  H   UNL     1       2.474   7.281  20.361  0.00  0.00    +0.000 HD
ENDROOT
BRANCH   1   9
ATOM      5  C   UNL     1      -1.440  11.341  23.017  0.00  0.00    +0.000 C 
ATOM      6  C   UNL     1      -0.534  10.481  22.187  0.00  0.00    +0.000 A 
ATOM      7  C   UNL     1       0.253  11.039  21.178  0.00  0.00    +0.000 A 
ATOM      8  C   UNL     1       1.088  10.232  20.396  0.00  0.00    +0.000 A 
ATOM      9  C   UNL     1       1.155   8.853  20.604  0.00  0.00    +0.000 A 
ATOM     10  C   UNL     1       0.369   8.296  21.621  0.00  0.00    +0.000 A 
ATOM     11  C   UNL     1      -0.468   9.101  22.405  0.00  0.00    +0.000 A 
ENDBRANCH   1   9
BRANCH   2  12
ATOM     12  C   UNL     1       2.922   6.834  17.963  0.00  0.00    +0.000 C 
ATOM     13  C   UNL     1       4.215   7.068  17.683  0.00  0.00    +0.000 C 
BRANCH  13  14
ATOM     14  C   UNL     1       5.084   6.090  17.022  0.00  0.00    +0.000 A 
ATOM     15  C   UNL     1       5.202   6.192  15.627  0.00  0.00    +0.000 A 
ATOM     16  C   UNL     1       6.054   5.344  14.912  0.00  0.00    +0.000 A 
ATOM     17  C   UNL     1       6.810   4.380  15.577  0.00  0.00    +0.000 A 
ATOM     18  C   UNL     1       6.713   4.258  16.962  0.00  0.00    +0.000 A 
ATOM     19  C   UNL     1       5.849   5.109  17.670  0.00  0.00    +0.000 A 
BRANCH  19  20
ATOM     20  N   UNL     1       5.776   4.940  19.108  0.00  0.00    +0.000 N 
ATOM     21  O   UNL     1       4.842   4.258  19.553  0.00  0.00    +0.000 OA
ATOM     22  O   UNL     1       6.688   5.440  19.780  0.00  0.00    +0.000 OA
ENDBRANCH  19  20
ENDBRANCH  13  14
ENDBRANCH   2  12
TORSDOF 4
ENDMDL
MODEL 4
REMARK VINA RESULT:      -7.4      5.883      7.655
REMARK  Name = 
REMARK  5 active torsions:
REMARK  status: ('A' for Active; 'I' for Inactive)
REMARK    1  A    between atoms: C_1  and  C_2
REMARK    2  A    between atoms: C_5  and  N_6
REMARK    3  A    between atoms: C_7  and  C_9
REMARK    4  A    between atoms: C_10  and  C_11
REMARK    5  A    between atoms: C_16  and  N_17
REMARK                            x       y       z     vdW  Elec       q    Type
REMARK                         _______ _______ _______ _____ _____    ______ ____
ROOT
ATOM      1  N   UNL     1       1.234   8.878  19.655  0.00  0.00    +0.000 N 
ATOM      2  C   UNL     1       1.827   9.384  18.517  0.00  0.00    +0.000 C 
ATOM      3  O   UNL     1       1.839  10.554  18.150  0.00  0.00    +0.000 OA
ATOM      4  H   UNL     1       1.328   7.886  19.834  0.00  0.00    +0.000 HD
ENDROOT
BRANCH   1   9
ATOM      5  C   UNL     1      -1.876  11.993  23.346  0.00  0.00    +0.000 C 
ATOM      6  C   UNL     1      -1.070  11.159  22.396  0.00  0.00    +0.000 A 
ATOM      7  C   UNL     1      -0.311  10.082  22.857  0.00  0.00    +0.000 A 
ATOM      8  C   UNL     1       0.450   9.312  21.970  0.00  0.00    +0.000 A 
ATOM      9  C   UNL     1       0.469   9.601  20.604  0.00  0.00    +0.000 A 
ATOM     10  C   UNL     1      -0.297  10.678  20.141  0.00  0.00    +0.000 A 
ATOM     11  C   UNL     1      -1.059  11.450  21.028  0.00  0.00    +0.000 A 
ENDBRANCH   1   9
BRANCH   2  12
ATOM     12  C   UNL     1       2.457   8.327  17.670  0.00  0.00    +0.000 C 
ATOM     13  C   UNL     1       2.869   7.194  18.263  0.00  0.00    +0.000 C 
BRANCH  13  14
ATOM     14  C   UNL     1       3.658   6.168  17.574  0.00  0.00    +0.000 A 
ATOM     15  C   UNL     1       4.849   6.592  16.965  0.00  0.00    +0.000 A 
ATOM     16  C   UNL     1       5.701   5.679  16.336  0.00  0.00    +0.000 A 
ATOM     17  C   UNL     1       5.383   4.322  16.308  0.00  0.00    +0.000 A 
ATOM     18  C   UNL     1       4.207   3.873  16.907  0.00  0.00    +0.000 A 
ATOM     19  C   UNL     1       3.355   4.800  17.529  0.00  0.00    +0.000 A 
BRANCH  19  20
ATOM     20  N   UNL     1       2.139   4.288  18.132  0.00  0.00    +0.000 N 
ATOM     21  O   UNL     1       2.171   4.031  19.343  0.00  0.00    +0.000 OA
ATOM     22  O   UNL     1       1.143   4.202  17.402  0.00  0.00    +0.000 OA
ENDBRANCH  19  20
ENDBRANCH  13  14
ENDBRANCH   2  12
TORSDOF 4
ENDMDL
MODEL 5
REMARK VINA RESULT:      -7.4      5.991      8.800
REMARK  Name = 
REMARK  5 active torsions:
REMARK  status: ('A' for Active; 'I' for Inactive)
REMARK    1  A    between atoms: C_1  and  C_2
REMARK    2  A    between atoms: C_5  and  N_6
REMARK    3  A    between atoms: C_7  and  C_9
REMARK    4  A    between atoms: C_10  and  C_11
REMARK    5  A    between atoms: C_16  and  N_17
REMARK                            x       y       z     vdW  Elec       q    Type
REMARK                         _______ _______ _______ _____ _____    ______ ____
ROOT
ATOM      1  N   UNL     1       2.801   6.456  18.564  0.00  0.00    +0.000 N 
ATOM      2  C   UNL     1       2.540   6.059  19.859  0.00  0.00    +0.000 C 
ATOM      3  O   UNL     1       3.040   5.111  20.455  0.00  0.00    +0.000 OA
ATOM      4  H   UNL     1       2.320   7.277  18.217  0.00  0.00    +0.000 HD
ENDROOT
BRANCH   1   9
ATOM      5  C   UNL     1       6.316   4.061  14.703  0.00  0.00    +0.000 C 
ATOM      6  C   UNL     1       5.402   4.667  15.726  0.00  0.00    +0.000 A 
ATOM      7  C   UNL     1       4.523   3.868  16.460  0.00  0.00    +0.000 A 
ATOM      8  C   UNL     1       3.662   4.437  17.406  0.00  0.00    +0.000 A 
ATOM      9  C   UNL     1       3.660   5.814  17.639  0.00  0.00    +0.000 A 
ATOM     10  C   UNL     1       4.547   6.613  16.906  0.00  0.00    +0.000 A 
ATOM     11  C   UNL     1       5.409   6.045  15.958  0.00  0.00    +0.000 A 
ENDBRANCH   1   9
BRANCH   2  12
ATOM     12  C   UNL     1       1.491   6.890  20.522  0.00  0.00    +0.000 C 
ATOM     13  C   UNL     1       1.514   8.220  20.333  0.00  0.00    +0.000 C 
BRANCH  13  14
ATOM     14  C   UNL     1       0.654   9.152  21.069  0.00  0.00    +0.000 A 
ATOM     15  C   UNL     1       0.481   8.901  22.439  0.00  0.00    +0.000 A 
ATOM     16  C   UNL     1      -0.272   9.766  23.239  0.00  0.00    +0.000 A 
ATOM     17  C   UNL     1      -0.860  10.903  22.689  0.00  0.00    +0.000 A 
ATOM     18  C   UNL     1      -0.702  11.178  21.331  0.00  0.00    +0.000 A 
ATOM     19  C   UNL     1       0.049  10.298  20.535  0.00  0.00    +0.000 A 
BRANCH  19  20
ATOM     20  N   UNL     1       0.180  10.621  19.127  0.00  0.00    +0.000 N 
ATOM     21  O   UNL     1       1.165  11.290  18.787  0.00  0.00    +0.000 OA
ATOM     22  O   UNL     1      -0.672  10.151  18.361  0.00  0.00    +0.000 OA
ENDBRANCH  19  20
ENDBRANCH  13  14
ENDBRANCH   2  12
TORSDOF 4
ENDMDL
MODEL 6
REMARK VINA RESULT:      -7.3      5.590      7.061
REMARK  Name = 
REMARK  5 active torsions:
REMARK  status: ('A' for Active; 'I' for Inactive)
REMARK    1  A    between atoms: C_1  and  C_2
REMARK    2  A    between atoms: C_5  and  N_6
REMARK    3  A    between atoms: C_7  and  C_9
REMARK    4  A    between atoms: C_10  and  C_11
REMARK    5  A    between atoms: C_16  and  N_17
REMARK                            x       y       z     vdW  Elec       q    Type
REMARK                         _______ _______ _______ _____ _____    ______ ____
ROOT
ATOM      1  N   UNL     1       1.922   9.325  17.746  0.00  0.00    +0.000 N 
ATOM      2  C   UNL     1       2.465   8.177  18.287  0.00  0.00    +0.000 C 
ATOM      3  O   UNL     1       2.209   7.683  19.379  0.00  0.00    +0.000 OA
ATOM      4  H   UNL     1       2.222   9.596  16.819  0.00  0.00    +0.000 HD
ENDROOT
BRANCH   1   9
ATOM      5  C   UNL     1      -1.652  12.964  20.389  0.00  0.00    +0.000 C 
ATOM      6  C   UNL     1      -0.737  12.008  19.682  0.00  0.00    +0.000 A 
ATOM      7  C   UNL     1      -1.225  10.814  19.150  0.00  0.00    +0.000 A 
ATOM      8  C   UNL     1      -0.367   9.918  18.501  0.00  0.00    +0.000 A 
ATOM      9  C   UNL     1       0.995  10.196  18.370  0.00  0.00    +0.000 A 
ATOM     10  C   UNL     1       1.482  11.399  18.899  0.00  0.00    +0.000 A 
ATOM     11  C   UNL     1       0.625  12.296  19.549  0.00  0.00    +0.000 A 
ENDBRANCH   1   9
BRANCH   2  12
ATOM     12  C   UNL     1       3.504   7.558  17.411  0.00  0.00    +0.000 C 
ATOM     13  C   UNL     1       3.897   6.300  17.674  0.00  0.00    +0.000 C 
BRANCH  13  14
ATOM     14  C   UNL     1       5.028   5.654  17.003  0.00  0.00    +0.000 A 
ATOM     15  C   UNL     1       5.126   5.838  15.615  0.00  0.00    +0.000 A 
ATOM     16  C   UNL     1       6.203   5.313  14.893  0.00  0.00    +0.000 A 
ATOM     17  C   UNL     1       7.206   4.598  15.544  0.00  0.00    +0.000 A 
ATOM     18  C   UNL     1       7.135   4.401  16.922  0.00  0.00    +0.000 A 
ATOM     19  C   UNL     1       6.045   4.926  17.636  0.00  0.00    +0.000 A 
BRANCH  19  20
ATOM     20  N   UNL     1       6.010   4.689  19.067  0.00  0.00    +0.000 N 
ATOM     21  O   UNL     1       6.680   5.445  19.784  0.00  0.00    +0.000 OA
ATOM     22  O   UNL     1       5.264   3.787  19.469  0.00  0.00    +0.000 OA
ENDBRANCH  19  20
ENDBRANCH  13  14
ENDBRANCH   2  12
TORSDOF 4
ENDMDL
MODEL 7
REMARK VINA RESULT:      -7.3      5.948      7.488
REMARK  Name = 
REMARK  5 active torsions:
REMARK  status: ('A' for Active; 'I' for Inactive)
REMARK    1  A    between atoms: C_1  and  C_2
REMARK    2  A    between atoms: C_5  and  N_6
REMARK    3  A    between atoms: C_7  and  C_9
REMARK    4  A    between atoms: C_10  and  C_11
REMARK    5  A    between atoms: C_16  and  N_17
REMARK                            x       y       z     vdW  Elec       q    Type
REMARK                         _______ _______ _______ _____ _____    ______ ____
ROOT
ATOM      1  N   UNL     1       2.032   8.125  20.024  0.00  0.00    +0.000 N 
ATOM      2  C   UNL     1       2.145   6.751  20.101  0.00  0.00    +0.000 C 
ATOM      3  O   UNL     1       1.451   5.991  20.766  0.00  0.00    +0.000 OA
ATOM      4  H   UNL     1       2.670   8.616  19.411  0.00  0.00    +0.000 HD
ENDROOT
BRANCH   1   9
ATOM      5  C   UNL     1      -1.629  11.281  23.128  0.00  0.00    +0.000 C 
ATOM      6  C   UNL     1      -0.670  10.476  22.301  0.00  0.00    +0.000 A 
ATOM      7  C   UNL     1      -0.658  10.587  20.910  0.00  0.00    +0.000 A 
ATOM      8  C   UNL     1       0.230   9.827  20.141  0.00  0.00    +0.000 A 
ATOM      9  C   UNL     1       1.124   8.940  20.743  0.00  0.00    +0.000 A 
ATOM     10  C   UNL     1       1.116   8.834  22.140  0.00  0.00    +0.000 A 
ATOM     11  C   UNL     1       0.228   9.595  22.912  0.00  0.00    +0.000 A 
ENDBRANCH   1   9
BRANCH   2  12
ATOM     12  C   UNL     1       3.288   6.217  19.301  0.00  0.00    +0.000 C 
ATOM     13  C   UNL     1       3.150   6.132  17.967  0.00  0.00    +0.000 C 
BRANCH  13  14
ATOM     14  C   UNL     1       4.124   5.462  17.100  0.00  0.00    +0.000 A 
ATOM     15  C   UNL     1       5.046   6.285  16.434  0.00  0.00    +0.000 A 
ATOM     16  C   UNL     1       6.053   5.737  15.632  0.00  0.00    +0.000 A 
ATOM     17  C   UNL     1       6.163   4.355  15.484  0.00  0.00    +0.000 A 
ATOM     18  C   UNL     1       5.261   3.515  16.136  0.00  0.00    +0.000 A 
ATOM     19  C   UNL     1       4.249   4.076  16.932  0.00  0.00    +0.000 A 
BRANCH  19  20
ATOM     20  N   UNL     1       3.331   3.162  17.584  0.00  0.00    +0.000 N 
ATOM     21  O   UNL     1       3.683   2.681  18.670  0.00  0.00    +0.000 OA
ATOM     22  O   UNL     1       2.237   2.978  17.035  0.00  0.00    +0.000 OA
ENDBRANCH  19  20
ENDBRANCH  13  14
ENDBRANCH   2  12
TORSDOF 4
ENDMDL
MODEL 8
REMARK VINA RESULT:      -7.3      6.242      7.479
REMARK  Name = 
REMARK  5 active torsions:
REMARK  status: ('A' for Active; 'I' for Inactive)
REMARK    1  A    between atoms: C_1  and  C_2
REMARK    2  A    between atoms: C_5  and  N_6
REMARK    3  A    between atoms: C_7  and  C_9
REMARK    4  A    between atoms: C_10  and  C_11
REMARK    5  A    between atoms: C_16  and  N_17
REMARK                            x       y       z     vdW  Elec       q    Type
REMARK                         _______ _______ _______ _____ _____    ______ ____
ROOT
ATOM      1  N   UNL     1       1.404   8.342  21.107  0.00  0.00    +0.000 N 
ATOM      2  C   UNL     1       1.829   8.125  19.813  0.00  0.00    +0.000 C 
ATOM      3  O   UNL     1       1.708   8.886  18.859  0.00  0.00    +0.000 OA
ATOM      4  H   UNL     1       1.595   7.623  21.793  0.00  0.00    +0.000 HD
ENDROOT
BRANCH   1   9
ATOM      5  C   UNL     1      -1.646  12.763  23.147  0.00  0.00    +0.000 C 
ATOM      6  C   UNL     1      -0.829  11.624  22.611  0.00  0.00    +0.000 A 
ATOM      7  C   UNL     1       0.046  11.815  21.540  0.00  0.00    +0.000 A 
ATOM      8  C   UNL     1       0.797  10.748  21.034  0.00  0.00    +0.000 A 
ATOM      9  C   UNL     1       0.691   9.469  21.585  0.00  0.00    +0.000 A 
ATOM     10  C   UNL     1      -0.184   9.281  22.664  0.00  0.00    +0.000 A 
ATOM     11  C   UNL     1      -0.936  10.348  23.172  0.00  0.00    +0.000 A 
ENDBRANCH   1   9
BRANCH   2  12
ATOM     12  C   UNL     1       2.446   6.778  19.622  0.00  0.00    +0.000 C 
ATOM     13  C   UNL     1       2.147   6.089  18.508  0.00  0.00    +0.000 C 
BRANCH  13  14
ATOM     14  C   UNL     1       2.543   4.694  18.294  0.00  0.00    +0.000 A 
ATOM     15  C   UNL     1       1.582   3.714  18.586  0.00  0.00    +0.000 A 
ATOM     16  C   UNL     1       1.843   2.359  18.359  0.00  0.00    +0.000 A 
ATOM     17  C   UNL     1       3.067   1.956  17.829  0.00  0.00    +0.000 A 
ATOM     18  C   UNL     1       4.039   2.909  17.528  0.00  0.00    +0.000 A 
ATOM     19  C   UNL     1       3.770   4.267  17.768  0.00  0.00    +0.000 A 
BRANCH  19  20
ATOM     20  N   UNL     1       4.814   5.220  17.447  0.00  0.00    +0.000 N 
ATOM     21  O   UNL     1       5.633   5.488  18.337  0.00  0.00    +0.000 OA
ATOM     22  O   UNL     1       4.845   5.650  16.286  0.00  0.00    +0.000 OA
ENDBRANCH  19  20
ENDBRANCH  13  14
ENDBRANCH   2  12
TORSDOF 4
ENDMDL
MODEL 9
REMARK VINA RESULT:      -7.3      5.927      8.845
REMARK  Name = 
REMARK  5 active torsions:
REMARK  status: ('A' for Active; 'I' for Inactive)
REMARK    1  A    between atoms: C_1  and  C_2
REMARK    2  A    between atoms: C_5  and  N_6
REMARK    3  A    between atoms: C_7  and  C_9
REMARK    4  A    between atoms: C_10  and  C_11
REMARK    5  A    between atoms: C_16  and  N_17
REMARK                            x       y       z     vdW  Elec       q    Type
REMARK                         _______ _______ _______ _____ _____    ______ ____
ROOT
ATOM      1  N   UNL     1       2.826   6.630  18.622  0.00  0.00    +0.000 N 
ATOM      2  C   UNL     1       2.539   6.159  19.887  0.00  0.00    +0.000 C 
ATOM      3  O   UNL     1       3.000   5.158  20.423  0.00  0.00    +0.000 OA
ATOM      4  H   UNL     1       2.378   7.487  18.325  0.00  0.00    +0.000 HD
ENDROOT
BRANCH   1   9
ATOM      5  C   UNL     1       6.221   3.942  14.847  0.00  0.00    +0.000 C 
ATOM      6  C   UNL     1       5.333   4.664  15.817  0.00  0.00    +0.000 A 
ATOM      7  C   UNL     1       5.458   6.041  16.011  0.00  0.00    +0.000 A 
ATOM      8  C   UNL     1       4.636   6.710  16.925  0.00  0.00    +0.000 A 
ATOM      9  C   UNL     1       3.674   6.019  17.665  0.00  0.00    +0.000 A 
ATOM     10  C   UNL     1       3.546   4.638  17.465  0.00  0.00    +0.000 A 
ATOM     11  C   UNL     1       4.368   3.967  16.550  0.00  0.00    +0.000 A 
ENDBRANCH   1   9
BRANCH   2  12
ATOM     12  C   UNL     1       1.511   6.981  20.593  0.00  0.00    +0.000 C 
ATOM     13  C   UNL     1       1.433   8.292  20.307  0.00  0.00    +0.000 C 
BRANCH  13  14
ATOM     14  C   UNL     1       0.595   9.231  21.059  0.00  0.00    +0.000 A 
ATOM     15  C   UNL     1       0.420   8.963  22.426  0.00  0.00    +0.000 A 
ATOM     16  C   UNL     1      -0.312   9.832  23.242  0.00  0.00    +0.000 A 
ATOM     17  C   UNL     1      -0.879  10.989  22.709  0.00  0.00    +0.000 A 
ATOM     18  C   UNL     1      -0.719  11.279  21.355  0.00  0.00    +0.000 A 
ATOM     19  C   UNL     1       0.011  10.396  20.544  0.00  0.00    +0.000 A 
BRANCH  19  20
ATOM     20  N   UNL     1       0.144  10.736  19.140  0.00  0.00    +0.000 N 
ATOM     21  O   UNL     1       1.105  11.448  18.817  0.00  0.00    +0.000 OA
ATOM     22  O   UNL     1      -0.680  10.240  18.361  0.00  0.00    +0.000 OA
ENDBRANCH  19  20
ENDBRANCH  13  14
ENDBRANCH   2  12
TORSDOF 4
ENDMDL
