MODEL 1
REMARK VINA RESULT:      -6.2      0.000      0.000
REMARK  Name = 
REMARK  7 active torsions:
REMARK  status: ('A' for Active; 'I' for Inactive)
REMARK    1  A    between atoms: C_1  and  C_2
REMARK    2  A    between atoms: C_2  and  C_3
REMARK    3  A    between atoms: C_8  and  N_9
REMARK    4  A    between atoms: C_10  and  C_12
REMARK    5  A    between atoms: C_17  and  C_18
REMARK    6  A    between atoms: C_20  and  C_21
REMARK    7  A    between atoms: C_20  and  C_22
REMARK                            x       y       z     vdW  Elec       q    Type
REMARK                         _______ _______ _______ _____ _____    ______ ____
ROOT
ATOM      1  C   UNL     1       2.117   2.026  17.585  0.00  0.00    +0.000 C 
ATOM      2  C   UNL     1       3.349   2.348  18.453  0.00  0.00    +0.000 C 
ATOM      3  C   UNL     1       4.247   1.089  18.416  0.00  0.00    +0.000 C 
ATOM      4  C   UNL     1       4.102   3.613  17.889  0.00  0.00    +0.000 C 
ATOM      5  C   UNL     1       3.439   4.916  18.328  0.00  0.00    +0.000 A 
ATOM      6  C   UNL     1       2.559   4.908  19.404  0.00  0.00    +0.000 A 
ATOM      7  S   UNL     1       1.947   6.462  19.752  0.00  0.00    +0.000 S 
ATOM      8  C   UNL     1       2.910   7.190  18.567  0.00  0.00    +0.000 A 
ATOM      9  C   UNL     1       3.634   6.272  17.823  0.00  0.00    +0.000 A 
ATOM     10  C   UNL     1       2.169   3.699  20.234  0.00  0.00    +0.000 C 
ATOM     11  C   UNL     1       0.668   3.375  20.099  0.00  0.00    +0.000 C 
ATOM     12  C   UNL     1       2.465   3.966  21.726  0.00  0.00    +0.000 C 
ATOM     13  N   UNL     1       3.001   2.530  19.880  0.00  0.00    +0.000 NA
ATOM     14  H   UNL     1       2.591   1.681  20.267  0.00  0.00    +0.000 HD
ENDROOT
BRANCH   8  15
ATOM     15  N   UNL     1       2.788   8.566  18.601  0.00  0.00    +0.000 N 
ATOM     16  C   UNL     1       1.740   9.239  17.994  0.00  0.00    +0.000 C 
ATOM     17  O   UNL     1       0.868   8.685  17.331  0.00  0.00    +0.000 OA
ATOM     18  H   UNL     1       3.213   9.048  19.385  0.00  0.00    +0.000 HD
BRANCH  16  19
ATOM     19  C   UNL     1       1.710  10.668  18.298  0.00  0.00    +0.000 A 
ATOM     20  C   UNL     1       0.841  11.413  19.068  0.00  0.00    +0.000 A 
ATOM     21  C   UNL     1       1.298  12.760  19.024  0.00  0.00    +0.000 A 
ATOM     22  C   UNL     1       2.417  12.753  18.235  0.00  0.00    +0.000 A 
ATOM     23  O   UNL     1       2.682  11.494  17.787  0.00  0.00    +0.000 OA
ENDBRANCH  16  19
ENDBRANCH   8  15
BRANCH   9  24
ATOM     24  C   UNL     1       4.572   6.654  16.798  0.00  0.00    +0.000 C 
ATOM     25  N   UNL     1       5.309   6.925  15.948  0.00  0.00    +0.000 NA
ENDBRANCH   9  24
TORSDOF 3
ENDMDL
MODEL 2
REMARK VINA RESULT:      -6.0      3.056      6.728
REMARK  Name = 
REMARK  7 active torsions:
REMARK  status: ('A' for Active; 'I' for Inactive)
REMARK    1  A    between atoms: C_1  and  C_2
REMARK    2  A    between atoms: C_2  and  C_3
REMARK    3  A    between atoms: C_8  and  N_9
REMARK    4  A    between atoms: C_10  and  C_12
REMARK    5  A    between atoms: C_17  and  C_18
REMARK    6  A    between atoms: C_20  and  C_21
REMARK    7  A    between atoms: C_20  and  C_22
REMARK                            x       y       z     vdW  Elec       q    Type
REMARK                         _______ _______ _______ _____ _____    ______ ____
ROOT
ATOM      1  C   UNL     1      -1.010   8.582  21.196  0.00  0.00    +0.000 C 
ATOM      2  C   UNL     1       0.400   9.058  21.592  0.00  0.00    +0.000 C 
ATOM      3  C   UNL     1       0.299   9.542  23.059  0.00  0.00    +0.000 C 
ATOM      4  C   UNL     1       1.439   7.881  21.442  0.00  0.00    +0.000 C 
ATOM      5  C   UNL     1       1.894   7.702  19.996  0.00  0.00    +0.000 A 
ATOM      6  C   UNL     1       1.696   8.732  19.083  0.00  0.00    +0.000 A 
ATOM      7  S   UNL     1       2.297   8.348  17.533  0.00  0.00    +0.000 S 
ATOM      8  C   UNL     1       2.925   6.868  18.060  0.00  0.00    +0.000 A 
ATOM      9  C   UNL     1       2.612   6.590  19.381  0.00  0.00    +0.000 A 
ATOM     10  C   UNL     1       1.055  10.076  19.374  0.00  0.00    +0.000 C 
ATOM     11  C   UNL     1      -0.253  10.267  18.582  0.00  0.00    +0.000 C 
ATOM     12  C   UNL     1       2.020  11.216  18.978  0.00  0.00    +0.000 C 
ATOM     13  N   UNL     1       0.831  10.247  20.824  0.00  0.00    +0.000 NA
ATOM     14  H   UNL     1       0.206  11.034  20.990  0.00  0.00    +0.000 HD
ENDROOT
BRANCH   8  15
ATOM     15  N   UNL     1       3.646   6.247  17.058  0.00  0.00    +0.000 N 
ATOM     16  C   UNL     1       5.017   6.392  16.923  0.00  0.00    +0.000 C 
ATOM     17  O   UNL     1       5.698   7.121  17.638  0.00  0.00    +0.000 OA
ATOM     18  H   UNL     1       3.264   5.387  16.679  0.00  0.00    +0.000 HD
BRANCH  16  19
ATOM     19  C   UNL     1       5.599   5.516  15.908  0.00  0.00    +0.000 A 
ATOM     20  C   UNL     1       5.196   4.284  15.435  0.00  0.00    +0.000 A 
ATOM     21  C   UNL     1       6.134   3.896  14.437  0.00  0.00    +0.000 A 
ATOM     22  C   UNL     1       7.046   4.915  14.361  0.00  0.00    +0.000 A 
ATOM     23  O   UNL     1       6.738   5.905  15.245  0.00  0.00    +0.000 OA
ENDBRANCH  16  19
ENDBRANCH   8  15
BRANCH   9  24
ATOM     24  C   UNL     1       3.088   5.419  20.073  0.00  0.00    +0.000 C 
ATOM     25  N   UNL     1       3.427   4.459  20.622  0.00  0.00    +0.000 NA
ENDBRANCH   9  24
TORSDOF 3
ENDMDL
MODEL 3
REMARK VINA RESULT:      -5.7      4.504      9.056
REMARK  Name = 
REMARK  7 active torsions:
REMARK  status: ('A' for Active; 'I' for Inactive)
REMARK    1  A    between atoms: C_1  and  C_2
REMARK    2  A    between atoms: C_2  and  C_3
REMARK    3  A    between atoms: C_8  and  N_9
REMARK    4  A    between atoms: C_10  and  C_12
REMARK    5  A    between atoms: C_17  and  C_18
REMARK    6  A    between atoms: C_20  and  C_21
REMARK    7  A    between atoms: C_20  and  C_22
REMARK                            x       y       z     vdW  Elec       q    Type
REMARK                         _______ _______ _______ _____ _____    ______ ____
ROOT
ATOM      1  C   UNL     1      -5.165  12.507  21.334  0.00  0.00    +0.000 C 
ATOM      2  C   UNL     1      -4.556  13.418  20.251  0.00  0.00    +0.000 C 
ATOM      3  C   UNL     1      -5.173  14.820  20.466  0.00  0.00    +0.000 C 
ATOM      4  C   UNL     1      -2.985  13.450  20.381  0.00  0.00    +0.000 C 
ATOM      5  C   UNL     1      -2.333  12.230  19.737  0.00  0.00    +0.000 A 
ATOM      6  C   UNL     1      -3.056  11.467  18.827  0.00  0.00    +0.000 A 
ATOM      7  S   UNL     1      -2.145  10.167  18.202  0.00  0.00    +0.000 S 
ATOM      8  C   UNL     1      -0.750  10.648  19.030  0.00  0.00    +0.000 A 
ATOM      9  C   UNL     1      -0.967  11.732  19.866  0.00  0.00    +0.000 A 
ATOM     10  C   UNL     1      -4.483  11.722  18.378  0.00  0.00    +0.000 C 
ATOM     11  C   UNL     1      -5.425  10.576  18.794  0.00  0.00    +0.000 C 
ATOM     12  C   UNL     1      -4.536  11.845  16.839  0.00  0.00    +0.000 C 
ATOM     13  N   UNL     1      -4.967  13.022  18.885  0.00  0.00    +0.000 NA
ATOM     14  H   UNL     1      -5.978  13.084  18.776  0.00  0.00    +0.000 HD
ENDROOT
BRANCH   8  15
ATOM     15  N   UNL     1       0.333   9.864  18.681  0.00  0.00    +0.000 N 
ATOM     16  C   UNL     1       0.990   9.049  19.590  0.00  0.00    +0.000 C 
ATOM     17  O   UNL     1       0.709   8.995  20.783  0.00  0.00    +0.000 OA
ATOM     18  H   UNL     1       0.397   9.568  17.713  0.00  0.00    +0.000 HD
BRANCH  16  19
ATOM     19  C   UNL     1       1.991   8.179  18.976  0.00  0.00    +0.000 A 
ATOM     20  C   UNL     1       2.687   8.295  17.789  0.00  0.00    +0.000 A 
ATOM     21  C   UNL     1       3.545   7.163  17.700  0.00  0.00    +0.000 A 
ATOM     22  C   UNL     1       3.322   6.431  18.836  0.00  0.00    +0.000 A 
ATOM     23  O   UNL     1       2.385   7.032  19.620  0.00  0.00    +0.000 OA
ENDBRANCH  16  19
ENDBRANCH   8  15
BRANCH   9  24
ATOM     24  C   UNL     1       0.083  12.361  20.627  0.00  0.00    +0.000 C 
ATOM     25  N   UNL     1       0.917  12.836  21.273  0.00  0.00    +0.000 NA
ENDBRANCH   9  24
TORSDOF 3
ENDMDL
MODEL 4
REMARK VINA RESULT:      -5.6      2.457      3.130
REMARK  Name = 
REMARK  7 active torsions:
REMARK  status: ('A' for Active; 'I' for Inactive)
REMARK    1  A    between atoms: C_1  and  C_2
REMARK    2  A    between atoms: C_2  and  C_3
REMARK    3  A    between atoms: C_8  and  N_9
REMARK    4  A    between atoms: C_10  and  C_12
REMARK    5  A    between atoms: C_17  and  C_18
REMARK    6  A    between atoms: C_20  and  C_21
REMARK    7  A    between atoms: C_20  and  C_22
REMARK                            x       y       z     vdW  Elec       q    Type
REMARK                         _______ _______ _______ _____ _____    ______ ____
ROOT
ATOM      1  C   UNL     1       1.689   4.043  17.219  0.00  0.00    +0.000 C 
ATOM      2  C   UNL     1       2.994   4.485  17.909  0.00  0.00    +0.000 C 
ATOM      3  C   UNL     1       4.144   3.772  17.159  0.00  0.00    +0.000 C 
ATOM      4  C   UNL     1       3.144   6.053  17.843  0.00  0.00    +0.000 C 
ATOM      5  C   UNL     1       2.323   6.752  18.924  0.00  0.00    +0.000 A 
ATOM      6  C   UNL     1       1.875   6.025  20.020  0.00  0.00    +0.000 A 
ATOM      7  S   UNL     1       1.002   6.989  21.124  0.00  0.00    +0.000 S 
ATOM      8  C   UNL     1       1.291   8.401  20.237  0.00  0.00    +0.000 A 
ATOM      9  C   UNL     1       1.962   8.161  19.048  0.00  0.00    +0.000 A 
ATOM     10  C   UNL     1       2.123   4.550  20.280  0.00  0.00    +0.000 C 
ATOM     11  C   UNL     1       0.810   3.744  20.282  0.00  0.00    +0.000 C 
ATOM     12  C   UNL     1       2.796   4.365  21.658  0.00  0.00    +0.000 C 
ATOM     13  N   UNL     1       3.086   4.002  19.304  0.00  0.00    +0.000 NA
ATOM     14  H   UNL     1       3.075   2.983  19.338  0.00  0.00    +0.000 HD
ENDROOT
BRANCH   8  15
ATOM     15  N   UNL     1       0.811   9.514  20.900  0.00  0.00    +0.000 N 
ATOM     16  C   UNL     1      -0.280  10.240  20.449  0.00  0.00    +0.000 C 
ATOM     17  O   UNL     1      -0.874   9.996  19.403  0.00  0.00    +0.000 OA
ATOM     18  H   UNL     1       0.980   9.567  21.898  0.00  0.00    +0.000 HD
BRANCH  16  19
ATOM     19  C   UNL     1      -0.724  11.269  21.387  0.00  0.00    +0.000 A 
ATOM     20  C   UNL     1      -0.971  11.213  22.743  0.00  0.00    +0.000 A 
ATOM     21  C   UNL     1      -1.370  12.518  23.146  0.00  0.00    +0.000 A 
ATOM     22  C   UNL     1      -1.337  13.289  22.014  0.00  0.00    +0.000 A 
ATOM     23  O   UNL     1      -0.947  12.548  20.939  0.00  0.00    +0.000 OA
ENDBRANCH  16  19
ENDBRANCH   8  15
BRANCH   9  24
ATOM     24  C   UNL     1       2.377   9.211  18.154  0.00  0.00    +0.000 C 
ATOM     25  N   UNL     1       2.687  10.032  17.399  0.00  0.00    +0.000 NA
ENDBRANCH   9  24
TORSDOF 3
ENDMDL
MODEL 5
REMARK VINA RESULT:      -5.6      7.593     11.254
REMARK  Name = 
REMARK  7 active torsions:
REMARK  status: ('A' for Active; 'I' for Inactive)
REMARK    1  A    between atoms: C_1  and  C_2
REMARK    2  A    between atoms: C_2  and  C_3
REMARK    3  A    between atoms: C_8  and  N_9
REMARK    4  A    between atoms: C_10  and  C_12
REMARK    5  A    between atoms: C_17  and  C_18
REMARK    6  A    between atoms: C_20  and  C_21
REMARK    7  A    between atoms: C_20  and  C_22
REMARK                            x       y       z     vdW  Elec       q    Type
REMARK                         _______ _______ _______ _____ _____    ______ ____
ROOT
ATOM      1  C   UNL     1      -2.541  14.747  25.381  0.00  0.00    +0.000 C 
ATOM      2  C   UNL     1      -3.455  15.689  24.575  0.00  0.00    +0.000 C 
ATOM      3  C   UNL     1      -3.521  17.015  25.370  0.00  0.00    +0.000 C 
ATOM      4  C   UNL     1      -2.873  15.911  23.126  0.00  0.00    +0.000 C 
ATOM      5  C   UNL     1      -3.218  14.757  22.189  0.00  0.00    +0.000 A 
ATOM      6  C   UNL     1      -4.247  13.885  22.525  0.00  0.00    +0.000 A 
ATOM      7  S   UNL     1      -4.493  12.683  21.339  0.00  0.00    +0.000 S 
ATOM      8  C   UNL     1      -3.326  13.352  20.312  0.00  0.00    +0.000 A 
ATOM      9  C   UNL     1      -2.662  14.428  20.879  0.00  0.00    +0.000 A 
ATOM     10  C   UNL     1      -5.110  13.955  23.772  0.00  0.00    +0.000 C 
ATOM     11  C   UNL     1      -4.914  12.720  24.671  0.00  0.00    +0.000 C 
ATOM     12  C   UNL     1      -6.602  14.023  23.376  0.00  0.00    +0.000 C 
ATOM     13  N   UNL     1      -4.852  15.205  24.516  0.00  0.00    +0.000 NA
ATOM     14  H   UNL     1      -5.256  15.143  25.450  0.00  0.00    +0.000 HD
ENDROOT
BRANCH   8  15
ATOM     15  N   UNL     1      -3.291  12.690  19.099  0.00  0.00    +0.000 N 
ATOM     16  C   UNL     1      -2.351  11.715  18.806  0.00  0.00    +0.000 C 
ATOM     17  O   UNL     1      -1.442  11.395  19.566  0.00  0.00    +0.000 OA
ATOM     18  H   UNL     1      -4.164  12.614  18.589  0.00  0.00    +0.000 HD
BRANCH  16  19
ATOM     19  C   UNL     1      -2.601  11.026  17.542  0.00  0.00    +0.000 A 
ATOM     20  C   UNL     1      -2.034   9.889  17.003  0.00  0.00    +0.000 A 
ATOM     21  C   UNL     1      -2.668   9.665  15.748  0.00  0.00    +0.000 A 
ATOM     22  C   UNL     1      -3.582  10.675  15.602  0.00  0.00    +0.000 A 
ATOM     23  O   UNL     1      -3.555  11.508  16.680  0.00  0.00    +0.000 OA
ENDBRANCH  16  19
ENDBRANCH   8  15
BRANCH   9  24
ATOM     24  C   UNL     1      -1.671  15.201  20.176  0.00  0.00    +0.000 C 
ATOM     25  N   UNL     1      -0.884  15.795  19.571  0.00  0.00    +0.000 NA
ENDBRANCH   9  24
TORSDOF 3
ENDMDL
MODEL 6
REMARK VINA RESULT:      -5.5      3.710      8.507
REMARK  Name = 
REMARK  7 active torsions:
REMARK  status: ('A' for Active; 'I' for Inactive)
REMARK    1  A    between atoms: C_1  and  C_2
REMARK    2  A    between atoms: C_2  and  C_3
REMARK    3  A    between atoms: C_8  and  N_9
REMARK    4  A    between atoms: C_10  and  C_12
REMARK    5  A    between atoms: C_17  and  C_18
REMARK    6  A    between atoms: C_20  and  C_21
REMARK    7  A    between atoms: C_20  and  C_22
REMARK                            x       y       z     vdW  Elec       q    Type
REMARK                         _______ _______ _______ _____ _____    ______ ____
ROOT
ATOM      1  C   UNL     1      -2.132  14.772  20.285  0.00  0.00    +0.000 C 
ATOM      2  C   UNL     1      -3.047  13.591  20.662  0.00  0.00    +0.000 C 
ATOM      3  C   UNL     1      -4.482  14.164  20.747  0.00  0.00    +0.000 C 
ATOM      4  C   UNL     1      -2.943  12.449  19.581  0.00  0.00    +0.000 C 
ATOM      5  C   UNL     1      -1.710  11.574  19.791  0.00  0.00    +0.000 A 
ATOM      6  C   UNL     1      -1.060  11.591  21.020  0.00  0.00    +0.000 A 
ATOM      7  S   UNL     1       0.275  10.528  21.061  0.00  0.00    +0.000 S 
ATOM      8  C   UNL     1      -0.044   9.946  19.505  0.00  0.00    +0.000 A 
ATOM      9  C   UNL     1      -1.095  10.606  18.888  0.00  0.00    +0.000 A 
ATOM     10  C   UNL     1      -1.456  12.412  22.233  0.00  0.00    +0.000 C 
ATOM     11  C   UNL     1      -0.370  13.441  22.603  0.00  0.00    +0.000 C 
ATOM     12  C   UNL     1      -1.666  11.485  23.450  0.00  0.00    +0.000 C 
ATOM     13  N   UNL     1      -2.762  13.067  22.017  0.00  0.00    +0.000 NA
ATOM     14  H   UNL     1      -2.913  13.785  22.725  0.00  0.00    +0.000 HD
ENDROOT
BRANCH   8  15
ATOM     15  N   UNL     1       0.807   8.908  19.176  0.00  0.00    +0.000 N 
ATOM     16  C   UNL     1       1.839   9.047  18.262  0.00  0.00    +0.000 C 
ATOM     17  O   UNL     1       2.051  10.076  17.627  0.00  0.00    +0.000 OA
ATOM     18  H   UNL     1       0.945   8.184  19.874  0.00  0.00    +0.000 HD
BRANCH  16  19
ATOM     19  C   UNL     1       2.719   7.882  18.193  0.00  0.00    +0.000 A 
ATOM     20  C   UNL     1       3.699   7.540  17.284  0.00  0.00    +0.000 A 
ATOM     21  C   UNL     1       4.247   6.299  17.714  0.00  0.00    +0.000 A 
ATOM     22  C   UNL     1       3.572   5.964  18.858  0.00  0.00    +0.000 A 
ATOM     23  O   UNL     1       2.643   6.913  19.163  0.00  0.00    +0.000 OA
ENDBRANCH  16  19
ENDBRANCH   8  15
BRANCH   9  24
ATOM     24  C   UNL     1      -1.593  10.246  17.585  0.00  0.00    +0.000 C 
ATOM     25  N   UNL     1      -2.020   9.923  16.559  0.00  0.00    +0.000 NA
ENDBRANCH   9  24
TORSDOF 3
ENDMDL
MODEL 7
REMARK VINA RESULT:      -5.5      2.613      3.210
REMARK  Name = 
REMARK  7 active torsions:
REMARK  status: ('A' for Active; 'I' for Inactive)
REMARK    1  A    between atoms: C_1  and  C_2
REMARK    2  A    between atoms: C_2  and  C_3
REMARK    3  A    between atoms: C_8  and  N_9
REMARK    4  A    between atoms: C_10  and  C_12
REMARK    5  A    between atoms: C_17  and  C_18
REMARK    6  A    between atoms: C_20  and  C_21
REMARK    7  A    between atoms: C_20  and  C_22
REMARK                            x       y       z     vdW  Elec       q    Type
REMARK                         _______ _______ _______ _____ _____    ______ ____
ROOT
ATOM      1  C   UNL     1       2.360   3.833  17.052  0.00  0.00    +0.000 C 
ATOM      2  C   UNL     1       3.498   4.391  17.928  0.00  0.00    +0.000 C 
ATOM      3  C   UNL     1       4.814   3.832  17.337  0.00  0.00    +0.000 C 
ATOM      4  C   UNL     1       3.479   5.967  17.912  0.00  0.00    +0.000 C 
ATOM      5  C   UNL     1       2.443   6.537  18.878  0.00  0.00    +0.000 A 
ATOM      6  C   UNL     1       1.930   5.729  19.886  0.00  0.00    +0.000 A 
ATOM      7  S   UNL     1       0.809   6.555  20.871  0.00  0.00    +0.000 S 
ATOM      8  C   UNL     1       1.060   8.019  20.060  0.00  0.00    +0.000 A 
ATOM      9  C   UNL     1       1.913   7.893  18.975  0.00  0.00    +0.000 A 
ATOM     10  C   UNL     1       2.303   4.282  20.153  0.00  0.00    +0.000 C 
ATOM     11  C   UNL     1       1.102   3.338  19.953  0.00  0.00    +0.000 C 
ATOM     12  C   UNL     1       2.794   4.125  21.609  0.00  0.00    +0.000 C 
ATOM     13  N   UNL     1       3.448   3.874  19.314  0.00  0.00    +0.000 NA
ATOM     14  H   UNL     1       3.546   2.859  19.328  0.00  0.00    +0.000 HD
ENDROOT
BRANCH   8  15
ATOM     15  N   UNL     1       0.370   9.051  20.667  0.00  0.00    +0.000 N 
ATOM     16  C   UNL     1       0.835   9.694  21.803  0.00  0.00    +0.000 C 
ATOM     17  O   UNL     1       1.859   9.371  22.397  0.00  0.00    +0.000 OA
ATOM     18  H   UNL     1      -0.246   9.604  20.081  0.00  0.00    +0.000 HD
BRANCH  16  19
ATOM     19  C   UNL     1       0.042  10.863  22.177  0.00  0.00    +0.000 A 
ATOM     20  C   UNL     1      -1.080  10.981  22.971  0.00  0.00    +0.000 A 
ATOM     21  C   UNL     1      -1.425  12.362  23.000  0.00  0.00    +0.000 A 
ATOM     22  C   UNL     1      -0.491  12.999  22.227  0.00  0.00    +0.000 A 
ATOM     23  O   UNL     1       0.406  12.107  21.721  0.00  0.00    +0.000 OA
ENDBRANCH  16  19
ENDBRANCH   8  15
BRANCH   9  24
ATOM     24  C   UNL     1       2.328   9.011  18.167  0.00  0.00    +0.000 C 
ATOM     25  N   UNL     1       2.616   9.913  17.501  0.00  0.00    +0.000 NA
ENDBRANCH   9  24
TORSDOF 3
ENDMDL
MODEL 8
REMARK VINA RESULT:      -5.5      8.892     10.965
REMARK  Name = 
REMARK  7 active torsions:
REMARK  status: ('A' for Active; 'I' for Inactive)
REMARK    1  A    between atoms: C_1  and  C_2
REMARK    2  A    between atoms: C_2  and  C_3
REMARK    3  A    between atoms: C_8  and  N_9
REMARK    4  A    between atoms: C_10  and  C_12
REMARK    5  A    between atoms: C_17  and  C_18
REMARK    6  A    between atoms: C_20  and  C_21
REMARK    7  A    between atoms: C_20  and  C_22
REMARK                            x       y       z     vdW  Elec       q    Type
REMARK                         _______ _______ _______ _____ _____    ______ ____
ROOT
ATOM      1  C   UNL     1       8.204  13.909  17.649  0.00  0.00    +0.000 C 
ATOM      2  C   UNL     1       9.380  14.472  18.470  0.00  0.00    +0.000 C 
ATOM      3  C   UNL     1      10.057  15.542  17.581  0.00  0.00    +0.000 C 
ATOM      4  C   UNL     1       8.859  15.089  19.824  0.00  0.00    +0.000 C 
ATOM      5  C   UNL     1       8.618  14.018  20.885  0.00  0.00    +0.000 A 
ATOM      6  C   UNL     1       9.195  12.762  20.734  0.00  0.00    +0.000 A 
ATOM      7  S   UNL     1       8.828  11.720  22.034  0.00  0.00    +0.000 S 
ATOM      8  C   UNL     1       7.997  12.933  22.871  0.00  0.00    +0.000 A 
ATOM      9  C   UNL     1       7.894  14.112  22.149  0.00  0.00    +0.000 A 
ATOM     10  C   UNL     1      10.082  12.315  19.586  0.00  0.00    +0.000 C 
ATOM     11  C   UNL     1       9.433  11.177  18.775  0.00  0.00    +0.000 C 
ATOM     12  C   UNL     1      11.431  11.800  20.134  0.00  0.00    +0.000 C 
ATOM     13  N   UNL     1      10.430  13.459  18.718  0.00  0.00    +0.000 NA
ATOM     14  H   UNL     1      10.826  13.122  17.842  0.00  0.00    +0.000 HD
ENDROOT
BRANCH   8  15
ATOM     15  N   UNL     1       7.607  12.498  24.123  0.00  0.00    +0.000 N 
ATOM     16  C   UNL     1       6.302  12.133  24.414  0.00  0.00    +0.000 C 
ATOM     17  O   UNL     1       5.376  12.217  23.614  0.00  0.00    +0.000 OA
ATOM     18  H   UNL     1       8.315  12.062  24.703  0.00  0.00    +0.000 HD
BRANCH  16  19
ATOM     19  C   UNL     1       6.144  11.542  25.742  0.00  0.00    +0.000 A 
ATOM     20  C   UNL     1       5.133  10.770  26.276  0.00  0.00    +0.000 A 
ATOM     21  C   UNL     1       5.509  10.459  27.612  0.00  0.00    +0.000 A 
ATOM     22  C   UNL     1       6.726  11.056  27.809  0.00  0.00    +0.000 A 
ATOM     23  O   UNL     1       7.126  11.715  26.686  0.00  0.00    +0.000 OA
ENDBRANCH  16  19
ENDBRANCH   8  15
BRANCH   9  24
ATOM     24  C   UNL     1       7.286  15.307  22.676  0.00  0.00    +0.000 C 
ATOM     25  N   UNL     1       6.842  16.284  23.108  0.00  0.00    +0.000 NA
ENDBRANCH   9  24
TORSDOF 3
ENDMDL
MODEL 9
REMARK VINA RESULT:      -5.4      9.516     11.785
REMARK  Name = 
REMARK  7 active torsions:
REMARK  status: ('A' for Active; 'I' for Inactive)
REMARK    1  A    between atoms: C_1  and  C_2
REMARK    2  A    between atoms: C_2  and  C_3
REMARK    3  A    between atoms: C_8  and  N_9
REMARK    4  A    between atoms: C_10  and  C_12
REMARK    5  A    between atoms: C_17  and  C_18
REMARK    6  A    between atoms: C_20  and  C_21
REMARK    7  A    between atoms: C_20  and  C_22
REMARK                            x       y       z     vdW  Elec       q    Type
REMARK                         _______ _______ _______ _____ _____    ______ ____
ROOT
ATOM      1  C   UNL     1       9.852  15.950  17.655  0.00  0.00    +0.000 C 
ATOM      2  C   UNL     1      11.136  15.429  18.326  0.00  0.00    +0.000 C 
ATOM      3  C   UNL     1      12.312  16.175  17.652  0.00  0.00    +0.000 C 
ATOM      4  C   UNL     1      11.093  15.700  19.879  0.00  0.00    +0.000 C 
ATOM      5  C   UNL     1      10.268  14.651  20.620  0.00  0.00    +0.000 A 
ATOM      6  C   UNL     1       9.983  13.440  19.999  0.00  0.00    +0.000 A 
ATOM      7  S   UNL     1       9.076  12.397  20.998  0.00  0.00    +0.000 S 
ATOM      8  C   UNL     1       9.135  13.473  22.303  0.00  0.00    +0.000 A 
ATOM      9  C   UNL     1       9.750  14.673  21.984  0.00  0.00    +0.000 A 
ATOM     10  C   UNL     1      10.423  13.020  18.608  0.00  0.00    +0.000 C 
ATOM     11  C   UNL     1       9.220  12.813  17.669  0.00  0.00    +0.000 C 
ATOM     12  C   UNL     1      11.203  11.689  18.682  0.00  0.00    +0.000 C 
ATOM     13  N   UNL     1      11.378  13.996  18.045  0.00  0.00    +0.000 NA
ATOM     14  H   UNL     1      11.492  13.835  17.045  0.00  0.00    +0.000 HD
ENDROOT
BRANCH   8  15
ATOM     15  N   UNL     1       8.569  12.916  23.435  0.00  0.00    +0.000 N 
ATOM     16  C   UNL     1       7.241  13.108  23.778  0.00  0.00    +0.000 C 
ATOM     17  O   UNL     1       6.471  13.827  23.147  0.00  0.00    +0.000 OA
ATOM     18  H   UNL     1       8.986  12.061  23.788  0.00  0.00    +0.000 HD
BRANCH  16  19
ATOM     19  C   UNL     1       6.807  12.293  24.911  0.00  0.00    +0.000 A 
ATOM     20  C   UNL     1       7.358  12.118  26.165  0.00  0.00    +0.000 A 
ATOM     21  C   UNL     1       6.508  11.220  26.869  0.00  0.00    +0.000 A 
ATOM     22  C   UNL     1       5.493  10.906  26.005  0.00  0.00    +0.000 A 
ATOM     23  O   UNL     1       5.658  11.548  24.815  0.00  0.00    +0.000 OA
ENDBRANCH  16  19
ENDBRANCH   8  15
BRANCH   9  24
ATOM     24  C   UNL     1       9.975  15.721  22.946  0.00  0.00    +0.000 C 
ATOM     25  N   UNL     1      10.204  16.552  23.718  0.00  0.00    +0.000 NA
ENDBRANCH   9  24
TORSDOF 3
ENDMDL
