MODEL 1
REMARK VINA RESULT:      -6.8      0.000      0.000
REMARK  Name = 
REMARK  6 active torsions:
REMARK  status: ('A' for Active; 'I' for Inactive)
REMARK    1  A    between atoms: C_2  and  C_3
REMARK    2  A    between atoms: C_3  and  C_4
REMARK    3  A    between atoms: N_11  and  C_12
REMARK    4  A    between atoms: C_12  and  C_13
REMARK    5  A    between atoms: C_13  and  C_14
REMARK    6  A    between atoms: C_14  and  O_15
REMARK                            x       y       z     vdW  Elec       q    Type
REMARK                         _______ _______ _______ _____ _____    ______ ____
ROOT
ATOM      1  O   UNL     1       4.113   2.383  17.422  0.00  0.00    +0.000 OA
ATOM      2  C   UNL     1       3.942   3.547  17.057  0.00  0.00    +0.000 C 
ATOM      3  N   UNL     1       2.829   4.284  17.411  0.00  0.00    +0.000 N 
ATOM      4  H   UNL     1       2.685   5.190  16.981  0.00  0.00    +0.000 HD
ENDROOT
BRANCH   2   5
ATOM      5  C   UNL     1       4.925   4.275  16.157  0.00  0.00    +0.000 C 
BRANCH   5   6
ATOM      6  C   UNL     1       5.892   5.163  16.907  0.00  0.00    +0.000 A 
ATOM      7  C   UNL     1       6.780   4.614  17.848  0.00  0.00    +0.000 A 
ATOM      8  C   UNL     1       7.699   5.428  18.513  0.00  0.00    +0.000 A 
ATOM      9  C   UNL     1       7.735   6.790  18.238  0.00  0.00    +0.000 A 
ATOM     10  F   UNL     1       8.621   7.568  18.874  0.00  0.00    +0.000 F 
ATOM     11  C   UNL     1       6.871   7.353  17.308  0.00  0.00    +0.000 A 
ATOM     12  C   UNL     1       5.951   6.540  16.642  0.00  0.00    +0.000 A 
ENDBRANCH   5   6
ENDBRANCH   2   5
BRANCH   3  13
ATOM     13  C   UNL     1       1.793   3.758  18.280  0.00  0.00    +0.000 C 
BRANCH  13  14
ATOM     14  C   UNL     1       2.104   4.151  19.728  0.00  0.00    +0.000 C 
ATOM     15  C   UNL     1       0.943   3.783  20.708  0.00  0.00    +0.000 C 
ATOM     16  C   UNL     1       1.997   3.246  21.693  0.00  0.00    +0.000 C 
ATOM     17  C   UNL     1       2.958   3.092  20.501  0.00  0.00    +0.000 C 
BRANCH  14  18
ATOM     18  C   UNL     1       2.575   5.602  19.897  0.00  0.00    +0.000 C 
BRANCH  18  19
ATOM     19  O   UNL     1       3.998   5.658  19.869  0.00  0.00    +0.000 OA
ATOM     20  H   UNL     1       4.300   5.533  20.796  0.00  0.00    +0.000 HD
ENDBRANCH  18  19
ENDBRANCH  14  18
ENDBRANCH  13  14
ENDBRANCH   3  13
TORSDOF 6
ENDMDL
MODEL 2
REMARK VINA RESULT:      -6.7      2.762      5.899
REMARK  Name = 
REMARK  6 active torsions:
REMARK  status: ('A' for Active; 'I' for Inactive)
REMARK    1  A    between atoms: C_2  and  C_3
REMARK    2  A    between atoms: C_3  and  C_4
REMARK    3  A    between atoms: N_11  and  C_12
REMARK    4  A    between atoms: C_12  and  C_13
REMARK    5  A    between atoms: C_13  and  C_14
REMARK    6  A    between atoms: C_14  and  O_15
REMARK                            x       y       z     vdW  Elec       q    Type
REMARK                         _______ _______ _______ _____ _____    ______ ____
ROOT
ATOM      1  O   UNL     1       3.077   7.470  18.477  0.00  0.00    +0.000 OA
ATOM      2  C   UNL     1       3.111   6.387  17.891  0.00  0.00    +0.000 C 
ATOM      3  N   UNL     1       4.221   5.947  17.199  0.00  0.00    +0.000 N 
ATOM      4  H   UNL     1       4.147   5.108  16.636  0.00  0.00    +0.000 HD
ENDROOT
BRANCH   2   5
ATOM      5  C   UNL     1       1.920   5.444  17.847  0.00  0.00    +0.000 C 
BRANCH   5   6
ATOM      6  C   UNL     1       1.854   4.497  19.024  0.00  0.00    +0.000 A 
ATOM      7  C   UNL     1       2.269   4.916  20.300  0.00  0.00    +0.000 A 
ATOM      8  C   UNL     1       2.171   4.054  21.394  0.00  0.00    +0.000 A 
ATOM      9  C   UNL     1       1.657   2.775  21.217  0.00  0.00    +0.000 A 
ATOM     10  F   UNL     1       1.560   1.952  22.270  0.00  0.00    +0.000 F 
ATOM     11  C   UNL     1       1.235   2.342  19.967  0.00  0.00    +0.000 A 
ATOM     12  C   UNL     1       1.332   3.202  18.871  0.00  0.00    +0.000 A 
ENDBRANCH   5   6
ENDBRANCH   2   5
BRANCH   3  13
ATOM     13  C   UNL     1       5.456   6.707  17.146  0.00  0.00    +0.000 C 
BRANCH  13  14
ATOM     14  C   UNL     1       6.603   5.843  17.681  0.00  0.00    +0.000 C 
ATOM     15  C   UNL     1       7.778   6.700  18.253  0.00  0.00    +0.000 C 
ATOM     16  C   UNL     1       7.840   5.741  19.455  0.00  0.00    +0.000 C 
ATOM     17  C   UNL     1       6.387   5.342  19.147  0.00  0.00    +0.000 C 
BRANCH  14  18
ATOM     18  C   UNL     1       7.086   4.766  16.700  0.00  0.00    +0.000 C 
BRANCH  18  19
ATOM     19  O   UNL     1       6.130   3.713  16.625  0.00  0.00    +0.000 OA
ATOM     20  H   UNL     1       5.390   4.046  16.073  0.00  0.00    +0.000 HD
ENDBRANCH  18  19
ENDBRANCH  14  18
ENDBRANCH  13  14
ENDBRANCH   3  13
TORSDOF 6
ENDMDL
MODEL 3
REMARK VINA RESULT:      -6.6      2.959      6.060
REMARK  Name = 
REMARK  6 active torsions:
REMARK  status: ('A' for Active; 'I' for Inactive)
REMARK    1  A    between atoms: C_2  and  C_3
REMARK    2  A    between atoms: C_3  and  C_4
REMARK    3  A    between atoms: N_11  and  C_12
REMARK    4  A    between atoms: C_12  and  C_13
REMARK    5  A    between atoms: C_13  and  C_14
REMARK    6  A    between atoms: C_14  and  O_15
REMARK                            x       y       z     vdW  Elec       q    Type
REMARK                         _______ _______ _______ _____ _____    ______ ____
ROOT
ATOM      1  O   UNL     1       3.182   8.106  17.362  0.00  0.00    +0.000 OA
ATOM      2  C   UNL     1       3.477   7.143  18.071  0.00  0.00    +0.000 C 
ATOM      3  N   UNL     1       4.568   6.336  17.817  0.00  0.00    +0.000 N 
ATOM      4  H   UNL     1       4.688   5.490  18.361  0.00  0.00    +0.000 HD
ENDROOT
BRANCH   2   5
ATOM      5  C   UNL     1       2.648   6.731  19.276  0.00  0.00    +0.000 C 
BRANCH   5   6
ATOM      6  C   UNL     1       2.079   5.334  19.171  0.00  0.00    +0.000 A 
ATOM      7  C   UNL     1       1.595   4.675  20.313  0.00  0.00    +0.000 A 
ATOM      8  C   UNL     1       1.033   3.400  20.210  0.00  0.00    +0.000 A 
ATOM      9  C   UNL     1       0.952   2.784  18.967  0.00  0.00    +0.000 A 
ATOM     10  F   UNL     1       0.409   1.563  18.871  0.00  0.00    +0.000 F 
ATOM     11  C   UNL     1       1.419   3.420  17.824  0.00  0.00    +0.000 A 
ATOM     12  C   UNL     1       1.981   4.694  17.925  0.00  0.00    +0.000 A 
ENDBRANCH   5   6
ENDBRANCH   2   5
BRANCH   3  13
ATOM     13  C   UNL     1       5.483   6.588  16.719  0.00  0.00    +0.000 C 
BRANCH  13  14
ATOM     14  C   UNL     1       6.175   5.277  16.330  0.00  0.00    +0.000 C 
ATOM     15  C   UNL     1       5.154   4.132  16.029  0.00  0.00    +0.000 C 
ATOM     16  C   UNL     1       5.992   3.764  14.791  0.00  0.00    +0.000 C 
ATOM     17  C   UNL     1       6.564   5.193  14.817  0.00  0.00    +0.000 C 
BRANCH  14  18
ATOM     18  C   UNL     1       7.278   4.839  17.302  0.00  0.00    +0.000 C 
BRANCH  18  19
ATOM     19  O   UNL     1       6.720   4.046  18.345  0.00  0.00    +0.000 OA
ATOM     20  H   UNL     1       7.215   4.273  19.163  0.00  0.00    +0.000 HD
ENDBRANCH  18  19
ENDBRANCH  14  18
ENDBRANCH  13  14
ENDBRANCH   3  13
TORSDOF 6
ENDMDL
MODEL 4
REMARK VINA RESULT:      -6.5      1.175      1.621
REMARK  Name = 
REMARK  6 active torsions:
REMARK  status: ('A' for Active; 'I' for Inactive)
REMARK    1  A    between atoms: C_2  and  C_3
REMARK    2  A    between atoms: C_3  and  C_4
REMARK    3  A    between atoms: N_11  and  C_12
REMARK    4  A    between atoms: C_12  and  C_13
REMARK    5  A    between atoms: C_13  and  C_14
REMARK    6  A    between atoms: C_14  and  O_15
REMARK                            x       y       z     vdW  Elec       q    Type
REMARK                         _______ _______ _______ _____ _____    ______ ____
ROOT
ATOM      1  O   UNL     1       3.127   6.020  17.549  0.00  0.00    +0.000 OA
ATOM      2  C   UNL     1       3.595   4.885  17.450  0.00  0.00    +0.000 C 
ATOM      3  N   UNL     1       2.932   3.762  17.903  0.00  0.00    +0.000 N 
ATOM      4  H   UNL     1       3.419   2.874  17.905  0.00  0.00    +0.000 HD
ENDROOT
BRANCH   2   5
ATOM      5  C   UNL     1       4.963   4.616  16.847  0.00  0.00    +0.000 C 
BRANCH   5   6
ATOM      6  C   UNL     1       6.048   5.527  17.374  0.00  0.00    +0.000 A 
ATOM      7  C   UNL     1       6.282   6.777  16.776  0.00  0.00    +0.000 A 
ATOM      8  C   UNL     1       7.258   7.634  17.288  0.00  0.00    +0.000 A 
ATOM      9  C   UNL     1       7.999   7.247  18.398  0.00  0.00    +0.000 A 
ATOM     10  F   UNL     1       8.932   8.074  18.889  0.00  0.00    +0.000 F 
ATOM     11  C   UNL     1       7.781   6.018  19.008  0.00  0.00    +0.000 A 
ATOM     12  C   UNL     1       6.806   5.160  18.498  0.00  0.00    +0.000 A 
ENDBRANCH   5   6
ENDBRANCH   2   5
BRANCH   3  13
ATOM     13  C   UNL     1       1.607   3.826  18.491  0.00  0.00    +0.000 C 
BRANCH  13  14
ATOM     14  C   UNL     1       1.737   3.914  20.015  0.00  0.00    +0.000 C 
ATOM     15  C   UNL     1       0.779   2.923  20.753  0.00  0.00    +0.000 C 
ATOM     16  C   UNL     1       1.945   2.554  21.687  0.00  0.00    +0.000 C 
ATOM     17  C   UNL     1       2.909   3.060  20.600  0.00  0.00    +0.000 C 
BRANCH  14  18
ATOM     18  C   UNL     1       1.643   5.342  20.571  0.00  0.00    +0.000 C 
BRANCH  18  19
ATOM     19  O   UNL     1       2.915   5.978  20.492  0.00  0.00    +0.000 OA
ATOM     20  H   UNL     1       3.468   5.585  21.202  0.00  0.00    +0.000 HD
ENDBRANCH  18  19
ENDBRANCH  14  18
ENDBRANCH  13  14
ENDBRANCH   3  13
TORSDOF 6
ENDMDL
MODEL 5
REMARK VINA RESULT:      -6.4      2.582      3.814
REMARK  Name = 
REMARK  6 active torsions:
REMARK  status: ('A' for Active; 'I' for Inactive)
REMARK    1  A    between atoms: C_2  and  C_3
REMARK    2  A    between atoms: C_3  and  C_4
REMARK    3  A    between atoms: N_11  and  C_12
REMARK    4  A    between atoms: C_12  and  C_13
REMARK    5  A    between atoms: C_13  and  C_14
REMARK    6  A    between atoms: C_14  and  O_15
REMARK                            x       y       z     vdW  Elec       q    Type
REMARK                         _______ _______ _______ _____ _____    ______ ____
ROOT
ATOM      1  O   UNL     1       4.801   5.737  19.011  0.00  0.00    +0.000 OA
ATOM      2  C   UNL     1       5.505   4.764  18.735  0.00  0.00    +0.000 C 
ATOM      3  N   UNL     1       5.216   3.486  19.170  0.00  0.00    +0.000 N 
ATOM      4  H   UNL     1       5.895   2.751  19.015  0.00  0.00    +0.000 HD
ENDROOT
BRANCH   2   5
ATOM      5  C   UNL     1       6.779   4.883  17.916  0.00  0.00    +0.000 C 
BRANCH   5   6
ATOM      6  C   UNL     1       6.581   4.597  16.444  0.00  0.00    +0.000 A 
ATOM      7  C   UNL     1       5.409   3.968  15.992  0.00  0.00    +0.000 A 
ATOM      8  C   UNL     1       5.210   3.739  14.629  0.00  0.00    +0.000 A 
ATOM      9  C   UNL     1       6.178   4.138  13.717  0.00  0.00    +0.000 A 
ATOM     10  F   UNL     1       5.982   3.920  12.409  0.00  0.00    +0.000 F 
ATOM     11  C   UNL     1       7.342   4.766  14.141  0.00  0.00    +0.000 A 
ATOM     12  C   UNL     1       7.543   4.997  15.503  0.00  0.00    +0.000 A 
ENDBRANCH   5   6
ENDBRANCH   2   5
BRANCH   3  13
ATOM     13  C   UNL     1       4.031   3.180  19.949  0.00  0.00    +0.000 C 
BRANCH  13  14
ATOM     14  C   UNL     1       2.946   2.627  19.018  0.00  0.00    +0.000 C 
ATOM     15  C   UNL     1       1.696   2.109  19.802  0.00  0.00    +0.000 C 
ATOM     16  C   UNL     1       0.803   2.815  18.765  0.00  0.00    +0.000 C 
ATOM     17  C   UNL     1       1.998   3.724  18.430  0.00  0.00    +0.000 C 
BRANCH  14  18
ATOM     18  C   UNL     1       3.459   1.606  17.994  0.00  0.00    +0.000 C 
BRANCH  18  19
ATOM     19  O   UNL     1       4.327   0.674  18.631  0.00  0.00    +0.000 OA
ATOM     20  H   UNL     1       5.244   0.953  18.413  0.00  0.00    +0.000 HD
ENDBRANCH  18  19
ENDBRANCH  14  18
ENDBRANCH  13  14
ENDBRANCH   3  13
TORSDOF 6
ENDMDL
MODEL 6
REMARK VINA RESULT:      -6.4      2.782      5.805
REMARK  Name = 
REMARK  6 active torsions:
REMARK  status: ('A' for Active; 'I' for Inactive)
REMARK    1  A    between atoms: C_2  and  C_3
REMARK    2  A    between atoms: C_3  and  C_4
REMARK    3  A    between atoms: N_11  and  C_12
REMARK    4  A    between atoms: C_12  and  C_13
REMARK    5  A    between atoms: C_13  and  C_14
REMARK    6  A    between atoms: C_14  and  O_15
REMARK                            x       y       z     vdW  Elec       q    Type
REMARK                         _______ _______ _______ _____ _____    ______ ____
ROOT
ATOM      1  O   UNL     1       3.234   7.487  18.306  0.00  0.00    +0.000 OA
ATOM      2  C   UNL     1       3.205   6.370  17.789  0.00  0.00    +0.000 C 
ATOM      3  N   UNL     1       4.289   5.823  17.132  0.00  0.00    +0.000 N 
ATOM      4  H   UNL     1       4.167   4.956  16.623  0.00  0.00    +0.000 HD
ENDROOT
BRANCH   2   5
ATOM      5  C   UNL     1       1.961   5.497  17.798  0.00  0.00    +0.000 C 
BRANCH   5   6
ATOM      6  C   UNL     1       1.890   4.556  18.979  0.00  0.00    +0.000 A 
ATOM      7  C   UNL     1       1.564   3.202  18.792  0.00  0.00    +0.000 A 
ATOM      8  C   UNL     1       1.536   2.325  19.878  0.00  0.00    +0.000 A 
ATOM      9  C   UNL     1       1.835   2.797  21.150  0.00  0.00    +0.000 A 
ATOM     10  F   UNL     1       1.811   1.951  22.189  0.00  0.00    +0.000 F 
ATOM     11  C   UNL     1       2.165   4.130  21.357  0.00  0.00    +0.000 A 
ATOM     12  C   UNL     1       2.194   5.009  20.273  0.00  0.00    +0.000 A 
ENDBRANCH   5   6
ENDBRANCH   2   5
BRANCH   3  13
ATOM     13  C   UNL     1       5.566   6.505  17.039  0.00  0.00    +0.000 C 
BRANCH  13  14
ATOM     14  C   UNL     1       6.637   5.668  17.748  0.00  0.00    +0.000 C 
ATOM     15  C   UNL     1       7.752   6.551  18.395  0.00  0.00    +0.000 C 
ATOM     16  C   UNL     1       7.669   5.666  19.652  0.00  0.00    +0.000 C 
ATOM     17  C   UNL     1       6.254   5.257  19.208  0.00  0.00    +0.000 C 
BRANCH  14  18
ATOM     18  C   UNL     1       7.212   4.531  16.892  0.00  0.00    +0.000 C 
BRANCH  18  19
ATOM     19  O   UNL     1       6.435   4.373  15.709  0.00  0.00    +0.000 OA
ATOM     20  H   UNL     1       7.028   4.586  14.955  0.00  0.00    +0.000 HD
ENDBRANCH  18  19
ENDBRANCH  14  18
ENDBRANCH  13  14
ENDBRANCH   3  13
TORSDOF 6
ENDMDL
MODEL 7
REMARK VINA RESULT:      -6.4      2.330      3.430
REMARK  Name = 
REMARK  6 active torsions:
REMARK  status: ('A' for Active; 'I' for Inactive)
REMARK    1  A    between atoms: C_2  and  C_3
REMARK    2  A    between atoms: C_3  and  C_4
REMARK    3  A    between atoms: N_11  and  C_12
REMARK    4  A    between atoms: C_12  and  C_13
REMARK    5  A    between atoms: C_13  and  C_14
REMARK    6  A    between atoms: C_14  and  O_15
REMARK                            x       y       z     vdW  Elec       q    Type
REMARK                         _______ _______ _______ _____ _____    ______ ____
ROOT
ATOM      1  O   UNL     1       5.868   4.857  19.723  0.00  0.00    +0.000 OA
ATOM      2  C   UNL     1       5.108   5.484  18.983  0.00  0.00    +0.000 C 
ATOM      3  N   UNL     1       3.736   5.464  19.133  0.00  0.00    +0.000 N 
ATOM      4  H   UNL     1       3.160   5.898  18.422  0.00  0.00    +0.000 HD
ENDROOT
BRANCH   2   5
ATOM      5  C   UNL     1       5.608   6.315  17.814  0.00  0.00    +0.000 C 
BRANCH   5   6
ATOM      6  C   UNL     1       5.866   5.507  16.563  0.00  0.00    +0.000 A 
ATOM      7  C   UNL     1       4.872   4.659  16.045  0.00  0.00    +0.000 A 
ATOM      8  C   UNL     1       5.097   3.943  14.867  0.00  0.00    +0.000 A 
ATOM      9  C   UNL     1       6.311   4.074  14.205  0.00  0.00    +0.000 A 
ATOM     10  F   UNL     1       6.521   3.388  13.073  0.00  0.00    +0.000 F 
ATOM     11  C   UNL     1       7.305   4.910  14.695  0.00  0.00    +0.000 A 
ATOM     12  C   UNL     1       7.083   5.628  15.872  0.00  0.00    +0.000 A 
ENDBRANCH   5   6
ENDBRANCH   2   5
BRANCH   3  13
ATOM     13  C   UNL     1       3.081   4.739  20.205  0.00  0.00    +0.000 C 
BRANCH  13  14
ATOM     14  C   UNL     1       2.550   3.408  19.661  0.00  0.00    +0.000 C 
ATOM     15  C   UNL     1       1.138   3.052  20.232  0.00  0.00    +0.000 C 
ATOM     16  C   UNL     1       0.710   2.644  18.810  0.00  0.00    +0.000 C 
ATOM     17  C   UNL     1       1.847   3.529  18.269  0.00  0.00    +0.000 C 
BRANCH  14  18
ATOM     18  C   UNL     1       3.540   2.242  19.780  0.00  0.00    +0.000 C 
BRANCH  18  19
ATOM     19  O   UNL     1       4.504   2.314  18.733  0.00  0.00    +0.000 OA
ATOM     20  H   UNL     1       4.888   1.414  18.646  0.00  0.00    +0.000 HD
ENDBRANCH  18  19
ENDBRANCH  14  18
ENDBRANCH  13  14
ENDBRANCH   3  13
TORSDOF 6
ENDMDL
MODEL 8
REMARK VINA RESULT:      -6.3      3.031      6.093
REMARK  Name = 
REMARK  6 active torsions:
REMARK  status: ('A' for Active; 'I' for Inactive)
REMARK    1  A    between atoms: C_2  and  C_3
REMARK    2  A    between atoms: C_3  and  C_4
REMARK    3  A    between atoms: N_11  and  C_12
REMARK    4  A    between atoms: C_12  and  C_13
REMARK    5  A    between atoms: C_13  and  C_14
REMARK    6  A    between atoms: C_14  and  O_15
REMARK                            x       y       z     vdW  Elec       q    Type
REMARK                         _______ _______ _______ _____ _____    ______ ____
ROOT
ATOM      1  O   UNL     1       2.899   8.326  17.290  0.00  0.00    +0.000 OA
ATOM      2  C   UNL     1       3.121   7.351  18.009  0.00  0.00    +0.000 C 
ATOM      3  N   UNL     1       4.182   6.493  17.796  0.00  0.00    +0.000 N 
ATOM      4  H   UNL     1       4.241   5.643  18.344  0.00  0.00    +0.000 HD
ENDROOT
BRANCH   2   5
ATOM      5  C   UNL     1       2.230   6.981  19.182  0.00  0.00    +0.000 C 
BRANCH   5   6
ATOM      6  C   UNL     1       1.980   5.495  19.308  0.00  0.00    +0.000 A 
ATOM      7  C   UNL     1       1.684   4.723  18.171  0.00  0.00    +0.000 A 
ATOM      8  C   UNL     1       1.491   3.345  18.282  0.00  0.00    +0.000 A 
ATOM      9  C   UNL     1       1.597   2.735  19.526  0.00  0.00    +0.000 A 
ATOM     10  F   UNL     1       1.416   1.411  19.628  0.00  0.00    +0.000 F 
ATOM     11  C   UNL     1       1.894   3.476  20.662  0.00  0.00    +0.000 A 
ATOM     12  C   UNL     1       2.087   4.855  20.553  0.00  0.00    +0.000 A 
ENDBRANCH   5   6
ENDBRANCH   2   5
BRANCH   3  13
ATOM     13  C   UNL     1       5.148   6.700  16.734  0.00  0.00    +0.000 C 
BRANCH  13  14
ATOM     14  C   UNL     1       6.487   6.076  17.142  0.00  0.00    +0.000 C 
ATOM     15  C   UNL     1       7.558   7.153  17.512  0.00  0.00    +0.000 C 
ATOM     16  C   UNL     1       7.939   6.297  18.734  0.00  0.00    +0.000 C 
ATOM     17  C   UNL     1       6.550   5.641  18.644  0.00  0.00    +0.000 C 
BRANCH  14  18
ATOM     18  C   UNL     1       7.022   5.035  16.150  0.00  0.00    +0.000 C 
BRANCH  18  19
ATOM     19  O   UNL     1       7.740   5.684  15.105  0.00  0.00    +0.000 OA
ATOM     20  H   UNL     1       8.255   4.985  14.646  0.00  0.00    +0.000 HD
ENDBRANCH  18  19
ENDBRANCH  14  18
ENDBRANCH  13  14
ENDBRANCH   3  13
TORSDOF 6
ENDMDL
MODEL 9
REMARK VINA RESULT:      -6.3      1.301      2.038
REMARK  Name = 
REMARK  6 active torsions:
REMARK  status: ('A' for Active; 'I' for Inactive)
REMARK    1  A    between atoms: C_2  and  C_3
REMARK    2  A    between atoms: C_3  and  C_4
REMARK    3  A    between atoms: N_11  and  C_12
REMARK    4  A    between atoms: C_12  and  C_13
REMARK    5  A    between atoms: C_13  and  C_14
REMARK    6  A    between atoms: C_14  and  O_15
REMARK                            x       y       z     vdW  Elec       q    Type
REMARK                         _______ _______ _______ _____ _____    ______ ____
ROOT
ATOM      1  O   UNL     1       2.691   4.663  17.112  0.00  0.00    +0.000 OA
ATOM      2  C   UNL     1       3.619   3.856  17.045  0.00  0.00    +0.000 C 
ATOM      3  N   UNL     1       3.628   2.669  17.750  0.00  0.00    +0.000 N 
ATOM      4  H   UNL     1       4.471   2.106  17.750  0.00  0.00    +0.000 HD
ENDROOT
BRANCH   2   5
ATOM      5  C   UNL     1       4.859   4.105  16.203  0.00  0.00    +0.000 C 
BRANCH   5   6
ATOM      6  C   UNL     1       5.864   5.023  16.861  0.00  0.00    +0.000 A 
ATOM      7  C   UNL     1       5.833   6.406  16.614  0.00  0.00    +0.000 A 
ATOM      8  C   UNL     1       6.737   7.258  17.253  0.00  0.00    +0.000 A 
ATOM      9  C   UNL     1       7.669   6.732  18.138  0.00  0.00    +0.000 A 
ATOM     10  F   UNL     1       8.532   7.554  18.751  0.00  0.00    +0.000 F 
ATOM     11  C   UNL     1       7.714   5.369  18.400  0.00  0.00    +0.000 A 
ATOM     12  C   UNL     1       6.811   4.515  17.764  0.00  0.00    +0.000 A 
ENDBRANCH   5   6
ENDBRANCH   2   5
BRANCH   3  13
ATOM     13  C   UNL     1       2.521   2.256  18.592  0.00  0.00    +0.000 C 
BRANCH  13  14
ATOM     14  C   UNL     1       2.848   2.587  20.052  0.00  0.00    +0.000 C 
ATOM     15  C   UNL     1       2.820   4.125  20.334  0.00  0.00    +0.000 C 
ATOM     16  C   UNL     1       2.044   3.832  21.631  0.00  0.00    +0.000 C 
ATOM     17  C   UNL     1       1.618   2.489  21.013  0.00  0.00    +0.000 C 
BRANCH  14  18
ATOM     18  C   UNL     1       4.126   1.919  20.575  0.00  0.00    +0.000 C 
BRANCH  18  19
ATOM     19  O   UNL     1       5.270   2.532  19.988  0.00  0.00    +0.000 OA
ATOM     20  H   UNL     1       5.274   2.265  19.042  0.00  0.00    +0.000 HD
ENDBRANCH  18  19
ENDBRANCH  14  18
ENDBRANCH  13  14
ENDBRANCH   3  13
TORSDOF 6
ENDMDL
