MODEL 1
REMARK VINA RESULT:      -7.4      0.000      0.000
REMARK  Name = 
REMARK  6 active torsions:
REMARK  status: ('A' for Active; 'I' for Inactive)
REMARK    1  A    between atoms: C_1  and  C_2
REMARK    2  A    between atoms: C_5  and  C_6
REMARK    3  A    between atoms: C_7  and  S_8
REMARK    4  A    between atoms: S_8  and  N_11
REMARK    5  A    between atoms: C_14  and  O_15
REMARK    6  A    between atoms: O_15  and  C_16
REMARK                            x       y       z     vdW  Elec       q    Type
REMARK                         _______ _______ _______ _____ _____    ______ ____
ROOT
ATOM      1  N   UNL     1       3.966   5.264  18.635  0.00  0.00    +0.000 NA
ATOM      2  C   UNL     1       3.229   5.088  19.912  0.00  0.00    +0.000 C 
ATOM      3  C   UNL     1       1.762   5.441  19.748  0.00  0.00    +0.000 C 
ATOM      4  C   UNL     1       1.589   6.893  19.307  0.00  0.00    +0.000 C 
ATOM      5  C   UNL     1       2.312   7.057  17.968  0.00  0.00    +0.000 C 
ATOM      6  C   UNL     1       3.774   6.610  18.008  0.00  0.00    +0.000 C 
ENDROOT
BRANCH   1   7
ATOM      7  S   UNL     1       5.652   4.895  18.811  0.00  0.00    +0.000 S 
ATOM      8  O   UNL     1       5.787   3.451  18.847  0.00  0.00    +0.000 OA
ATOM      9  O   UNL     1       6.184   5.733  19.863  0.00  0.00    +0.000 OA
BRANCH   7  16
ATOM     10  C   UNL     1       5.565   3.600  15.740  0.00  0.00    +0.000 C 
ATOM     11  C   UNL     1       6.386   4.773  16.132  0.00  0.00    +0.000 A 
ATOM     12  N   UNL     1       7.168   5.377  15.225  0.00  0.00    +0.000 NA
ATOM     13  N   UNL     1       7.726   6.395  15.897  0.00  0.00    +0.000 N 
ATOM     14  C   UNL     1       7.376   6.448  17.218  0.00  0.00    +0.000 A 
ATOM     15  C   UNL     1       7.917   7.490  18.123  0.00  0.00    +0.000 C 
ATOM     16  C   UNL     1       6.491   5.398  17.396  0.00  0.00    +0.000 A 
ATOM     17  H   UNL     1       8.345   7.019  15.390  0.00  0.00    +0.000 HD
ENDBRANCH   7  16
ENDBRANCH   1   7
BRANCH   4  18
ATOM     18  O   UNL     1       2.147   7.828  20.246  0.00  0.00    +0.000 OA
BRANCH  18  19
ATOM     19  C   UNL     1       1.291   8.651  20.931  0.00  0.00    +0.000 A 
ATOM     20  C   UNL     1       1.178   8.724  22.319  0.00  0.00    +0.000 A 
ATOM     21  C   UNL     1       0.319   9.651  22.917  0.00  0.00    +0.000 A 
ATOM     22  C   UNL     1      -0.461  10.497  22.131  0.00  0.00    +0.000 A 
ATOM     23 CL   UNL     1      -1.507  11.607  22.943  0.00  0.00    +0.000 Cl
ATOM     24  C   UNL     1      -0.372  10.419  20.739  0.00  0.00    +0.000 A 
ATOM     25 CL   UNL     1      -1.326  11.417  19.700  0.00  0.00    +0.000 Cl
ATOM     26  C   UNL     1       0.512   9.506  20.145  0.00  0.00    +0.000 A 
ENDBRANCH  18  19
ENDBRANCH   4  18
TORSDOF 4
ENDMDL
MODEL 2
REMARK VINA RESULT:      -7.2      0.148      1.632
REMARK  Name = 
REMARK  6 active torsions:
REMARK  status: ('A' for Active; 'I' for Inactive)
REMARK    1  A    between atoms: C_1  and  C_2
REMARK    2  A    between atoms: C_5  and  C_6
REMARK    3  A    between atoms: C_7  and  S_8
REMARK    4  A    between atoms: S_8  and  N_11
REMARK    5  A    between atoms: C_14  and  O_15
REMARK    6  A    between atoms: O_15  and  C_16
REMARK                            x       y       z     vdW  Elec       q    Type
REMARK                         _______ _______ _______ _____ _____    ______ ____
ROOT
ATOM      1  N   UNL     1       3.928   5.132  18.730  0.00  0.00    +0.000 NA
ATOM      2  C   UNL     1       3.244   5.032  20.044  0.00  0.00    +0.000 C 
ATOM      3  C   UNL     1       1.767   5.358  19.916  0.00  0.00    +0.000 C 
ATOM      4  C   UNL     1       1.558   6.776  19.391  0.00  0.00    +0.000 C 
ATOM      5  C   UNL     1       2.226   6.861  18.016  0.00  0.00    +0.000 C 
ATOM      6  C   UNL     1       3.694   6.433  18.026  0.00  0.00    +0.000 C 
ENDROOT
BRANCH   1   7
ATOM      7  S   UNL     1       5.625   4.792  18.862  0.00  0.00    +0.000 S 
ATOM      8  O   UNL     1       5.780   3.355  18.975  0.00  0.00    +0.000 OA
ATOM      9  O   UNL     1       6.184   5.697  19.842  0.00  0.00    +0.000 OA
BRANCH   7  16
ATOM     10  C   UNL     1       7.843   7.212  18.279  0.00  0.00    +0.000 C 
ATOM     11  C   UNL     1       7.334   6.277  17.246  0.00  0.00    +0.000 A 
ATOM     12  N   UNL     1       7.759   6.381  15.978  0.00  0.00    +0.000 NA
ATOM     13  N   UNL     1       7.137   5.379  15.339  0.00  0.00    +0.000 N 
ATOM     14  C   UNL     1       6.286   4.657  16.129  0.00  0.00    +0.000 A 
ATOM     15  C   UNL     1       5.494   3.528  15.587  0.00  0.00    +0.000 C 
ATOM     16  C   UNL     1       6.402   5.222  17.388  0.00  0.00    +0.000 A 
ATOM     17  H   UNL     1       7.338   5.246  14.353  0.00  0.00    +0.000 HD
ENDBRANCH   7  16
ENDBRANCH   1   7
BRANCH   4  18
ATOM     18  O   UNL     1       2.140   7.776  20.245  0.00  0.00    +0.000 OA
BRANCH  18  19
ATOM     19  C   UNL     1       1.301   8.623  20.920  0.00  0.00    +0.000 A 
ATOM     20  C   UNL     1       1.162   8.687  22.306  0.00  0.00    +0.000 A 
ATOM     21  C   UNL     1       0.325   9.639  22.896  0.00  0.00    +0.000 A 
ATOM     22  C   UNL     1      -0.407  10.521  22.103  0.00  0.00    +0.000 A 
ATOM     23 CL   UNL     1      -1.428  11.661  22.904  0.00  0.00    +0.000 Cl
ATOM     24  C   UNL     1      -0.290  10.453  20.712  0.00  0.00    +0.000 A 
ATOM     25 CL   UNL     1      -1.185  11.496  19.664  0.00  0.00    +0.000 Cl
ATOM     26  C   UNL     1       0.571   9.514  20.127  0.00  0.00    +0.000 A 
ENDBRANCH  18  19
ENDBRANCH   4  18
TORSDOF 4
ENDMDL
MODEL 3
REMARK VINA RESULT:      -7.1      0.675      1.403
REMARK  Name = 
REMARK  6 active torsions:
REMARK  status: ('A' for Active; 'I' for Inactive)
REMARK    1  A    between atoms: C_1  and  C_2
REMARK    2  A    between atoms: C_5  and  C_6
REMARK    3  A    between atoms: C_7  and  S_8
REMARK    4  A    between atoms: S_8  and  N_11
REMARK    5  A    between atoms: C_14  and  O_15
REMARK    6  A    between atoms: O_15  and  C_16
REMARK                            x       y       z     vdW  Elec       q    Type
REMARK                         _______ _______ _______ _____ _____    ______ ____
ROOT
ATOM      1  N   UNL     1       4.006   5.037  18.621  0.00  0.00    +0.000 NA
ATOM      2  C   UNL     1       3.290   4.892  19.913  0.00  0.00    +0.000 C 
ATOM      3  C   UNL     1       1.805   5.158  19.747  0.00  0.00    +0.000 C 
ATOM      4  C   UNL     1       1.551   6.573  19.232  0.00  0.00    +0.000 C 
ATOM      5  C   UNL     1       2.253   6.703  17.878  0.00  0.00    +0.000 C 
ATOM      6  C   UNL     1       3.737   6.336  17.925  0.00  0.00    +0.000 C 
ENDROOT
BRANCH   1   7
ATOM      7  S   UNL     1       5.711   4.767  18.797  0.00  0.00    +0.000 S 
ATOM      8  O   UNL     1       5.932   3.334  18.816  0.00  0.00    +0.000 OA
ATOM      9  O   UNL     1       6.189   5.624  19.860  0.00  0.00    +0.000 OA
BRANCH   7  16
ATOM     10  C   UNL     1       5.581   3.601  15.676  0.00  0.00    +0.000 C 
ATOM     11  C   UNL     1       6.399   4.763  16.103  0.00  0.00    +0.000 A 
ATOM     12  N   UNL     1       7.161   5.411  15.209  0.00  0.00    +0.000 NA
ATOM     13  N   UNL     1       7.722   6.406  15.913  0.00  0.00    +0.000 N 
ATOM     14  C   UNL     1       7.394   6.400  17.241  0.00  0.00    +0.000 A 
ATOM     15  C   UNL     1       7.942   7.409  18.180  0.00  0.00    +0.000 C 
ATOM     16  C   UNL     1       6.521   5.336  17.390  0.00  0.00    +0.000 A 
ATOM     17  H   UNL     1       8.327   7.055  15.422  0.00  0.00    +0.000 HD
ENDBRANCH   7  16
ENDBRANCH   1   7
BRANCH   4  18
ATOM     18  O   UNL     1       2.066   7.585  20.113  0.00  0.00    +0.000 OA
BRANCH  18  19
ATOM     19  C   UNL     1       1.339   8.734  20.280  0.00  0.00    +0.000 A 
ATOM     20  C   UNL     1       1.135   9.709  19.304  0.00  0.00    +0.000 A 
ATOM     21  C   UNL     1       0.316  10.814  19.559  0.00  0.00    +0.000 A 
ATOM     22  C   UNL     1      -0.286  10.971  20.806  0.00  0.00    +0.000 A 
ATOM     23 CL   UNL     1      -1.274  12.367  21.049  0.00  0.00    +0.000 Cl
ATOM     24  C   UNL     1      -0.073  10.011  21.798  0.00  0.00    +0.000 A 
ATOM     25 CL   UNL     1      -0.764  10.151  23.376  0.00  0.00    +0.000 Cl
ATOM     26  C   UNL     1       0.728   8.891  21.528  0.00  0.00    +0.000 A 
ENDBRANCH  18  19
ENDBRANCH   4  18
TORSDOF 4
ENDMDL
MODEL 4
REMARK VINA RESULT:      -6.9      0.696      2.150
REMARK  Name = 
REMARK  6 active torsions:
REMARK  status: ('A' for Active; 'I' for Inactive)
REMARK    1  A    between atoms: C_1  and  C_2
REMARK    2  A    between atoms: C_5  and  C_6
REMARK    3  A    between atoms: C_7  and  S_8
REMARK    4  A    between atoms: S_8  and  N_11
REMARK    5  A    between atoms: C_14  and  O_15
REMARK    6  A    between atoms: O_15  and  C_16
REMARK                            x       y       z     vdW  Elec       q    Type
REMARK                         _______ _______ _______ _____ _____    ______ ____
ROOT
ATOM      1  N   UNL     1       3.969   5.002  18.671  0.00  0.00    +0.000 NA
ATOM      2  C   UNL     1       3.312   4.957  20.002  0.00  0.00    +0.000 C 
ATOM      3  C   UNL     1       1.823   5.228  19.885  0.00  0.00    +0.000 C 
ATOM      4  C   UNL     1       1.557   6.605  19.281  0.00  0.00    +0.000 C 
ATOM      5  C   UNL     1       2.197   6.630  17.890  0.00  0.00    +0.000 C 
ATOM      6  C   UNL     1       3.678   6.251  17.897  0.00  0.00    +0.000 C 
ENDROOT
BRANCH   1   7
ATOM      7  S   UNL     1       5.677   4.726  18.789  0.00  0.00    +0.000 S 
ATOM      8  O   UNL     1       5.889   3.295  18.881  0.00  0.00    +0.000 OA
ATOM      9  O   UNL     1       6.208   5.637  19.779  0.00  0.00    +0.000 OA
BRANCH   7  16
ATOM     10  C   UNL     1       7.802   7.234  18.231  0.00  0.00    +0.000 C 
ATOM     11  C   UNL     1       7.321   6.296  17.187  0.00  0.00    +0.000 A 
ATOM     12  N   UNL     1       7.734   6.436  15.918  0.00  0.00    +0.000 NA
ATOM     13  N   UNL     1       7.145   5.422  15.267  0.00  0.00    +0.000 N 
ATOM     14  C   UNL     1       6.326   4.658  16.051  0.00  0.00    +0.000 A 
ATOM     15  C   UNL     1       5.571   3.509  15.496  0.00  0.00    +0.000 C 
ATOM     16  C   UNL     1       6.430   5.206  17.318  0.00  0.00    +0.000 A 
ATOM     17  H   UNL     1       7.344   5.312  14.277  0.00  0.00    +0.000 HD
ENDBRANCH   7  16
ENDBRANCH   1   7
BRANCH   4  18
ATOM     18  O   UNL     1       2.120   7.671  20.063  0.00  0.00    +0.000 OA
BRANCH  18  19
ATOM     19  C   UNL     1       1.376   8.808  20.245  0.00  0.00    +0.000 A 
ATOM     20  C   UNL     1       1.182   9.808  19.293  0.00  0.00    +0.000 A 
ATOM     21  C   UNL     1       0.345  10.895  19.560  0.00  0.00    +0.000 A 
ATOM     22  C   UNL     1      -0.286  11.011  20.797  0.00  0.00    +0.000 A 
ATOM     23 CL   UNL     1      -1.295  12.388  21.057  0.00  0.00    +0.000 Cl
ATOM     24  C   UNL     1      -0.084  10.025  21.767  0.00  0.00    +0.000 A 
ATOM     25 CL   UNL     1      -0.812  10.113  23.332  0.00  0.00    +0.000 Cl
ATOM     26  C   UNL     1       0.735   8.922  21.483  0.00  0.00    +0.000 A 
ENDBRANCH  18  19
ENDBRANCH   4  18
TORSDOF 4
ENDMDL
MODEL 5
REMARK VINA RESULT:      -6.8      3.062      4.162
REMARK  Name = 
REMARK  6 active torsions:
REMARK  status: ('A' for Active; 'I' for Inactive)
REMARK    1  A    between atoms: C_1  and  C_2
REMARK    2  A    between atoms: C_5  and  C_6
REMARK    3  A    between atoms: C_7  and  S_8
REMARK    4  A    between atoms: S_8  and  N_11
REMARK    5  A    between atoms: C_14  and  O_15
REMARK    6  A    between atoms: O_15  and  C_16
REMARK                            x       y       z     vdW  Elec       q    Type
REMARK                         _______ _______ _______ _____ _____    ______ ____
ROOT
ATOM      1  N   UNL     1       2.334   6.464  19.190  0.00  0.00    +0.000 NA
ATOM      2  C   UNL     1       2.358   7.075  17.837  0.00  0.00    +0.000 C 
ATOM      3  C   UNL     1       2.733   8.544  17.908  0.00  0.00    +0.000 C 
ATOM      4  C   UNL     1       1.734   9.329  18.754  0.00  0.00    +0.000 C 
ATOM      5  C   UNL     1       1.747   8.724  20.161  0.00  0.00    +0.000 C 
ATOM      6  C   UNL     1       1.495   7.216  20.177  0.00  0.00    +0.000 C 
ENDROOT
BRANCH   1   7
ATOM      7  S   UNL     1       1.876   4.791  19.132  0.00  0.00    +0.000 S 
ATOM      8  O   UNL     1       1.451   4.496  17.777  0.00  0.00    +0.000 OA
ATOM      9  O   UNL     1       1.024   4.524  20.270  0.00  0.00    +0.000 OA
BRANCH   7  16
ATOM     10  C   UNL     1       2.443   2.543  21.527  0.00  0.00    +0.000 C 
ATOM     11  C   UNL     1       3.409   2.886  20.455  0.00  0.00    +0.000 A 
ATOM     12  N   UNL     1       4.607   2.285  20.414  0.00  0.00    +0.000 NA
ATOM     13  N   UNL     1       5.196   2.795  19.322  0.00  0.00    +0.000 N 
ATOM     14  C   UNL     1       4.448   3.742  18.678  0.00  0.00    +0.000 A 
ATOM     15  C   UNL     1       4.948   4.434  17.467  0.00  0.00    +0.000 C 
ATOM     16  C   UNL     1       3.267   3.815  19.398  0.00  0.00    +0.000 A 
ATOM     17  H   UNL     1       6.118   2.453  19.074  0.00  0.00    +0.000 HD
ENDBRANCH   7  16
ENDBRANCH   1   7
BRANCH   4  18
ATOM     18  O   UNL     1       0.394   9.259  18.239  0.00  0.00    +0.000 OA
BRANCH  18  19
ATOM     19  C   UNL     1      -0.533  10.150  18.713  0.00  0.00    +0.000 A 
ATOM     20  C   UNL     1      -0.337  11.029  19.778  0.00  0.00    +0.000 A 
ATOM     21  C   UNL     1      -1.329  11.947  20.137  0.00  0.00    +0.000 A 
ATOM     22  C   UNL     1      -2.543  11.976  19.452  0.00  0.00    +0.000 A 
ATOM     23 CL   UNL     1      -3.723  13.130  19.961  0.00  0.00    +0.000 Cl
ATOM     24  C   UNL     1      -2.757  11.087  18.396  0.00  0.00    +0.000 A 
ATOM     25 CL   UNL     1      -4.245  11.047  17.517  0.00  0.00    +0.000 Cl
ATOM     26  C   UNL     1      -1.749  10.187  18.023  0.00  0.00    +0.000 A 
ENDBRANCH  18  19
ENDBRANCH   4  18
TORSDOF 4
ENDMDL
MODEL 6
REMARK VINA RESULT:      -6.7      2.891      4.155
REMARK  Name = 
REMARK  6 active torsions:
REMARK  status: ('A' for Active; 'I' for Inactive)
REMARK    1  A    between atoms: C_1  and  C_2
REMARK    2  A    between atoms: C_5  and  C_6
REMARK    3  A    between atoms: C_7  and  S_8
REMARK    4  A    between atoms: S_8  and  N_11
REMARK    5  A    between atoms: C_14  and  O_15
REMARK    6  A    between atoms: O_15  and  C_16
REMARK                            x       y       z     vdW  Elec       q    Type
REMARK                         _______ _______ _______ _____ _____    ______ ____
ROOT
ATOM      1  N   UNL     1       2.263   6.406  19.392  0.00  0.00    +0.000 NA
ATOM      2  C   UNL     1       2.079   7.178  18.137  0.00  0.00    +0.000 C 
ATOM      3  C   UNL     1       2.403   8.646  18.347  0.00  0.00    +0.000 C 
ATOM      4  C   UNL     1       1.499   9.266  19.409  0.00  0.00    +0.000 C 
ATOM      5  C   UNL     1       1.726   8.496  20.713  0.00  0.00    +0.000 C 
ATOM      6  C   UNL     1       1.537   6.985  20.568  0.00  0.00    +0.000 C 
ENDROOT
BRANCH   1   7
ATOM      7  S   UNL     1       1.866   4.731  19.181  0.00  0.00    +0.000 S 
ATOM      8  O   UNL     1       1.499   4.536  17.792  0.00  0.00    +0.000 OA
ATOM      9  O   UNL     1       0.986   4.342  20.260  0.00  0.00    +0.000 OA
BRANCH   7  16
ATOM     10  C   UNL     1       2.521   2.484  21.556  0.00  0.00    +0.000 C 
ATOM     11  C   UNL     1       3.461   2.851  20.468  0.00  0.00    +0.000 A 
ATOM     12  N   UNL     1       4.670   2.273  20.402  0.00  0.00    +0.000 NA
ATOM     13  N   UNL     1       5.228   2.799  19.302  0.00  0.00    +0.000 N 
ATOM     14  C   UNL     1       4.449   3.734  18.676  0.00  0.00    +0.000 A 
ATOM     15  C   UNL     1       4.914   4.441  17.459  0.00  0.00    +0.000 C 
ATOM     16  C   UNL     1       3.281   3.781  19.417  0.00  0.00    +0.000 A 
ATOM     17  H   UNL     1       6.152   2.477  19.036  0.00  0.00    +0.000 HD
ENDBRANCH   7  16
ENDBRANCH   1   7
BRANCH   4  18
ATOM     18  O   UNL     1       0.105   9.185  19.067  0.00  0.00    +0.000 OA
BRANCH  18  19
ATOM     19  C   UNL     1      -0.701  10.252  19.366  0.00  0.00    +0.000 A 
ATOM     20  C   UNL     1      -1.688  10.777  18.533  0.00  0.00    +0.000 A 
ATOM     21  C   UNL     1      -2.503  11.828  18.966  0.00  0.00    +0.000 A 
ATOM     22  C   UNL     1      -2.319  12.387  20.230  0.00  0.00    +0.000 A 
ATOM     23 CL   UNL     1      -3.356  13.689  20.689  0.00  0.00    +0.000 Cl
ATOM     24  C   UNL     1      -1.319  11.881  21.066  0.00  0.00    +0.000 A 
ATOM     25 CL   UNL     1      -1.016  12.539  22.635  0.00  0.00    +0.000 Cl
ATOM     26  C   UNL     1      -0.524  10.809  20.637  0.00  0.00    +0.000 A 
ENDBRANCH  18  19
ENDBRANCH   4  18
TORSDOF 4
ENDMDL
MODEL 7
REMARK VINA RESULT:      -6.7      5.536      8.189
REMARK  Name = 
REMARK  6 active torsions:
REMARK  status: ('A' for Active; 'I' for Inactive)
REMARK    1  A    between atoms: C_1  and  C_2
REMARK    2  A    between atoms: C_5  and  C_6
REMARK    3  A    between atoms: C_7  and  S_8
REMARK    4  A    between atoms: S_8  and  N_11
REMARK    5  A    between atoms: C_14  and  O_15
REMARK    6  A    between atoms: O_15  and  C_16
REMARK                            x       y       z     vdW  Elec       q    Type
REMARK                         _______ _______ _______ _____ _____    ______ ____
ROOT
ATOM      1  N   UNL     1       4.258   5.796  19.028  0.00  0.00    +0.000 NA
ATOM      2  C   UNL     1       5.097   4.600  19.295  0.00  0.00    +0.000 C 
ATOM      3  C   UNL     1       6.563   4.891  19.028  0.00  0.00    +0.000 C 
ATOM      4  C   UNL     1       6.789   5.302  17.575  0.00  0.00    +0.000 C 
ATOM      5  C   UNL     1       5.957   6.562  17.318  0.00  0.00    +0.000 C 
ATOM      6  C   UNL     1       4.480   6.397  17.674  0.00  0.00    +0.000 C 
ENDROOT
BRANCH   1   7
ATOM      7  S   UNL     1       2.575   5.473  19.298  0.00  0.00    +0.000 S 
ATOM      8  O   UNL     1       1.827   6.107  18.230  0.00  0.00    +0.000 OA
ATOM      9  O   UNL     1       2.289   5.743  20.690  0.00  0.00    +0.000 OA
BRANCH   7  16
ATOM     10  C   UNL     1       2.902   3.556  16.590  0.00  0.00    +0.000 C 
ATOM     11  C   UNL     1       2.455   3.063  17.916  0.00  0.00    +0.000 A 
ATOM     12  N   UNL     1       2.141   1.769  18.079  0.00  0.00    +0.000 NA
ATOM     13  N   UNL     1       1.822   1.669  19.378  0.00  0.00    +0.000 N 
ATOM     14  C   UNL     1       1.867   2.856  20.055  0.00  0.00    +0.000 A 
ATOM     15  C   UNL     1       1.520   2.943  21.494  0.00  0.00    +0.000 C 
ATOM     16  C   UNL     1       2.288   3.786  19.120  0.00  0.00    +0.000 A 
ATOM     17  H   UNL     1       1.575   0.753  19.739  0.00  0.00    +0.000 HD
ENDBRANCH   7  16
ENDBRANCH   1   7
BRANCH   4  18
ATOM     18  O   UNL     1       6.382   4.287  16.642  0.00  0.00    +0.000 OA
BRANCH  18  19
ATOM     19  C   UNL     1       6.647   4.483  15.312  0.00  0.00    +0.000 A 
ATOM     20  C   UNL     1       7.676   5.272  14.800  0.00  0.00    +0.000 A 
ATOM     21  C   UNL     1       7.900   5.348  13.422  0.00  0.00    +0.000 A 
ATOM     22  C   UNL     1       7.076   4.657  12.536  0.00  0.00    +0.000 A 
ATOM     23 CL   UNL     1       7.408   4.809  10.848  0.00  0.00    +0.000 Cl
ATOM     24  C   UNL     1       6.028   3.879  13.036  0.00  0.00    +0.000 A 
ATOM     25 CL   UNL     1       4.950   3.015  11.997  0.00  0.00    +0.000 Cl
ATOM     26  C   UNL     1       5.825   3.785  14.420  0.00  0.00    +0.000 A 
ENDBRANCH  18  19
ENDBRANCH   4  18
TORSDOF 4
ENDMDL
MODEL 8
REMARK VINA RESULT:      -6.7      1.269      1.388
REMARK  Name = 
REMARK  6 active torsions:
REMARK  status: ('A' for Active; 'I' for Inactive)
REMARK    1  A    between atoms: C_1  and  C_2
REMARK    2  A    between atoms: C_5  and  C_6
REMARK    3  A    between atoms: C_7  and  S_8
REMARK    4  A    between atoms: S_8  and  N_11
REMARK    5  A    between atoms: C_14  and  O_15
REMARK    6  A    between atoms: O_15  and  C_16
REMARK                            x       y       z     vdW  Elec       q    Type
REMARK                         _______ _______ _______ _____ _____    ______ ____
ROOT
ATOM      1  N   UNL     1       3.422   5.522  17.576  0.00  0.00    +0.000 NA
ATOM      2  C   UNL     1       2.100   5.450  18.247  0.00  0.00    +0.000 C 
ATOM      3  C   UNL     1       1.241   6.650  17.892  0.00  0.00    +0.000 C 
ATOM      4  C   UNL     1       1.909   7.954  18.322  0.00  0.00    +0.000 C 
ATOM      5  C   UNL     1       3.252   8.046  17.592  0.00  0.00    +0.000 C 
ATOM      6  C   UNL     1       4.140   6.818  17.796  0.00  0.00    +0.000 C 
ENDROOT
BRANCH   1   7
ATOM      7  S   UNL     1       4.430   4.173  17.995  0.00  0.00    +0.000 S 
ATOM      8  O   UNL     1       3.950   3.018  17.261  0.00  0.00    +0.000 OA
ATOM      9  O   UNL     1       4.571   4.154  19.434  0.00  0.00    +0.000 OA
BRANCH   7  16
ATOM     10  C   UNL     1       5.635   3.817  14.907  0.00  0.00    +0.000 C 
ATOM     11  C   UNL     1       6.436   4.270  16.071  0.00  0.00    +0.000 A 
ATOM     12  N   UNL     1       7.738   4.555  15.920  0.00  0.00    +0.000 NA
ATOM     13  N   UNL     1       8.131   4.957  17.138  0.00  0.00    +0.000 N 
ATOM     14  C   UNL     1       7.148   4.897  18.087  0.00  0.00    +0.000 A 
ATOM     15  C   UNL     1       7.407   5.278  19.496  0.00  0.00    +0.000 C 
ATOM     16  C   UNL     1       6.024   4.456  17.411  0.00  0.00    +0.000 A 
ATOM     17  H   UNL     1       9.093   5.258  17.253  0.00  0.00    +0.000 HD
ENDBRANCH   7  16
ENDBRANCH   1   7
BRANCH   4  18
ATOM     18  O   UNL     1       2.153   8.012  19.737  0.00  0.00    +0.000 OA
BRANCH  18  19
ATOM     19  C   UNL     1       1.294   8.743  20.516  0.00  0.00    +0.000 A 
ATOM     20  C   UNL     1       1.132   8.600  21.893  0.00  0.00    +0.000 A 
ATOM     21  C   UNL     1       0.275   9.447  22.603  0.00  0.00    +0.000 A 
ATOM     22  C   UNL     1      -0.453  10.431  21.936  0.00  0.00    +0.000 A 
ATOM     23 CL   UNL     1      -1.499  11.431  22.879  0.00  0.00    +0.000 Cl
ATOM     24  C   UNL     1      -0.314  10.570  20.553  0.00  0.00    +0.000 A 
ATOM     25 CL   UNL     1      -1.203  11.749  19.655  0.00  0.00    +0.000 Cl
ATOM     26  C   UNL     1       0.567   9.736  19.850  0.00  0.00    +0.000 A 
ENDBRANCH  18  19
ENDBRANCH   4  18
TORSDOF 4
ENDMDL
MODEL 9
REMARK VINA RESULT:      -6.7      5.497      8.267
REMARK  Name = 
REMARK  6 active torsions:
REMARK  status: ('A' for Active; 'I' for Inactive)
REMARK    1  A    between atoms: C_1  and  C_2
REMARK    2  A    between atoms: C_5  and  C_6
REMARK    3  A    between atoms: C_7  and  S_8
REMARK    4  A    between atoms: S_8  and  N_11
REMARK    5  A    between atoms: C_14  and  O_15
REMARK    6  A    between atoms: O_15  and  C_16
REMARK                            x       y       z     vdW  Elec       q    Type
REMARK                         _______ _______ _______ _____ _____    ______ ____
ROOT
ATOM      1  N   UNL     1       4.282   5.865  18.915  0.00  0.00    +0.000 NA
ATOM      2  C   UNL     1       5.185   4.726  19.216  0.00  0.00    +0.000 C 
ATOM      3  C   UNL     1       6.629   5.079  18.913  0.00  0.00    +0.000 C 
ATOM      4  C   UNL     1       6.812   5.439  17.440  0.00  0.00    +0.000 C 
ATOM      5  C   UNL     1       5.913   6.643  17.145  0.00  0.00    +0.000 C 
ATOM      6  C   UNL     1       4.451   6.419  17.534  0.00  0.00    +0.000 C 
ENDROOT
BRANCH   1   7
ATOM      7  S   UNL     1       2.622   5.468  19.227  0.00  0.00    +0.000 S 
ATOM      8  O   UNL     1       1.819   6.070  18.179  0.00  0.00    +0.000 OA
ATOM      9  O   UNL     1       2.359   5.724  20.625  0.00  0.00    +0.000 OA
BRANCH   7  16
ATOM     10  C   UNL     1       1.623   3.231  21.488  0.00  0.00    +0.000 C 
ATOM     11  C   UNL     1       1.975   2.903  20.085  0.00  0.00    +0.000 A 
ATOM     12  N   UNL     1       1.913   1.634  19.656  0.00  0.00    +0.000 NA
ATOM     13  N   UNL     1       2.255   1.705  18.361  0.00  0.00    +0.000 N 
ATOM     14  C   UNL     1       2.586   2.964  17.942  0.00  0.00    +0.000 A 
ATOM     15  C   UNL     1       3.015   3.231  16.548  0.00  0.00    +0.000 C 
ATOM     16  C   UNL     1       2.404   3.771  19.053  0.00  0.00    +0.000 A 
ATOM     17  H   UNL     1       2.246   0.848  17.818  0.00  0.00    +0.000 HD
ENDBRANCH   7  16
ENDBRANCH   1   7
BRANCH   4  18
ATOM     18  O   UNL     1       6.444   4.367  16.557  0.00  0.00    +0.000 OA
BRANCH  18  19
ATOM     19  C   UNL     1       6.691   4.514  15.217  0.00  0.00    +0.000 A 
ATOM     20  C   UNL     1       7.743   5.244  14.665  0.00  0.00    +0.000 A 
ATOM     21  C   UNL     1       7.944   5.271  13.281  0.00  0.00    +0.000 A 
ATOM     22  C   UNL     1       7.075   4.592  12.430  0.00  0.00    +0.000 A 
ATOM     23 CL   UNL     1       7.381   4.683  10.733  0.00  0.00    +0.000 Cl
ATOM     24  C   UNL     1       6.005   3.873  12.970  0.00  0.00    +0.000 A 
ATOM     25 CL   UNL     1       4.872   3.028  11.977  0.00  0.00    +0.000 Cl
ATOM     26  C   UNL     1       5.825   3.827  14.360  0.00  0.00    +0.000 A 
ENDBRANCH  18  19
ENDBRANCH   4  18
TORSDOF 4
ENDMDL
