MODEL 1
REMARK VINA RESULT:      -6.8      0.000      0.000
REMARK  Name = 
REMARK  2 active torsions:
REMARK  status: ('A' for Active; 'I' for Inactive)
REMARK    1  A    between atoms: C_2  and  C_3
REMARK    2  A    between atoms: C_3  and  N_4
REMARK                            x       y       z     vdW  Elec       q    Type
REMARK                         _______ _______ _______ _____ _____    ______ ____
ROOT
ATOM      1  O   UNL     1       5.110   6.582  17.678  0.00  0.00    +0.000 OA
ATOM      2  C   UNL     1       5.235   5.382  17.947  0.00  0.00    +0.000 C 
ATOM      3  N   UNL     1       4.248   4.679  18.639  0.00  0.00    +0.000 N 
ATOM      4  C   UNL     1       4.362   3.274  19.039  0.00  0.00    +0.000 C 
ATOM      5  C   UNL     1       3.682   2.354  18.029  0.00  0.00    +0.000 C 
ATOM      6  C   UNL     1       2.156   2.357  18.108  0.00  0.00    +0.000 C 
ATOM      7  C   UNL     1       1.500   3.736  17.994  0.00  0.00    +0.000 C 
ATOM      8  C   UNL     1       1.779   4.626  19.203  0.00  0.00    +0.000 C 
ATOM      9  C   UNL     1       3.078   5.424  19.097  0.00  0.00    +0.000 C 
ENDROOT
BRANCH   2  10
ATOM     10  C   UNL     1       6.497   4.662  17.519  0.00  0.00    +0.000 C 
BRANCH  10  11
ATOM     11  N   UNL     1       6.591   4.612  16.073  0.00  0.00    +0.000 N 
ATOM     12  C   UNL     1       5.913   3.766  15.237  0.00  0.00    +0.000 A 
ATOM     13  C   UNL     1       6.322   4.101  13.972  0.00  0.00    +0.000 A 
ATOM     14  I   UNL     1       5.691   3.262  12.261  0.00  0.00    +0.000 I 
ATOM     15  C   UNL     1       7.251   5.134  14.132  0.00  0.00    +0.000 A 
ATOM     16  N   UNL     1       7.439   5.441  15.421  0.00  0.00    +0.000 NA
ENDBRANCH  10  11
ENDBRANCH   2  10
TORSDOF 2
ENDMDL
MODEL 2
REMARK VINA RESULT:      -6.6      1.277      2.013
REMARK  Name = 
REMARK  2 active torsions:
REMARK  status: ('A' for Active; 'I' for Inactive)
REMARK    1  A    between atoms: C_2  and  C_3
REMARK    2  A    between atoms: C_3  and  N_4
REMARK                            x       y       z     vdW  Elec       q    Type
REMARK                         _______ _______ _______ _____ _____    ______ ____
ROOT
ATOM      1  O   UNL     1       6.454   4.408  19.014  0.00  0.00    +0.000 OA
ATOM      2  C   UNL     1       5.383   4.653  18.448  0.00  0.00    +0.000 C 
ATOM      3  N   UNL     1       4.220   3.938  18.738  0.00  0.00    +0.000 N 
ATOM      4  C   UNL     1       2.936   4.138  18.060  0.00  0.00    +0.000 C 
ATOM      5  C   UNL     1       2.029   5.072  18.858  0.00  0.00    +0.000 C 
ATOM      6  C   UNL     1       1.393   4.425  20.087  0.00  0.00    +0.000 C 
ATOM      7  C   UNL     1       2.377   3.784  21.069  0.00  0.00    +0.000 C 
ATOM      8  C   UNL     1       3.055   2.540  20.501  0.00  0.00    +0.000 C 
ATOM      9  C   UNL     1       4.320   2.839  19.695  0.00  0.00    +0.000 C 
ENDROOT
BRANCH   2  10
ATOM     10  C   UNL     1       5.337   5.752  17.407  0.00  0.00    +0.000 C 
BRANCH  10  11
ATOM     11  N   UNL     1       5.906   5.294  16.155  0.00  0.00    +0.000 N 
ATOM     12  C   UNL     1       5.271   4.565  15.185  0.00  0.00    +0.000 A 
ATOM     13  C   UNL     1       6.204   4.384  14.198  0.00  0.00    +0.000 A 
ATOM     14  I   UNL     1       5.921   3.414  12.462  0.00  0.00    +0.000 I 
ATOM     15  C   UNL     1       7.369   5.011  14.653  0.00  0.00    +0.000 A 
ATOM     16  N   UNL     1       7.201   5.556  15.864  0.00  0.00    +0.000 NA
ENDBRANCH  10  11
ENDBRANCH   2  10
TORSDOF 2
ENDMDL
MODEL 3
REMARK VINA RESULT:      -6.4      1.171      1.228
REMARK  Name = 
REMARK  2 active torsions:
REMARK  status: ('A' for Active; 'I' for Inactive)
REMARK    1  A    between atoms: C_2  and  C_3
REMARK    2  A    between atoms: C_3  and  N_4
REMARK                            x       y       z     vdW  Elec       q    Type
REMARK                         _______ _______ _______ _____ _____    ______ ____
ROOT
ATOM      1  O   UNL     1       5.478   7.048  16.117  0.00  0.00    +0.000 OA
ATOM      2  C   UNL     1       5.650   5.989  16.731  0.00  0.00    +0.000 C 
ATOM      3  N   UNL     1       4.760   5.559  17.716  0.00  0.00    +0.000 N 
ATOM      4  C   UNL     1       4.940   4.348  18.520  0.00  0.00    +0.000 C 
ATOM      5  C   UNL     1       4.161   3.174  17.933  0.00  0.00    +0.000 C 
ATOM      6  C   UNL     1       2.655   3.236  18.182  0.00  0.00    +0.000 C 
ATOM      7  C   UNL     1       1.970   4.525  17.719  0.00  0.00    +0.000 C 
ATOM      8  C   UNL     1       2.374   5.742  18.548  0.00  0.00    +0.000 C 
ATOM      9  C   UNL     1       3.641   6.437  18.050  0.00  0.00    +0.000 C 
ENDROOT
BRANCH   2  10
ATOM     10  C   UNL     1       6.864   5.143  16.408  0.00  0.00    +0.000 C 
BRANCH  10  11
ATOM     11  N   UNL     1       6.876   4.783  15.003  0.00  0.00    +0.000 N 
ATOM     12  C   UNL     1       6.086   3.848  14.390  0.00  0.00    +0.000 A 
ATOM     13  C   UNL     1       6.453   3.872  13.070  0.00  0.00    +0.000 A 
ATOM     14  I   UNL     1       5.663   2.756  11.599  0.00  0.00    +0.000 I 
ATOM     15  C   UNL     1       7.473   4.824  12.974  0.00  0.00    +0.000 A 
ATOM     16  N   UNL     1       7.754   5.375  14.161  0.00  0.00    +0.000 NA
ENDBRANCH  10  11
ENDBRANCH   2  10
TORSDOF 2
ENDMDL
MODEL 4
REMARK VINA RESULT:      -6.3      2.773      3.763
REMARK  Name = 
REMARK  2 active torsions:
REMARK  status: ('A' for Active; 'I' for Inactive)
REMARK    1  A    between atoms: C_2  and  C_3
REMARK    2  A    between atoms: C_3  and  N_4
REMARK                            x       y       z     vdW  Elec       q    Type
REMARK                         _______ _______ _______ _____ _____    ______ ____
ROOT
ATOM      1  O   UNL     1       3.705   1.269  18.208  0.00  0.00    +0.000 OA
ATOM      2  C   UNL     1       3.173   2.348  17.923  0.00  0.00    +0.000 C 
ATOM      3  N   UNL     1       2.189   2.917  18.733  0.00  0.00    +0.000 N 
ATOM      4  C   UNL     1       1.479   4.160  18.420  0.00  0.00    +0.000 C 
ATOM      5  C   UNL     1       2.119   5.355  19.122  0.00  0.00    +0.000 C 
ATOM      6  C   UNL     1       1.814   5.439  20.616  0.00  0.00    +0.000 C 
ATOM      7  C   UNL     1       2.162   4.187  21.425  0.00  0.00    +0.000 C 
ATOM      8  C   UNL     1       1.265   2.998  21.091  0.00  0.00    +0.000 C 
ATOM      9  C   UNL     1       1.757   2.164  19.908  0.00  0.00    +0.000 C 
ENDROOT
BRANCH   2  10
ATOM     10  C   UNL     1       3.596   3.063  16.657  0.00  0.00    +0.000 C 
BRANCH  10  11
ATOM     11  N   UNL     1       4.871   3.725  16.846  0.00  0.00    +0.000 N 
ATOM     12  C   UNL     1       5.303   4.365  17.978  0.00  0.00    +0.000 A 
ATOM     13  C   UNL     1       6.561   4.818  17.681  0.00  0.00    +0.000 A 
ATOM     14  I   UNL     1       7.781   5.825  18.919  0.00  0.00    +0.000 I 
ATOM     15  C   UNL     1       6.805   4.433  16.359  0.00  0.00    +0.000 A 
ATOM     16  N   UNL     1       5.765   3.778  15.831  0.00  0.00    +0.000 NA
ENDBRANCH  10  11
ENDBRANCH   2  10
TORSDOF 2
ENDMDL
MODEL 5
REMARK VINA RESULT:      -6.2      1.776      2.120
REMARK  Name = 
REMARK  2 active torsions:
REMARK  status: ('A' for Active; 'I' for Inactive)
REMARK    1  A    between atoms: C_2  and  C_3
REMARK    2  A    between atoms: C_3  and  N_4
REMARK                            x       y       z     vdW  Elec       q    Type
REMARK                         _______ _______ _______ _____ _____    ______ ____
ROOT
ATOM      1  O   UNL     1       3.035   6.643  19.548  0.00  0.00    +0.000 OA
ATOM      2  C   UNL     1       3.636   5.563  19.563  0.00  0.00    +0.000 C 
ATOM      3  N   UNL     1       3.002   4.376  19.936  0.00  0.00    +0.000 N 
ATOM      4  C   UNL     1       3.672   3.077  20.032  0.00  0.00    +0.000 C 
ATOM      5  C   UNL     1       3.478   2.258  18.758  0.00  0.00    +0.000 C 
ATOM      6  C   UNL     1       2.086   1.643  18.617  0.00  0.00    +0.000 C 
ATOM      7  C   UNL     1       0.923   2.633  18.714  0.00  0.00    +0.000 C 
ATOM      8  C   UNL     1       0.757   3.216  20.115  0.00  0.00    +0.000 C 
ATOM      9  C   UNL     1       1.611   4.458  20.373  0.00  0.00    +0.000 C 
ENDROOT
BRANCH   2  10
ATOM     10  C   UNL     1       5.099   5.531  19.173  0.00  0.00    +0.000 C 
BRANCH  10  11
ATOM     11  N   UNL     1       5.244   5.578  17.732  0.00  0.00    +0.000 N 
ATOM     12  C   UNL     1       5.736   4.588  16.924  0.00  0.00    +0.000 A 
ATOM     13  C   UNL     1       5.668   5.089  15.651  0.00  0.00    +0.000 A 
ATOM     14  I   UNL     1       6.210   4.134  13.970  0.00  0.00    +0.000 I 
ATOM     15  C   UNL     1       5.148   6.382  15.777  0.00  0.00    +0.000 A 
ATOM     16  N   UNL     1       4.903   6.699  17.054  0.00  0.00    +0.000 NA
ENDBRANCH  10  11
ENDBRANCH   2  10
TORSDOF 2
ENDMDL
MODEL 6
REMARK VINA RESULT:      -6.2      2.889      3.804
REMARK  Name = 
REMARK  2 active torsions:
REMARK  status: ('A' for Active; 'I' for Inactive)
REMARK    1  A    between atoms: C_2  and  C_3
REMARK    2  A    between atoms: C_3  and  N_4
REMARK                            x       y       z     vdW  Elec       q    Type
REMARK                         _______ _______ _______ _____ _____    ______ ____
ROOT
ATOM      1  O   UNL     1       3.761   1.814  17.883  0.00  0.00    +0.000 OA
ATOM      2  C   UNL     1       3.466   2.995  17.665  0.00  0.00    +0.000 C 
ATOM      3  N   UNL     1       2.413   3.622  18.332  0.00  0.00    +0.000 N 
ATOM      4  C   UNL     1       1.976   4.997  18.076  0.00  0.00    +0.000 C 
ATOM      5  C   UNL     1       2.600   5.971  19.073  0.00  0.00    +0.000 C 
ATOM      6  C   UNL     1       1.974   5.925  20.466  0.00  0.00    +0.000 C 
ATOM      7  C   UNL     1       1.947   4.542  21.124  0.00  0.00    +0.000 C 
ATOM      8  C   UNL     1       0.992   3.574  20.429  0.00  0.00    +0.000 C 
ATOM      9  C   UNL     1       1.621   2.818  19.259  0.00  0.00    +0.000 C 
ENDROOT
BRANCH   2  10
ATOM     10  C   UNL     1       4.265   3.774  16.642  0.00  0.00    +0.000 C 
BRANCH  10  11
ATOM     11  N   UNL     1       5.235   4.631  17.296  0.00  0.00    +0.000 N 
ATOM     12  C   UNL     1       5.758   5.798  16.808  0.00  0.00    +0.000 A 
ATOM     13  C   UNL     1       6.615   6.246  17.779  0.00  0.00    +0.000 A 
ATOM     14  I   UNL     1       7.701   7.935  17.715  0.00  0.00    +0.000 I 
ATOM     15  C   UNL     1       6.567   5.293  18.801  0.00  0.00    +0.000 A 
ATOM     16  N   UNL     1       5.736   4.286  18.505  0.00  0.00    +0.000 NA
ENDBRANCH  10  11
ENDBRANCH   2  10
TORSDOF 2
ENDMDL
MODEL 7
REMARK VINA RESULT:      -6.0      1.370      1.455
REMARK  Name = 
REMARK  2 active torsions:
REMARK  status: ('A' for Active; 'I' for Inactive)
REMARK    1  A    between atoms: C_2  and  C_3
REMARK    2  A    between atoms: C_3  and  N_4
REMARK                            x       y       z     vdW  Elec       q    Type
REMARK                         _______ _______ _______ _____ _____    ______ ____
ROOT
ATOM      1  O   UNL     1       4.181   6.390  18.918  0.00  0.00    +0.000 OA
ATOM      2  C   UNL     1       4.467   5.223  19.209  0.00  0.00    +0.000 C 
ATOM      3  N   UNL     1       3.502   4.324  19.667  0.00  0.00    +0.000 N 
ATOM      4  C   UNL     1       3.787   2.949  20.085  0.00  0.00    +0.000 C 
ATOM      5  C   UNL     1       3.527   1.961  18.951  0.00  0.00    +0.000 C 
ATOM      6  C   UNL     1       2.047   1.682  18.692  0.00  0.00    +0.000 C 
ATOM      7  C   UNL     1       1.186   2.921  18.434  0.00  0.00    +0.000 C 
ATOM      8  C   UNL     1       1.024   3.798  19.673  0.00  0.00    +0.000 C 
ATOM      9  C   UNL     1       2.143   4.824  19.855  0.00  0.00    +0.000 C 
ENDROOT
BRANCH   2  10
ATOM     10  C   UNL     1       5.903   4.763  19.071  0.00  0.00    +0.000 C 
BRANCH  10  11
ATOM     11  N   UNL     1       6.272   4.654  17.673  0.00  0.00    +0.000 N 
ATOM     12  C   UNL     1       5.466   4.255  16.641  0.00  0.00    +0.000 A 
ATOM     13  C   UNL     1       6.251   4.322  15.520  0.00  0.00    +0.000 A 
ATOM     14  I   UNL     1       5.677   3.894  13.644  0.00  0.00    +0.000 I 
ATOM     15  C   UNL     1       7.509   4.748  15.959  0.00  0.00    +0.000 A 
ATOM     16  N   UNL     1       7.537   4.935  17.284  0.00  0.00    +0.000 NA
ENDBRANCH  10  11
ENDBRANCH   2  10
TORSDOF 2
ENDMDL
MODEL 8
REMARK VINA RESULT:      -6.0      4.013      5.156
REMARK  Name = 
REMARK  2 active torsions:
REMARK  status: ('A' for Active; 'I' for Inactive)
REMARK    1  A    between atoms: C_2  and  C_3
REMARK    2  A    between atoms: C_3  and  N_4
REMARK                            x       y       z     vdW  Elec       q    Type
REMARK                         _______ _______ _______ _____ _____    ______ ____
ROOT
ATOM      1  O   UNL     1       5.247   5.556  19.350  0.00  0.00    +0.000 OA
ATOM      2  C   UNL     1       4.376   5.325  18.504  0.00  0.00    +0.000 C 
ATOM      3  N   UNL     1       3.758   4.077  18.409  0.00  0.00    +0.000 N 
ATOM      4  C   UNL     1       2.765   3.722  17.391  0.00  0.00    +0.000 C 
ATOM      5  C   UNL     1       1.344   3.889  17.924  0.00  0.00    +0.000 C 
ATOM      6  C   UNL     1       0.903   2.785  18.884  0.00  0.00    +0.000 C 
ATOM      7  C   UNL     1       1.825   2.558  20.085  0.00  0.00    +0.000 C 
ATOM      8  C   UNL     1       3.178   1.971  19.692  0.00  0.00    +0.000 C 
ATOM      9  C   UNL     1       4.220   3.021  19.307  0.00  0.00    +0.000 C 
ENDROOT
BRANCH   2  10
ATOM     10  C   UNL     1       3.977   6.425  17.541  0.00  0.00    +0.000 C 
BRANCH  10  11
ATOM     11  N   UNL     1       3.048   7.342  18.171  0.00  0.00    +0.000 N 
ATOM     12  C   UNL     1       2.539   7.251  19.439  0.00  0.00    +0.000 A 
ATOM     13  C   UNL     1       1.722   8.341  19.582  0.00  0.00    +0.000 A 
ATOM     14  I   UNL     1       0.676   8.833  21.224  0.00  0.00    +0.000 I 
ATOM     15  C   UNL     1       1.776   9.022  18.361  0.00  0.00    +0.000 A 
ATOM     16  N   UNL     1       2.573   8.405  17.481  0.00  0.00    +0.000 NA
ENDBRANCH  10  11
ENDBRANCH   2  10
TORSDOF 2
ENDMDL
MODEL 9
REMARK VINA RESULT:      -5.8      1.453      2.391
REMARK  Name = 
REMARK  2 active torsions:
REMARK  status: ('A' for Active; 'I' for Inactive)
REMARK    1  A    between atoms: C_2  and  C_3
REMARK    2  A    between atoms: C_3  and  N_4
REMARK                            x       y       z     vdW  Elec       q    Type
REMARK                         _______ _______ _______ _____ _____    ______ ____
ROOT
ATOM      1  O   UNL     1       4.458   3.113  17.395  0.00  0.00    +0.000 OA
ATOM      2  C   UNL     1       4.095   4.287  17.523  0.00  0.00    +0.000 C 
ATOM      3  N   UNL     1       2.849   4.616  18.058  0.00  0.00    +0.000 N 
ATOM      4  C   UNL     1       2.336   5.983  18.179  0.00  0.00    +0.000 C 
ATOM      5  C   UNL     1       2.587   6.545  19.576  0.00  0.00    +0.000 C 
ATOM      6  C   UNL     1       1.651   5.992  20.650  0.00  0.00    +0.000 C 
ATOM      7  C   UNL     1       1.620   4.466  20.764  0.00  0.00    +0.000 C 
ATOM      8  C   UNL     1       0.976   3.794  19.553  0.00  0.00    +0.000 C 
ATOM      9  C   UNL     1       1.950   3.518  18.408  0.00  0.00    +0.000 C 
ENDROOT
BRANCH   2  10
ATOM     10  C   UNL     1       5.027   5.396  17.079  0.00  0.00    +0.000 C 
BRANCH  10  11
ATOM     11  N   UNL     1       5.722   5.023  15.863  0.00  0.00    +0.000 N 
ATOM     12  C   UNL     1       5.200   4.337  14.799  0.00  0.00    +0.000 A 
ATOM     13  C   UNL     1       6.226   4.234  13.896  0.00  0.00    +0.000 A 
ATOM     14  I   UNL     1       6.132   3.359  12.090  0.00  0.00    +0.000 I 
ATOM     15  C   UNL     1       7.325   4.858  14.492  0.00  0.00    +0.000 A 
ATOM     16  N   UNL     1       7.031   5.329  15.710  0.00  0.00    +0.000 NA
ENDBRANCH  10  11
ENDBRANCH   2  10
TORSDOF 2
ENDMDL
