MODEL 1
REMARK VINA RESULT:      -8.7      0.000      0.000
REMARK  Name = 
REMARK  4 active torsions:
REMARK  status: ('A' for Active; 'I' for Inactive)
REMARK    1  A    between atoms: C_2  and  C_21
REMARK    2  A    between atoms: N_3  and  C_4
REMARK    3  A    between atoms: C_4  and  C_13
REMARK    4  A    between atoms: C_5  and  C_6
REMARK                            x       y       z     vdW  Elec       q    Type
REMARK                         _______ _______ _______ _____ _____    ______ ____
ROOT
ATOM      1  C   UNL     1       4.005   5.719  17.483  0.00  0.00    +0.000 C 
ATOM      2  C   UNL     1       3.267   6.852  17.440  0.00  0.00    +0.000 C 
ENDROOT
BRANCH   1   3
ATOM      3  C   UNL     1       4.207   4.967  18.800  0.00  0.00    +0.000 C 
ATOM      4  O   UNL     1       5.165   5.254  19.522  0.00  0.00    +0.000 OA
ATOM      5  N   UNL     1       3.328   3.945  19.170  0.00  0.00    +0.000 N 
ATOM      6  C   UNL     1       2.119   3.480  18.478  0.00  0.00    +0.000 C 
ATOM      7  C   UNL     1       0.991   3.072  19.437  0.00  0.00    +0.000 C 
ATOM      8  O   UNL     1       1.449   2.202  20.475  0.00  0.00    +0.000 OA
ATOM      9  C   UNL     1       2.497   2.835  21.223  0.00  0.00    +0.000 C 
ATOM     10  C   UNL     1       3.701   3.103  20.318  0.00  0.00    +0.000 C 
ENDBRANCH   1   3
BRANCH   2  11
ATOM     11  C   UNL     1       2.552   7.580  18.492  0.00  0.00    +0.000 A 
ATOM     12  C   UNL     1       1.970   8.819  18.193  0.00  0.00    +0.000 A 
ATOM     13  C   UNL     1       1.223   9.501  19.156  0.00  0.00    +0.000 A 
ATOM     14  C   UNL     1       1.049   8.937  20.418  0.00  0.00    +0.000 A 
ATOM     15 BR   UNL     1       0.089   9.886  21.743  0.00  0.00    +0.000 Br
ATOM     16  C   UNL     1       1.585   7.684  20.713  0.00  0.00    +0.000 A 
ATOM     17  C   UNL     1       2.335   7.003  19.747  0.00  0.00    +0.000 A 
ENDBRANCH   2  11
BRANCH   1  20
ATOM     18  O   UNL     1       6.653   6.463  16.538  0.00  0.00    +0.000 OA
ATOM     19  C   UNL     1       5.948   5.658  15.937  0.00  0.00    +0.000 C 
ATOM     20  N   UNL     1       4.688   5.269  16.356  0.00  0.00    +0.000 N 
ATOM     21  H   UNL     1       4.185   4.649  15.732  0.00  0.00    +0.000 HD
BRANCH  19  22
ATOM     22  C   UNL     1       6.389   5.095  14.680  0.00  0.00    +0.000 A 
ATOM     23  C   UNL     1       5.821   4.079  13.934  0.00  0.00    +0.000 A 
ATOM     24  C   UNL     1       6.670   3.862  12.831  0.00  0.00    +0.000 A 
ATOM     25  C   UNL     1       7.703   4.761  12.959  0.00  0.00    +0.000 A 
ATOM     26  O   UNL     1       7.543   5.524  14.078  0.00  0.00    +0.000 OA
ENDBRANCH  19  22
ENDBRANCH   1  20
TORSDOF 4
ENDMDL
MODEL 2
REMARK VINA RESULT:      -8.5      0.331      1.023
REMARK  Name = 
REMARK  4 active torsions:
REMARK  status: ('A' for Active; 'I' for Inactive)
REMARK    1  A    between atoms: C_2  and  C_21
REMARK    2  A    between atoms: N_3  and  C_4
REMARK    3  A    between atoms: C_4  and  C_13
REMARK    4  A    between atoms: C_5  and  C_6
REMARK                            x       y       z     vdW  Elec       q    Type
REMARK                         _______ _______ _______ _____ _____    ______ ____
ROOT
ATOM      1  C   UNL     1       3.808   5.828  17.676  0.00  0.00    +0.000 C 
ATOM      2  C   UNL     1       3.042   6.939  17.583  0.00  0.00    +0.000 C 
ENDROOT
BRANCH   1   3
ATOM      3  C   UNL     1       4.002   5.122  19.019  0.00  0.00    +0.000 C 
ATOM      4  O   UNL     1       4.960   5.428  19.733  0.00  0.00    +0.000 OA
ATOM      5  N   UNL     1       3.115   4.120  19.424  0.00  0.00    +0.000 N 
ATOM      6  C   UNL     1       1.904   3.640  18.747  0.00  0.00    +0.000 C 
ATOM      7  C   UNL     1       0.771   3.273  19.717  0.00  0.00    +0.000 C 
ATOM      8  O   UNL     1       1.221   2.439  20.787  0.00  0.00    +0.000 OA
ATOM      9  C   UNL     1       2.272   3.091  21.514  0.00  0.00    +0.000 C 
ATOM     10  C   UNL     1       3.479   3.317  20.603  0.00  0.00    +0.000 C 
ENDBRANCH   1   3
BRANCH   2  11
ATOM     11  C   UNL     1       2.286   7.679  18.597  0.00  0.00    +0.000 A 
ATOM     12  C   UNL     1       2.181   7.155  19.892  0.00  0.00    +0.000 A 
ATOM     13  C   UNL     1       1.528   7.872  20.897  0.00  0.00    +0.000 A 
ATOM     14  C   UNL     1       0.988   9.123  20.606  0.00  0.00    +0.000 A 
ATOM     15 BR   UNL     1       0.050  10.071  21.948  0.00  0.00    +0.000 Br
ATOM     16  C   UNL     1       1.125   9.676  19.333  0.00  0.00    +0.000 A 
ATOM     17  C   UNL     1       1.779   8.954  18.328  0.00  0.00    +0.000 A 
ENDBRANCH   2  11
BRANCH   1  20
ATOM     18  O   UNL     1       6.416   6.677  16.710  0.00  0.00    +0.000 OA
ATOM     19  C   UNL     1       5.765   5.802  16.146  0.00  0.00    +0.000 C 
ATOM     20  N   UNL     1       4.526   5.361  16.577  0.00  0.00    +0.000 N 
ATOM     21  H   UNL     1       4.066   4.682  15.983  0.00  0.00    +0.000 HD
BRANCH  19  22
ATOM     22  C   UNL     1       6.249   5.202  14.923  0.00  0.00    +0.000 A 
ATOM     23  C   UNL     1       5.690   4.186  14.171  0.00  0.00    +0.000 A 
ATOM     24  C   UNL     1       6.584   3.925  13.113  0.00  0.00    +0.000 A 
ATOM     25  C   UNL     1       7.633   4.801  13.271  0.00  0.00    +0.000 A 
ATOM     26  O   UNL     1       7.439   5.591  14.367  0.00  0.00    +0.000 OA
ENDBRANCH  19  22
ENDBRANCH   1  20
TORSDOF 4
ENDMDL
MODEL 3
REMARK VINA RESULT:      -7.9      0.883      1.316
REMARK  Name = 
REMARK  4 active torsions:
REMARK  status: ('A' for Active; 'I' for Inactive)
REMARK    1  A    between atoms: C_2  and  C_21
REMARK    2  A    between atoms: N_3  and  C_4
REMARK    3  A    between atoms: C_4  and  C_13
REMARK    4  A    between atoms: C_5  and  C_6
REMARK                            x       y       z     vdW  Elec       q    Type
REMARK                         _______ _______ _______ _____ _____    ______ ____
ROOT
ATOM      1  C   UNL     1       4.261   6.049  17.120  0.00  0.00    +0.000 C 
ATOM      2  C   UNL     1       3.412   7.100  17.188  0.00  0.00    +0.000 C 
ENDROOT
BRANCH   1   3
ATOM      3  C   UNL     1       4.499   5.156  18.338  0.00  0.00    +0.000 C 
ATOM      4  O   UNL     1       5.453   5.388  19.084  0.00  0.00    +0.000 OA
ATOM      5  N   UNL     1       3.657   4.068  18.590  0.00  0.00    +0.000 N 
ATOM      6  C   UNL     1       2.457   3.648  17.854  0.00  0.00    +0.000 C 
ATOM      7  C   UNL     1       1.352   3.092  18.764  0.00  0.00    +0.000 C 
ATOM      8  O   UNL     1       1.847   2.123  19.691  0.00  0.00    +0.000 OA
ATOM      9  C   UNL     1       2.881   2.699  20.503  0.00  0.00    +0.000 C 
ATOM     10  C   UNL     1       4.067   3.111  19.630  0.00  0.00    +0.000 C 
ENDBRANCH   1   3
BRANCH   2  11
ATOM     11  C   UNL     1       2.594   7.611  18.292  0.00  0.00    +0.000 A 
ATOM     12  C   UNL     1       2.548   6.899  19.497  0.00  0.00    +0.000 A 
ATOM     13  C   UNL     1       1.834   7.399  20.589  0.00  0.00    +0.000 A 
ATOM     14  C   UNL     1       1.173   8.620  20.476  0.00  0.00    +0.000 A 
ATOM     15 BR   UNL     1       0.156   9.271  21.932  0.00  0.00    +0.000 Br
ATOM     16  C   UNL     1       1.249   9.360  19.296  0.00  0.00    +0.000 A 
ATOM     17  C   UNL     1       1.964   8.857  18.204  0.00  0.00    +0.000 A 
ENDBRANCH   2  11
BRANCH   1  20
ATOM     18  O   UNL     1       5.395   3.550  16.156  0.00  0.00    +0.000 OA
ATOM     19  C   UNL     1       5.551   4.610  15.558  0.00  0.00    +0.000 C 
ATOM     20  N   UNL     1       5.022   5.819  15.975  0.00  0.00    +0.000 N 
ATOM     21  H   UNL     1       5.282   6.631  15.427  0.00  0.00    +0.000 HD
BRANCH  19  22
ATOM     22  C   UNL     1       6.376   4.668  14.372  0.00  0.00    +0.000 A 
ATOM     23  C   UNL     1       6.255   3.960  13.192  0.00  0.00    +0.000 A 
ATOM     24  C   UNL     1       7.345   4.332  12.380  0.00  0.00    +0.000 A 
ATOM     25  C   UNL     1       8.066   5.252  13.106  0.00  0.00    +0.000 A 
ATOM     26  O   UNL     1       7.484   5.472  14.320  0.00  0.00    +0.000 OA
ENDBRANCH  19  22
ENDBRANCH   1  20
TORSDOF 4
ENDMDL
MODEL 4
REMARK VINA RESULT:      -7.3      2.630      5.996
REMARK  Name = 
REMARK  4 active torsions:
REMARK  status: ('A' for Active; 'I' for Inactive)
REMARK    1  A    between atoms: C_2  and  C_21
REMARK    2  A    between atoms: N_3  and  C_4
REMARK    3  A    between atoms: C_4  and  C_13
REMARK    4  A    between atoms: C_5  and  C_6
REMARK                            x       y       z     vdW  Elec       q    Type
REMARK                         _______ _______ _______ _____ _____    ______ ____
ROOT
ATOM      1  C   UNL     1       4.589   3.616  19.003  0.00  0.00    +0.000 C 
ATOM      2  C   UNL     1       4.049   4.604  19.754  0.00  0.00    +0.000 C 
ENDROOT
BRANCH   1   3
ATOM      3  C   UNL     1       4.495   3.655  17.477  0.00  0.00    +0.000 C 
ATOM      4  O   UNL     1       3.464   3.269  16.922  0.00  0.00    +0.000 OA
ATOM      5  N   UNL     1       5.579   4.101  16.716  0.00  0.00    +0.000 N 
ATOM      6  C   UNL     1       6.868   4.633  17.178  0.00  0.00    +0.000 C 
ATOM      7  C   UNL     1       7.408   5.767  16.294  0.00  0.00    +0.000 C 
ATOM      8  O   UNL     1       7.369   5.438  14.903  0.00  0.00    +0.000 OA
ATOM      9  C   UNL     1       6.025   5.130  14.506  0.00  0.00    +0.000 C 
ATOM     10  C   UNL     1       5.524   3.896  15.259  0.00  0.00    +0.000 C 
ENDBRANCH   1   3
BRANCH   2  11
ATOM     11  C   UNL     1       3.323   5.819  19.376  0.00  0.00    +0.000 A 
ATOM     12  C   UNL     1       2.381   6.359  20.262  0.00  0.00    +0.000 A 
ATOM     13  C   UNL     1       1.727   7.554  19.958  0.00  0.00    +0.000 A 
ATOM     14  C   UNL     1       2.024   8.217  18.769  0.00  0.00    +0.000 A 
ATOM     15 BR   UNL     1       1.096   9.805  18.327  0.00  0.00    +0.000 Br
ATOM     16  C   UNL     1       2.992   7.714  17.901  0.00  0.00    +0.000 A 
ATOM     17  C   UNL     1       3.646   6.516  18.207  0.00  0.00    +0.000 A 
ENDBRANCH   2  11
BRANCH   1  20
ATOM     18  O   UNL     1       3.694   2.174  21.365  0.00  0.00    +0.000 OA
ATOM     19  C   UNL     1       4.692   1.837  20.734  0.00  0.00    +0.000 C 
ATOM     20  N   UNL     1       5.146   2.488  19.601  0.00  0.00    +0.000 N 
ATOM     21  H   UNL     1       6.020   2.148  19.214  0.00  0.00    +0.000 HD
BRANCH  19  22
ATOM     22  C   UNL     1       5.509   0.735  21.190  0.00  0.00    +0.000 A 
ATOM     23  C   UNL     1       5.717  -0.498  20.601  0.00  0.00    +0.000 A 
ATOM     24  C   UNL     1       6.542  -1.233  21.476  0.00  0.00    +0.000 A 
ATOM     25  C   UNL     1       6.799  -0.406  22.545  0.00  0.00    +0.000 A 
ATOM     26  O   UNL     1       6.182   0.799  22.382  0.00  0.00    +0.000 OA
ENDBRANCH  19  22
ENDBRANCH   1  20
TORSDOF 4
ENDMDL
MODEL 5
REMARK VINA RESULT:      -7.2      2.019      3.592
REMARK  Name = 
REMARK  4 active torsions:
REMARK  status: ('A' for Active; 'I' for Inactive)
REMARK    1  A    between atoms: C_2  and  C_21
REMARK    2  A    between atoms: N_3  and  C_4
REMARK    3  A    between atoms: C_4  and  C_13
REMARK    4  A    between atoms: C_5  and  C_6
REMARK                            x       y       z     vdW  Elec       q    Type
REMARK                         _______ _______ _______ _____ _____    ______ ____
ROOT
ATOM      1  C   UNL     1       4.462   4.722  16.910  0.00  0.00    +0.000 C 
ATOM      2  C   UNL     1       3.299   5.390  17.086  0.00  0.00    +0.000 C 
ENDROOT
BRANCH   1   3
ATOM      3  C   UNL     1       5.505   4.660  18.027  0.00  0.00    +0.000 C 
ATOM      4  O   UNL     1       5.621   3.630  18.694  0.00  0.00    +0.000 OA
ATOM      5  N   UNL     1       6.305   5.773  18.306  0.00  0.00    +0.000 N 
ATOM      6  C   UNL     1       6.351   7.066  17.613  0.00  0.00    +0.000 C 
ATOM      7  C   UNL     1       7.766   7.657  17.525  0.00  0.00    +0.000 C 
ATOM      8  O   UNL     1       8.443   7.637  18.784  0.00  0.00    +0.000 OA
ATOM      9  C   UNL     1       8.523   6.293  19.280  0.00  0.00    +0.000 C 
ATOM     10  C   UNL     1       7.119   5.741  19.532  0.00  0.00    +0.000 C 
ENDBRANCH   1   3
BRANCH   2  11
ATOM     11  C   UNL     1       2.779   6.139  18.233  0.00  0.00    +0.000 A 
ATOM     12  C   UNL     1       2.607   7.525  18.125  0.00  0.00    +0.000 A 
ATOM     13  C   UNL     1       2.047   8.253  19.177  0.00  0.00    +0.000 A 
ATOM     14  C   UNL     1       1.648   7.591  20.336  0.00  0.00    +0.000 A 
ATOM     15 BR   UNL     1       0.946   8.582  21.785  0.00  0.00    +0.000 Br
ATOM     16  C   UNL     1       1.772   6.205  20.437  0.00  0.00    +0.000 A 
ATOM     17  C   UNL     1       2.334   5.478  19.383  0.00  0.00    +0.000 A 
ENDBRANCH   2  11
BRANCH   1  20
ATOM     18  O   UNL     1       6.189   5.794  14.829  0.00  0.00    +0.000 OA
ATOM     19  C   UNL     1       5.609   4.719  14.706  0.00  0.00    +0.000 C 
ATOM     20  N   UNL     1       4.787   4.168  15.674  0.00  0.00    +0.000 N 
ATOM     21  H   UNL     1       4.316   3.307  15.418  0.00  0.00    +0.000 HD
BRANCH  19  22
ATOM     22  C   UNL     1       5.710   3.968  13.474  0.00  0.00    +0.000 A 
ATOM     23  C   UNL     1       4.709   3.366  12.736  0.00  0.00    +0.000 A 
ATOM     24  C   UNL     1       5.338   2.707  11.660  0.00  0.00    +0.000 A 
ATOM     25  C   UNL     1       6.685   2.949  11.797  0.00  0.00    +0.000 A 
ATOM     26  O   UNL     1       6.928   3.722  12.894  0.00  0.00    +0.000 OA
ENDBRANCH  19  22
ENDBRANCH   1  20
TORSDOF 4
ENDMDL
MODEL 6
REMARK VINA RESULT:      -7.1      1.696      2.230
REMARK  Name = 
REMARK  4 active torsions:
REMARK  status: ('A' for Active; 'I' for Inactive)
REMARK    1  A    between atoms: C_2  and  C_21
REMARK    2  A    between atoms: N_3  and  C_4
REMARK    3  A    between atoms: C_4  and  C_13
REMARK    4  A    between atoms: C_5  and  C_6
REMARK                            x       y       z     vdW  Elec       q    Type
REMARK                         _______ _______ _______ _____ _____    ______ ____
ROOT
ATOM      1  C   UNL     1       2.886   7.185  17.800  0.00  0.00    +0.000 C 
ATOM      2  C   UNL     1       2.467   8.398  17.370  0.00  0.00    +0.000 C 
ENDROOT
BRANCH   1   3
ATOM      3  C   UNL     1       2.491   6.668  19.185  0.00  0.00    +0.000 C 
ATOM      4  O   UNL     1       2.330   7.469  20.109  0.00  0.00    +0.000 OA
ATOM      5  N   UNL     1       2.340   5.297  19.408  0.00  0.00    +0.000 N 
ATOM      6  C   UNL     1       2.448   4.193  18.444  0.00  0.00    +0.000 C 
ATOM      7  C   UNL     1       1.444   3.061  18.705  0.00  0.00    +0.000 C 
ATOM      8  O   UNL     1       1.430   2.650  20.074  0.00  0.00    +0.000 OA
ATOM      9  C   UNL     1       1.113   3.765  20.920  0.00  0.00    +0.000 C 
ATOM     10  C   UNL     1       2.194   4.840  20.800  0.00  0.00    +0.000 C 
ENDBRANCH   1   3
BRANCH   2  11
ATOM     11  C   UNL     1       1.636   9.418  18.014  0.00  0.00    +0.000 A 
ATOM     12  C   UNL     1       2.231  10.607  18.458  0.00  0.00    +0.000 A 
ATOM     13  C   UNL     1       1.452  11.625  19.011  0.00  0.00    +0.000 A 
ATOM     14  C   UNL     1       0.073  11.458  19.110  0.00  0.00    +0.000 A 
ATOM     15 BR   UNL     1      -0.978  12.810  19.913  0.00  0.00    +0.000 Br
ATOM     16  C   UNL     1      -0.537  10.299  18.630  0.00  0.00    +0.000 A 
ATOM     17  C   UNL     1       0.246   9.279  18.078  0.00  0.00    +0.000 A 
ENDBRANCH   2  11
BRANCH   1  20
ATOM     18  O   UNL     1       5.773   7.447  17.566  0.00  0.00    +0.000 OA
ATOM     19  C   UNL     1       5.144   6.591  16.952  0.00  0.00    +0.000 C 
ATOM     20  N   UNL     1       3.773   6.425  17.041  0.00  0.00    +0.000 N 
ATOM     21  H   UNL     1       3.370   5.725  16.430  0.00  0.00    +0.000 HD
BRANCH  19  22
ATOM     22  C   UNL     1       5.818   5.713  16.022  0.00  0.00    +0.000 A 
ATOM     23  C   UNL     1       5.325   4.611  15.350  0.00  0.00    +0.000 A 
ATOM     24  C   UNL     1       6.399   4.065  14.620  0.00  0.00    +0.000 A 
ATOM     25  C   UNL     1       7.486   4.867  14.879  0.00  0.00    +0.000 A 
ATOM     26  O   UNL     1       7.146   5.881  15.727  0.00  0.00    +0.000 OA
ENDBRANCH  19  22
ENDBRANCH   1  20
TORSDOF 4
ENDMDL
MODEL 7
REMARK VINA RESULT:      -7.0      3.483      7.005
REMARK  Name = 
REMARK  4 active torsions:
REMARK  status: ('A' for Active; 'I' for Inactive)
REMARK    1  A    between atoms: C_2  and  C_21
REMARK    2  A    between atoms: N_3  and  C_4
REMARK    3  A    between atoms: C_4  and  C_13
REMARK    4  A    between atoms: C_5  and  C_6
REMARK                            x       y       z     vdW  Elec       q    Type
REMARK                         _______ _______ _______ _____ _____    ______ ____
ROOT
ATOM      1  C   UNL     1       2.542   6.792  19.157  0.00  0.00    +0.000 C 
ATOM      2  C   UNL     1       3.685   7.209  18.566  0.00  0.00    +0.000 C 
ENDROOT
BRANCH   1   3
ATOM      3  C   UNL     1       1.906   5.455  18.772  0.00  0.00    +0.000 C 
ATOM      4  O   UNL     1       1.546   5.265  17.608  0.00  0.00    +0.000 OA
ATOM      5  N   UNL     1       1.710   4.464  19.739  0.00  0.00    +0.000 N 
ATOM      6  C   UNL     1       2.097   4.476  21.156  0.00  0.00    +0.000 C 
ATOM      7  C   UNL     1       2.560   3.105  21.669  0.00  0.00    +0.000 C 
ATOM      8  O   UNL     1       1.656   2.056  21.313  0.00  0.00    +0.000 OA
ATOM      9  C   UNL     1       1.504   1.999  19.887  0.00  0.00    +0.000 C 
ATOM     10  C   UNL     1       0.887   3.300  19.371  0.00  0.00    +0.000 C 
ENDBRANCH   1   3
BRANCH   2  11
ATOM     11  C   UNL     1       4.523   6.588  17.536  0.00  0.00    +0.000 A 
ATOM     12  C   UNL     1       5.225   5.414  17.840  0.00  0.00    +0.000 A 
ATOM     13  C   UNL     1       5.974   4.762  16.858  0.00  0.00    +0.000 A 
ATOM     14  C   UNL     1       6.012   5.282  15.566  0.00  0.00    +0.000 A 
ATOM     15 BR   UNL     1       7.074   4.436  14.249  0.00  0.00    +0.000 Br
ATOM     16  C   UNL     1       5.281   6.424  15.240  0.00  0.00    +0.000 A 
ATOM     17  C   UNL     1       4.532   7.076  16.226  0.00  0.00    +0.000 A 
ENDBRANCH   2  11
BRANCH   1  20
ATOM     18  O   UNL     1       1.170   9.303  18.631  0.00  0.00    +0.000 OA
ATOM     19  C   UNL     1       1.224   8.811  19.755  0.00  0.00    +0.000 C 
ATOM     20  N   UNL     1       1.856   7.616  20.047  0.00  0.00    +0.000 N 
ATOM     21  H   UNL     1       1.885   7.357  21.027  0.00  0.00    +0.000 HD
BRANCH  19  22
ATOM     22  C   UNL     1       0.657   9.509  20.887  0.00  0.00    +0.000 A 
ATOM     23  C   UNL     1       0.309   9.015  22.130  0.00  0.00    +0.000 A 
ATOM     24  C   UNL     1      -0.261  10.085  22.848  0.00  0.00    +0.000 A 
ATOM     25  C   UNL     1      -0.222  11.174  22.009  0.00  0.00    +0.000 A 
ATOM     26  O   UNL     1       0.341  10.841  20.812  0.00  0.00    +0.000 OA
ENDBRANCH  19  22
ENDBRANCH   1  20
TORSDOF 4
ENDMDL
MODEL 8
REMARK VINA RESULT:      -6.9      3.533      6.998
REMARK  Name = 
REMARK  4 active torsions:
REMARK  status: ('A' for Active; 'I' for Inactive)
REMARK    1  A    between atoms: C_2  and  C_21
REMARK    2  A    between atoms: N_3  and  C_4
REMARK    3  A    between atoms: C_4  and  C_13
REMARK    4  A    between atoms: C_5  and  C_6
REMARK                            x       y       z     vdW  Elec       q    Type
REMARK                         _______ _______ _______ _____ _____    ______ ____
ROOT
ATOM      1  C   UNL     1       2.810   6.292  19.191  0.00  0.00    +0.000 C 
ATOM      2  C   UNL     1       3.959   6.811  18.700  0.00  0.00    +0.000 C 
ENDROOT
BRANCH   1   3
ATOM      3  C   UNL     1       2.194   5.035  18.575  0.00  0.00    +0.000 C 
ATOM      4  O   UNL     1       1.297   5.146  17.736  0.00  0.00    +0.000 OA
ATOM      5  N   UNL     1       2.627   3.768  18.979  0.00  0.00    +0.000 N 
ATOM      6  C   UNL     1       3.696   3.422  19.924  0.00  0.00    +0.000 C 
ATOM      7  C   UNL     1       4.484   2.169  19.516  0.00  0.00    +0.000 C 
ATOM      8  O   UNL     1       3.629   1.078  19.167  0.00  0.00    +0.000 OA
ATOM      9  C   UNL     1       2.758   1.458  18.091  0.00  0.00    +0.000 C 
ATOM     10  C   UNL     1       1.845   2.603  18.534  0.00  0.00    +0.000 C 
ENDBRANCH   1   3
BRANCH   2  11
ATOM     11  C   UNL     1       4.819   6.380  17.594  0.00  0.00    +0.000 A 
ATOM     12  C   UNL     1       5.819   5.429  17.836  0.00  0.00    +0.000 A 
ATOM     13  C   UNL     1       6.606   4.948  16.787  0.00  0.00    +0.000 A 
ATOM     14  C   UNL     1       6.385   5.412  15.493  0.00  0.00    +0.000 A 
ATOM     15 BR   UNL     1       7.489   4.808  14.081  0.00  0.00    +0.000 Br
ATOM     16  C   UNL     1       5.363   6.325  15.233  0.00  0.00    +0.000 A 
ATOM     17  C   UNL     1       4.576   6.807  16.285  0.00  0.00    +0.000 A 
ENDBRANCH   2  11
BRANCH   1  20
ATOM     18  O   UNL     1       1.486   8.880  19.097  0.00  0.00    +0.000 OA
ATOM     19  C   UNL     1       1.494   8.188  20.111  0.00  0.00    +0.000 C 
ATOM     20  N   UNL     1       2.102   6.948  20.196  0.00  0.00    +0.000 N 
ATOM     21  H   UNL     1       2.093   6.511  21.111  0.00  0.00    +0.000 HD
BRANCH  19  22
ATOM     22  C   UNL     1       0.895   8.673  21.334  0.00  0.00    +0.000 A 
ATOM     23  C   UNL     1      -0.442   8.778  21.668  0.00  0.00    +0.000 A 
ATOM     24  C   UNL     1      -0.497   9.372  22.945  0.00  0.00    +0.000 A 
ATOM     25  C   UNL     1       0.807   9.588  23.323  0.00  0.00    +0.000 A 
ATOM     26  O   UNL     1       1.668   9.161  22.355  0.00  0.00    +0.000 OA
ENDBRANCH  19  22
ENDBRANCH   1  20
TORSDOF 4
ENDMDL
MODEL 9
REMARK VINA RESULT:      -6.9      1.225      1.618
REMARK  Name = 
REMARK  4 active torsions:
REMARK  status: ('A' for Active; 'I' for Inactive)
REMARK    1  A    between atoms: C_2  and  C_21
REMARK    2  A    between atoms: N_3  and  C_4
REMARK    3  A    between atoms: C_4  and  C_13
REMARK    4  A    between atoms: C_5  and  C_6
REMARK                            x       y       z     vdW  Elec       q    Type
REMARK                         _______ _______ _______ _____ _____    ______ ____
ROOT
ATOM      1  C   UNL     1       3.060   6.050  17.438  0.00  0.00    +0.000 C 
ATOM      2  C   UNL     1       3.054   7.340  17.845  0.00  0.00    +0.000 C 
ENDROOT
BRANCH   1   3
ATOM      3  C   UNL     1       2.137   5.020  18.090  0.00  0.00    +0.000 C 
ATOM      4  O   UNL     1       0.984   4.887  17.674  0.00  0.00    +0.000 OA
ATOM      5  N   UNL     1       2.589   4.252  19.167  0.00  0.00    +0.000 N 
ATOM      6  C   UNL     1       3.922   4.228  19.782  0.00  0.00    +0.000 C 
ATOM      7  C   UNL     1       4.355   2.828  20.240  0.00  0.00    +0.000 C 
ATOM      8  O   UNL     1       3.342   2.166  21.001  0.00  0.00    +0.000 OA
ATOM      9  C   UNL     1       2.136   2.059  20.230  0.00  0.00    +0.000 C 
ATOM     10  C   UNL     1       1.595   3.452  19.903  0.00  0.00    +0.000 C 
ENDBRANCH   1   3
BRANCH   2  11
ATOM     11  C   UNL     1       2.274   8.023  18.881  0.00  0.00    +0.000 A 
ATOM     12  C   UNL     1       1.572   9.190  18.551  0.00  0.00    +0.000 A 
ATOM     13  C   UNL     1       0.764   9.822  19.499  0.00  0.00    +0.000 A 
ATOM     14  C   UNL     1       0.649   9.278  20.776  0.00  0.00    +0.000 A 
ATOM     15 BR   UNL     1      -0.396  10.164  22.079  0.00  0.00    +0.000 Br
ATOM     16  C   UNL     1       1.306   8.091  21.102  0.00  0.00    +0.000 A 
ATOM     17  C   UNL     1       2.116   7.461  20.152  0.00  0.00    +0.000 A 
ENDBRANCH   2  11
BRANCH   1  20
ATOM     18  O   UNL     1       5.963   6.235  17.491  0.00  0.00    +0.000 OA
ATOM     19  C   UNL     1       5.359   5.722  16.554  0.00  0.00    +0.000 C 
ATOM     20  N   UNL     1       3.981   5.604  16.492  0.00  0.00    +0.000 N 
ATOM     21  H   UNL     1       3.606   5.220  15.632  0.00  0.00    +0.000 HD
BRANCH  19  22
ATOM     22  C   UNL     1       6.077   5.245  15.393  0.00  0.00    +0.000 A 
ATOM     23  C   UNL     1       5.670   4.347  14.425  0.00  0.00    +0.000 A 
ATOM     24  C   UNL     1       6.760   4.170  13.549  0.00  0.00    +0.000 A 
ATOM     25  C   UNL     1       7.769   4.975  14.026  0.00  0.00    +0.000 A 
ATOM     26  O   UNL     1       7.365   5.642  15.145  0.00  0.00    +0.000 OA
ENDBRANCH  19  22
ENDBRANCH   1  20
TORSDOF 4
ENDMDL
