MODEL 1
REMARK VINA RESULT:      -7.8      0.000      0.000
REMARK  Name = 
REMARK  10 active torsions:
REMARK  status: ('A' for Active; 'I' for Inactive)
REMARK    1  A    between atoms: C_1  and  C_2
REMARK    2  A    between atoms: C_2  and  C_3
REMARK    3  A    between atoms: C_2  and  C_4
REMARK    4  A    between atoms: C_2  and  N_5
REMARK    5  A    between atoms: C_9  and  C_11
REMARK    6  A    between atoms: C_11  and  O_12
REMARK    7  A    between atoms: O_12  and  C_13
REMARK    8  A    between atoms: C_13  and  C_15
REMARK    9  A    between atoms: N_19  and  C_20
REMARK   10  A    between atoms: C_20  and  C_21
REMARK                            x       y       z     vdW  Elec       q    Type
REMARK                         _______ _______ _______ _____ _____    ______ ____
ROOT
ATOM      1  C   UNL     1       2.215   4.976  20.022  0.00  0.00    +0.000 C 
ATOM      2  O   UNL     1       1.994   4.677  21.188  0.00  0.00    +0.000 OA
ENDROOT
BRANCH   1   3
ATOM      3  C   UNL     1       1.637   4.256  18.823  0.00  0.00    +0.000 C 
ATOM      4  C   UNL     1       1.715   2.747  19.029  0.00  0.00    +0.000 C 
ATOM      5  C   UNL     1       3.051   2.394  18.422  0.00  0.00    +0.000 C 
ATOM      6  O   UNL     1       3.661   1.360  18.634  0.00  0.00    +0.000 OA
ATOM      7  N   UNL     1       3.415   3.418  17.568  0.00  0.00    +0.000 N 
ATOM      8  C   UNL     1       2.468   4.508  17.575  0.00  0.00    +0.000 C 
BRANCH   7   9
ATOM      9  C   UNL     1       4.634   3.449  16.785  0.00  0.00    +0.000 C 
BRANCH   9  10
ATOM     10  C   UNL     1       5.657   4.450  17.270  0.00  0.00    +0.000 A 
ATOM     11  C   UNL     1       6.251   5.357  16.380  0.00  0.00    +0.000 A 
ATOM     12  C   UNL     1       7.111   6.355  16.849  0.00  0.00    +0.000 A 
ATOM     13  C   UNL     1       7.393   6.453  18.210  0.00  0.00    +0.000 A 
ATOM     14  C   UNL     1       6.826   5.547  19.102  0.00  0.00    +0.000 A 
ATOM     15  C   UNL     1       5.964   4.552  18.635  0.00  0.00    +0.000 A 
ENDBRANCH   9  10
ENDBRANCH   7   9
ENDBRANCH   1   3
BRANCH   1  16
ATOM     16  O   UNL     1       2.989   6.015  19.609  0.00  0.00    +0.000 OA
BRANCH  16  17
ATOM     17  C   UNL     1       2.320   7.273  19.471  0.00  0.00    +0.000 C 
BRANCH  17  22
ATOM     18  N   UNL     1       0.714  11.051  18.246  0.00  0.00    +0.000 N 
ATOM     19  C   UNL     1       1.144   9.837  18.710  0.00  0.00    +0.000 C 
ATOM     20  O   UNL     1       0.694   9.329  19.731  0.00  0.00    +0.000 OA
ATOM     21  N   UNL     1       2.098   9.236  17.934  0.00  0.00    +0.000 N 
ATOM     22  C   UNL     1       2.724   8.035  18.200  0.00  0.00    +0.000 C 
ATOM     23  O   UNL     1       3.572   7.614  17.412  0.00  0.00    +0.000 OA
ATOM     24  H   UNL     1       1.134  11.449  17.419  0.00  0.00    +0.000 HD
ATOM     25  H   UNL     1       2.406   9.689  17.089  0.00  0.00    +0.000 HD
BRANCH  18  27
ATOM     26  C   UNL     1       0.208  12.139  20.421  0.00  0.00    +0.000 C 
ATOM     27  C   UNL     1      -0.278  11.860  18.985  0.00  0.00    +0.000 C 
ATOM     28  C   UNL     1      -1.646  11.151  19.014  0.00  0.00    +0.000 C 
ATOM     29  C   UNL     1      -0.460  13.211  18.275  0.00  0.00    +0.000 C 
ENDBRANCH  18  27
ENDBRANCH  17  22
ENDBRANCH  16  17
ENDBRANCH   1  16
TORSDOF 7
ENDMDL
MODEL 2
REMARK VINA RESULT:      -7.8      4.305      6.994
REMARK  Name = 
REMARK  10 active torsions:
REMARK  status: ('A' for Active; 'I' for Inactive)
REMARK    1  A    between atoms: C_1  and  C_2
REMARK    2  A    between atoms: C_2  and  C_3
REMARK    3  A    between atoms: C_2  and  C_4
REMARK    4  A    between atoms: C_2  and  N_5
REMARK    5  A    between atoms: C_9  and  C_11
REMARK    6  A    between atoms: C_11  and  O_12
REMARK    7  A    between atoms: O_12  and  C_13
REMARK    8  A    between atoms: C_13  and  C_15
REMARK    9  A    between atoms: N_19  and  C_20
REMARK   10  A    between atoms: C_20  and  C_21
REMARK                            x       y       z     vdW  Elec       q    Type
REMARK                         _______ _______ _______ _____ _____    ______ ____
ROOT
ATOM      1  C   UNL     1       7.510   5.527  18.882  0.00  0.00    +0.000 C 
ATOM      2  O   UNL     1       7.424   5.567  20.102  0.00  0.00    +0.000 OA
ENDROOT
BRANCH   1   3
ATOM      3  C   UNL     1       6.855   4.482  18.005  0.00  0.00    +0.000 C 
ATOM      4  C   UNL     1       6.852   4.944  16.552  0.00  0.00    +0.000 C 
ATOM      5  C   UNL     1       5.535   5.670  16.433  0.00  0.00    +0.000 C 
ATOM      6  O   UNL     1       5.251   6.459  15.547  0.00  0.00    +0.000 OA
ATOM      7  N   UNL     1       4.718   5.243  17.463  0.00  0.00    +0.000 N 
ATOM      8  C   UNL     1       5.383   4.317  18.349  0.00  0.00    +0.000 C 
BRANCH   7   9
ATOM      9  C   UNL     1       3.361   5.701  17.689  0.00  0.00    +0.000 C 
BRANCH   9  10
ATOM     10  C   UNL     1       2.514   4.750  18.500  0.00  0.00    +0.000 A 
ATOM     11  C   UNL     1       2.206   5.027  19.841  0.00  0.00    +0.000 A 
ATOM     12  C   UNL     1       1.330   4.205  20.555  0.00  0.00    +0.000 A 
ATOM     13  C   UNL     1       0.758   3.091  19.943  0.00  0.00    +0.000 A 
ATOM     14  C   UNL     1       1.070   2.792  18.619  0.00  0.00    +0.000 A 
ATOM     15  C   UNL     1       1.942   3.616  17.903  0.00  0.00    +0.000 A 
ENDBRANCH   9  10
ENDBRANCH   7   9
ENDBRANCH   1   3
BRANCH   1  16
ATOM     16  O   UNL     1       8.180   6.425  18.111  0.00  0.00    +0.000 OA
BRANCH  16  17
ATOM     17  C   UNL     1       8.322   7.738  18.665  0.00  0.00    +0.000 C 
BRANCH  17  22
ATOM     18  N   UNL     1       9.516  11.850  18.786  0.00  0.00    +0.000 N 
ATOM     19  C   UNL     1       9.185  10.523  18.845  0.00  0.00    +0.000 C 
ATOM     20  O   UNL     1       9.673   9.762  19.672  0.00  0.00    +0.000 OA
ATOM     21  N   UNL     1       8.254  10.127  17.922  0.00  0.00    +0.000 N 
ATOM     22  C   UNL     1       7.783   8.842  17.743  0.00  0.00    +0.000 C 
ATOM     23  O   UNL     1       6.946   8.628  16.865  0.00  0.00    +0.000 OA
ATOM     24  H   UNL     1       9.115  12.435  18.068  0.00  0.00    +0.000 HD
ATOM     25  H   UNL     1       7.866  10.806  17.287  0.00  0.00    +0.000 HD
BRANCH  18  27
ATOM     26  C   UNL     1      10.649  13.957  19.450  0.00  0.00    +0.000 C 
ATOM     27  C   UNL     1      10.537  12.437  19.677  0.00  0.00    +0.000 C 
ATOM     28  C   UNL     1      11.906  11.764  19.456  0.00  0.00    +0.000 C 
ATOM     29  C   UNL     1      10.128  12.205  21.140  0.00  0.00    +0.000 C 
ENDBRANCH  18  27
ENDBRANCH  17  22
ENDBRANCH  16  17
ENDBRANCH   1  16
TORSDOF 7
ENDMDL
MODEL 3
REMARK VINA RESULT:      -7.8      2.516      6.356
REMARK  Name = 
REMARK  10 active torsions:
REMARK  status: ('A' for Active; 'I' for Inactive)
REMARK    1  A    between atoms: C_1  and  C_2
REMARK    2  A    between atoms: C_2  and  C_3
REMARK    3  A    between atoms: C_2  and  C_4
REMARK    4  A    between atoms: C_2  and  N_5
REMARK    5  A    between atoms: C_9  and  C_11
REMARK    6  A    between atoms: C_11  and  O_12
REMARK    7  A    between atoms: O_12  and  C_13
REMARK    8  A    between atoms: C_13  and  C_15
REMARK    9  A    between atoms: N_19  and  C_20
REMARK   10  A    between atoms: C_20  and  C_21
REMARK                            x       y       z     vdW  Elec       q    Type
REMARK                         _______ _______ _______ _____ _____    ______ ____
ROOT
ATOM      1  C   UNL     1       2.574   2.964  21.330  0.00  0.00    +0.000 C 
ATOM      2  O   UNL     1       2.543   2.004  22.087  0.00  0.00    +0.000 OA
ENDROOT
BRANCH   1   3
ATOM      3  C   UNL     1       1.392   3.860  21.025  0.00  0.00    +0.000 C 
ATOM      4  C   UNL     1       0.736   3.436  19.716  0.00  0.00    +0.000 C 
ATOM      5  C   UNL     1       1.459   4.275  18.692  0.00  0.00    +0.000 C 
ATOM      6  O   UNL     1       1.478   4.049  17.493  0.00  0.00    +0.000 OA
ATOM      7  N   UNL     1       2.036   5.346  19.348  0.00  0.00    +0.000 N 
ATOM      8  C   UNL     1       1.836   5.293  20.776  0.00  0.00    +0.000 C 
BRANCH   7   9
ATOM      9  C   UNL     1       2.813   6.389  18.707  0.00  0.00    +0.000 C 
BRANCH   9  10
ATOM     10  C   UNL     1       2.221   7.773  18.841  0.00  0.00    +0.000 A 
ATOM     11  C   UNL     1       2.159   8.637  17.738  0.00  0.00    +0.000 A 
ATOM     12  C   UNL     1       1.511   9.872  17.837  0.00  0.00    +0.000 A 
ATOM     13  C   UNL     1       0.924  10.261  19.040  0.00  0.00    +0.000 A 
ATOM     14  C   UNL     1       0.996   9.421  20.148  0.00  0.00    +0.000 A 
ATOM     15  C   UNL     1       1.640   8.186  20.050  0.00  0.00    +0.000 A 
ENDBRANCH   9  10
ENDBRANCH   7   9
ENDBRANCH   1   3
BRANCH   1  16
ATOM     16  O   UNL     1       3.672   3.404  20.660  0.00  0.00    +0.000 OA
BRANCH  16  17
ATOM     17  C   UNL     1       4.490   2.388  20.070  0.00  0.00    +0.000 C 
BRANCH  17  22
ATOM     18  N   UNL     1       5.157   3.988  16.152  0.00  0.00    +0.000 N 
ATOM     19  C   UNL     1       4.986   3.570  17.444  0.00  0.00    +0.000 C 
ATOM     20  O   UNL     1       5.492   4.157  18.395  0.00  0.00    +0.000 OA
ATOM     21  N   UNL     1       4.194   2.462  17.586  0.00  0.00    +0.000 N 
ATOM     22  C   UNL     1       3.900   1.818  18.770  0.00  0.00    +0.000 C 
ATOM     23  O   UNL     1       3.175   0.823  18.747  0.00  0.00    +0.000 OA
ATOM     24  H   UNL     1       4.749   3.457  15.396  0.00  0.00    +0.000 HD
ATOM     25  H   UNL     1       3.781   2.041  16.769  0.00  0.00    +0.000 HD
BRANCH  18  27
ATOM     26  C   UNL     1       7.239   5.200  16.752  0.00  0.00    +0.000 C 
ATOM     27  C   UNL     1       6.018   5.139  15.813  0.00  0.00    +0.000 C 
ATOM     28  C   UNL     1       5.221   6.457  15.890  0.00  0.00    +0.000 C 
ATOM     29  C   UNL     1       6.532   4.981  14.374  0.00  0.00    +0.000 C 
ENDBRANCH  18  27
ENDBRANCH  17  22
ENDBRANCH  16  17
ENDBRANCH   1  16
TORSDOF 7
ENDMDL
MODEL 4
REMARK VINA RESULT:      -7.6      3.530      6.342
REMARK  Name = 
REMARK  10 active torsions:
REMARK  status: ('A' for Active; 'I' for Inactive)
REMARK    1  A    between atoms: C_1  and  C_2
REMARK    2  A    between atoms: C_2  and  C_3
REMARK    3  A    between atoms: C_2  and  C_4
REMARK    4  A    between atoms: C_2  and  N_5
REMARK    5  A    between atoms: C_9  and  C_11
REMARK    6  A    between atoms: C_11  and  O_12
REMARK    7  A    between atoms: O_12  and  C_13
REMARK    8  A    between atoms: C_13  and  C_15
REMARK    9  A    between atoms: N_19  and  C_20
REMARK   10  A    between atoms: C_20  and  C_21
REMARK                            x       y       z     vdW  Elec       q    Type
REMARK                         _______ _______ _______ _____ _____    ______ ____
ROOT
ATOM      1  C   UNL     1       5.210   5.382  16.968  0.00  0.00    +0.000 C 
ATOM      2  O   UNL     1       5.076   5.253  15.759  0.00  0.00    +0.000 OA
ENDROOT
BRANCH   1   3
ATOM      3  C   UNL     1       4.916   4.303  17.988  0.00  0.00    +0.000 C 
ATOM      4  C   UNL     1       3.695   3.495  17.560  0.00  0.00    +0.000 C 
ATOM      5  C   UNL     1       2.557   4.234  18.219  0.00  0.00    +0.000 C 
ATOM      6  O   UNL     1       1.383   4.129  17.905  0.00  0.00    +0.000 OA
ATOM      7  N   UNL     1       3.080   4.993  19.248  0.00  0.00    +0.000 N 
ATOM      8  C   UNL     1       4.519   4.903  19.327  0.00  0.00    +0.000 C 
BRANCH   7   9
ATOM      9  C   UNL     1       2.302   5.842  20.130  0.00  0.00    +0.000 C 
BRANCH   9  10
ATOM     10  C   UNL     1       2.069   7.238  19.600  0.00  0.00    +0.000 A 
ATOM     11  C   UNL     1       2.421   7.573  18.283  0.00  0.00    +0.000 A 
ATOM     12  C   UNL     1       2.103   8.830  17.760  0.00  0.00    +0.000 A 
ATOM     13  C   UNL     1       1.436   9.768  18.547  0.00  0.00    +0.000 A 
ATOM     14  C   UNL     1       1.099   9.455  19.861  0.00  0.00    +0.000 A 
ATOM     15  C   UNL     1       1.414   8.199  20.384  0.00  0.00    +0.000 A 
ENDBRANCH   9  10
ENDBRANCH   7   9
ENDBRANCH   1   3
BRANCH   1  16
ATOM     16  O   UNL     1       5.669   6.498  17.595  0.00  0.00    +0.000 OA
BRANCH  16  17
ATOM     17  C   UNL     1       7.047   6.816  17.370  0.00  0.00    +0.000 C 
BRANCH  17  22
ATOM     18  N   UNL     1       9.386   9.829  19.319  0.00  0.00    +0.000 N 
ATOM     19  C   UNL     1       8.626   8.937  18.611  0.00  0.00    +0.000 C 
ATOM     20  O   UNL     1       8.002   9.259  17.607  0.00  0.00    +0.000 OA
ATOM     21  N   UNL     1       8.638   7.660  19.106  0.00  0.00    +0.000 N 
ATOM     22  C   UNL     1       7.928   6.588  18.607  0.00  0.00    +0.000 C 
ATOM     23  O   UNL     1       8.030   5.492  19.160  0.00  0.00    +0.000 OA
ATOM     24  H   UNL     1       9.858   9.530  20.159  0.00  0.00    +0.000 HD
ATOM     25  H   UNL     1       9.195   7.449  19.919  0.00  0.00    +0.000 HD
BRANCH  18  27
ATOM     26  C   UNL     1       9.151  12.148  20.174  0.00  0.00    +0.000 C 
ATOM     27  C   UNL     1       9.450  11.259  18.952  0.00  0.00    +0.000 C 
ATOM     28  C   UNL     1       8.463  11.573  17.810  0.00  0.00    +0.000 C 
ATOM     29  C   UNL     1      10.866  11.592  18.457  0.00  0.00    +0.000 C 
ENDBRANCH  18  27
ENDBRANCH  17  22
ENDBRANCH  16  17
ENDBRANCH   1  16
TORSDOF 7
ENDMDL
MODEL 5
REMARK VINA RESULT:      -7.5      0.567      1.079
REMARK  Name = 
REMARK  10 active torsions:
REMARK  status: ('A' for Active; 'I' for Inactive)
REMARK    1  A    between atoms: C_1  and  C_2
REMARK    2  A    between atoms: C_2  and  C_3
REMARK    3  A    between atoms: C_2  and  C_4
REMARK    4  A    between atoms: C_2  and  N_5
REMARK    5  A    between atoms: C_9  and  C_11
REMARK    6  A    between atoms: C_11  and  O_12
REMARK    7  A    between atoms: O_12  and  C_13
REMARK    8  A    between atoms: C_13  and  C_15
REMARK    9  A    between atoms: N_19  and  C_20
REMARK   10  A    between atoms: C_20  and  C_21
REMARK                            x       y       z     vdW  Elec       q    Type
REMARK                         _______ _______ _______ _____ _____    ______ ____
ROOT
ATOM      1  C   UNL     1       1.749   4.883  20.173  0.00  0.00    +0.000 C 
ATOM      2  O   UNL     1       2.308   4.681  21.242  0.00  0.00    +0.000 OA
ENDROOT
BRANCH   1   3
ATOM      3  C   UNL     1       1.312   3.800  19.211  0.00  0.00    +0.000 C 
ATOM      4  C   UNL     1       1.824   2.442  19.681  0.00  0.00    +0.000 C 
ATOM      5  C   UNL     1       3.158   2.328  18.986  0.00  0.00    +0.000 C 
ATOM      6  O   UNL     1       4.047   1.557  19.306  0.00  0.00    +0.000 OA
ATOM      7  N   UNL     1       3.159   3.205  17.918  0.00  0.00    +0.000 N 
ATOM      8  C   UNL     1       1.947   3.987  17.843  0.00  0.00    +0.000 C 
BRANCH   7   9
ATOM      9  C   UNL     1       4.262   3.384  16.994  0.00  0.00    +0.000 C 
BRANCH   9  10
ATOM     10  C   UNL     1       5.282   4.406  17.439  0.00  0.00    +0.000 A 
ATOM     11  C   UNL     1       5.499   4.657  18.802  0.00  0.00    +0.000 A 
ATOM     12  C   UNL     1       6.521   5.518  19.214  0.00  0.00    +0.000 A 
ATOM     13  C   UNL     1       7.332   6.144  18.269  0.00  0.00    +0.000 A 
ATOM     14  C   UNL     1       7.115   5.920  16.912  0.00  0.00    +0.000 A 
ATOM     15  C   UNL     1       6.097   5.057  16.500  0.00  0.00    +0.000 A 
ENDBRANCH   9  10
ENDBRANCH   7   9
ENDBRANCH   1   3
BRANCH   1  16
ATOM     16  O   UNL     1       1.402   6.103  19.684  0.00  0.00    +0.000 OA
BRANCH  16  17
ATOM     17  C   UNL     1       2.433   7.097  19.702  0.00  0.00    +0.000 C 
BRANCH  17  22
ATOM     18  N   UNL     1       0.878  10.856  18.359  0.00  0.00    +0.000 N 
ATOM     19  C   UNL     1       1.303   9.660  18.872  0.00  0.00    +0.000 C 
ATOM     20  O   UNL     1       0.974   9.272  19.987  0.00  0.00    +0.000 OA
ATOM     21  N   UNL     1       2.103   8.932  18.033  0.00  0.00    +0.000 N 
ATOM     22  C   UNL     1       2.695   7.719  18.323  0.00  0.00    +0.000 C 
ATOM     23  O   UNL     1       3.399   7.178  17.470  0.00  0.00    +0.000 OA
ATOM     24  H   UNL     1       1.199  11.153  17.449  0.00  0.00    +0.000 HD
ATOM     25  H   UNL     1       2.314   9.290  17.115  0.00  0.00    +0.000 HD
BRANCH  18  27
ATOM     26  C   UNL     1       0.806  12.276  20.394  0.00  0.00    +0.000 C 
ATOM     27  C   UNL     1       0.046  11.789  19.145  0.00  0.00    +0.000 C 
ATOM     28  C   UNL     1      -1.281  11.120  19.557  0.00  0.00    +0.000 C 
ATOM     29  C   UNL     1      -0.291  13.017  18.285  0.00  0.00    +0.000 C 
ENDBRANCH  18  27
ENDBRANCH  17  22
ENDBRANCH  16  17
ENDBRANCH   1  16
TORSDOF 7
ENDMDL
MODEL 6
REMARK VINA RESULT:      -7.5      0.994      1.693
REMARK  Name = 
REMARK  10 active torsions:
REMARK  status: ('A' for Active; 'I' for Inactive)
REMARK    1  A    between atoms: C_1  and  C_2
REMARK    2  A    between atoms: C_2  and  C_3
REMARK    3  A    between atoms: C_2  and  C_4
REMARK    4  A    between atoms: C_2  and  N_5
REMARK    5  A    between atoms: C_9  and  C_11
REMARK    6  A    between atoms: C_11  and  O_12
REMARK    7  A    between atoms: O_12  and  C_13
REMARK    8  A    between atoms: C_13  and  C_15
REMARK    9  A    between atoms: N_19  and  C_20
REMARK   10  A    between atoms: C_20  and  C_21
REMARK                            x       y       z     vdW  Elec       q    Type
REMARK                         _______ _______ _______ _____ _____    ______ ____
ROOT
ATOM      1  C   UNL     1       1.594   5.416  20.232  0.00  0.00    +0.000 C 
ATOM      2  O   UNL     1       1.439   5.999  21.296  0.00  0.00    +0.000 OA
ENDROOT
BRANCH   1   3
ATOM      3  C   UNL     1       1.167   3.989  19.961  0.00  0.00    +0.000 C 
ATOM      4  C   UNL     1       1.863   3.039  20.929  0.00  0.00    +0.000 C 
ATOM      5  C   UNL     1       3.118   2.660  20.182  0.00  0.00    +0.000 C 
ATOM      6  O   UNL     1       4.111   2.168  20.692  0.00  0.00    +0.000 OA
ATOM      7  N   UNL     1       2.912   2.923  18.841  0.00  0.00    +0.000 N 
ATOM      8  C   UNL     1       1.626   3.528  18.587  0.00  0.00    +0.000 C 
BRANCH   7   9
ATOM      9  C   UNL     1       3.883   2.683  17.792  0.00  0.00    +0.000 C 
BRANCH   9  10
ATOM     10  C   UNL     1       4.733   3.884  17.449  0.00  0.00    +0.000 A 
ATOM     11  C   UNL     1       5.370   4.624  18.456  0.00  0.00    +0.000 A 
ATOM     12  C   UNL     1       6.245   5.664  18.130  0.00  0.00    +0.000 A 
ATOM     13  C   UNL     1       6.488   5.983  16.795  0.00  0.00    +0.000 A 
ATOM     14  C   UNL     1       5.847   5.270  15.785  0.00  0.00    +0.000 A 
ATOM     15  C   UNL     1       4.976   4.228  16.110  0.00  0.00    +0.000 A 
ENDBRANCH   9  10
ENDBRANCH   7   9
ENDBRANCH   1   3
BRANCH   1  16
ATOM     16  O   UNL     1       2.146   5.954  19.112  0.00  0.00    +0.000 OA
BRANCH  16  17
ATOM     17  C   UNL     1       2.627   7.297  19.240  0.00  0.00    +0.000 C 
BRANCH  17  22
ATOM     18  N   UNL     1       0.749  10.998  18.181  0.00  0.00    +0.000 N 
ATOM     19  C   UNL     1       1.280   9.811  18.606  0.00  0.00    +0.000 C 
ATOM     20  O   UNL     1       1.030   9.338  19.709  0.00  0.00    +0.000 OA
ATOM     21  N   UNL     1       2.094   9.192  17.695  0.00  0.00    +0.000 N 
ATOM     22  C   UNL     1       2.783   8.012  17.890  0.00  0.00    +0.000 C 
ATOM     23  O   UNL     1       3.487   7.572  16.979  0.00  0.00    +0.000 OA
ATOM     24  H   UNL     1       1.007  11.368  17.277  0.00  0.00    +0.000 HD
ATOM     25  H   UNL     1       2.238   9.615  16.792  0.00  0.00    +0.000 HD
BRANCH  18  27
ATOM     26  C   UNL     1      -0.483  13.147  18.359  0.00  0.00    +0.000 C 
ATOM     27  C   UNL     1      -0.113  11.822  19.053  0.00  0.00    +0.000 C 
ATOM     28  C   UNL     1       0.583  12.102  20.399  0.00  0.00    +0.000 C 
ATOM     29  C   UNL     1      -1.416  11.059  19.344  0.00  0.00    +0.000 C 
ENDBRANCH  18  27
ENDBRANCH  17  22
ENDBRANCH  16  17
ENDBRANCH   1  16
TORSDOF 7
ENDMDL
MODEL 7
REMARK VINA RESULT:      -7.4      4.267      7.086
REMARK  Name = 
REMARK  10 active torsions:
REMARK  status: ('A' for Active; 'I' for Inactive)
REMARK    1  A    between atoms: C_1  and  C_2
REMARK    2  A    between atoms: C_2  and  C_3
REMARK    3  A    between atoms: C_2  and  C_4
REMARK    4  A    between atoms: C_2  and  N_5
REMARK    5  A    between atoms: C_9  and  C_11
REMARK    6  A    between atoms: C_11  and  O_12
REMARK    7  A    between atoms: O_12  and  C_13
REMARK    8  A    between atoms: C_13  and  C_15
REMARK    9  A    between atoms: N_19  and  C_20
REMARK   10  A    between atoms: C_20  and  C_21
REMARK                            x       y       z     vdW  Elec       q    Type
REMARK                         _______ _______ _______ _____ _____    ______ ____
ROOT
ATOM      1  C   UNL     1       7.579   5.622  19.038  0.00  0.00    +0.000 C 
ATOM      2  O   UNL     1       7.658   5.585  20.259  0.00  0.00    +0.000 OA
ENDROOT
BRANCH   1   3
ATOM      3  C   UNL     1       6.700   4.716  18.203  0.00  0.00    +0.000 C 
ATOM      4  C   UNL     1       6.268   5.433  16.928  0.00  0.00    +0.000 C 
ATOM      5  C   UNL     1       4.971   6.087  17.335  0.00  0.00    +0.000 C 
ATOM      6  O   UNL     1       4.436   7.005  16.736  0.00  0.00    +0.000 OA
ATOM      7  N   UNL     1       4.495   5.431  18.454  0.00  0.00    +0.000 N 
ATOM      8  C   UNL     1       5.395   4.402  18.917  0.00  0.00    +0.000 C 
BRANCH   7   9
ATOM      9  C   UNL     1       3.262   5.758  19.144  0.00  0.00    +0.000 C 
BRANCH   9  10
ATOM     10  C   UNL     1       2.372   4.568  19.419  0.00  0.00    +0.000 A 
ATOM     11  C   UNL     1       2.052   4.200  20.735  0.00  0.00    +0.000 A 
ATOM     12  C   UNL     1       1.140   3.170  20.984  0.00  0.00    +0.000 A 
ATOM     13  C   UNL     1       0.544   2.490  19.923  0.00  0.00    +0.000 A 
ATOM     14  C   UNL     1       0.868   2.831  18.612  0.00  0.00    +0.000 A 
ATOM     15  C   UNL     1       1.776   3.863  18.362  0.00  0.00    +0.000 A 
ENDBRANCH   9  10
ENDBRANCH   7   9
ENDBRANCH   1   3
BRANCH   1  16
ATOM     16  O   UNL     1       8.240   6.496  18.232  0.00  0.00    +0.000 OA
BRANCH  16  17
ATOM     17  C   UNL     1       8.398   7.822  18.749  0.00  0.00    +0.000 C 
BRANCH  17  22
ATOM     18  N   UNL     1       9.555  11.942  18.926  0.00  0.00    +0.000 N 
ATOM     19  C   UNL     1       9.226  10.615  18.972  0.00  0.00    +0.000 C 
ATOM     20  O   UNL     1       9.637   9.867  19.853  0.00  0.00    +0.000 OA
ATOM     21  N   UNL     1       8.390  10.200  17.970  0.00  0.00    +0.000 N 
ATOM     22  C   UNL     1       7.943   8.910  17.766  0.00  0.00    +0.000 C 
ATOM     23  O   UNL     1       7.195   8.679  16.815  0.00  0.00    +0.000 OA
ATOM     24  H   UNL     1       9.221  12.515  18.165  0.00  0.00    +0.000 HD
ATOM     25  H   UNL     1       8.061  10.868  17.292  0.00  0.00    +0.000 HD
BRANCH  18  27
ATOM     26  C   UNL     1       9.960  12.363  21.340  0.00  0.00    +0.000 C 
ATOM     27  C   UNL     1      10.484  12.548  19.903  0.00  0.00    +0.000 C 
ATOM     28  C   UNL     1      10.692  14.045  19.600  0.00  0.00    +0.000 C 
ATOM     29  C   UNL     1      11.850  11.851  19.802  0.00  0.00    +0.000 C 
ENDBRANCH  18  27
ENDBRANCH  17  22
ENDBRANCH  16  17
ENDBRANCH   1  16
TORSDOF 7
ENDMDL
MODEL 8
REMARK VINA RESULT:      -7.3      0.816      1.481
REMARK  Name = 
REMARK  10 active torsions:
REMARK  status: ('A' for Active; 'I' for Inactive)
REMARK    1  A    between atoms: C_1  and  C_2
REMARK    2  A    between atoms: C_2  and  C_3
REMARK    3  A    between atoms: C_2  and  C_4
REMARK    4  A    between atoms: C_2  and  N_5
REMARK    5  A    between atoms: C_9  and  C_11
REMARK    6  A    between atoms: C_11  and  O_12
REMARK    7  A    between atoms: O_12  and  C_13
REMARK    8  A    between atoms: C_13  and  C_15
REMARK    9  A    between atoms: N_19  and  C_20
REMARK   10  A    between atoms: C_20  and  C_21
REMARK                            x       y       z     vdW  Elec       q    Type
REMARK                         _______ _______ _______ _____ _____    ______ ____
ROOT
ATOM      1  C   UNL     1       2.312   5.633  19.791  0.00  0.00    +0.000 C 
ATOM      2  O   UNL     1       2.090   5.277  20.940  0.00  0.00    +0.000 OA
ENDROOT
BRANCH   1   3
ATOM      3  C   UNL     1       1.944   4.840  18.556  0.00  0.00    +0.000 C 
ATOM      4  C   UNL     1       1.959   3.347  18.867  0.00  0.00    +0.000 C 
ATOM      5  C   UNL     1       3.375   2.949  18.531  0.00  0.00    +0.000 C 
ATOM      6  O   UNL     1       3.922   1.927  18.913  0.00  0.00    +0.000 OA
ATOM      7  N   UNL     1       3.902   3.913  17.692  0.00  0.00    +0.000 N 
ATOM      8  C   UNL     1       2.987   5.006  17.462  0.00  0.00    +0.000 C 
BRANCH   7   9
ATOM      9  C   UNL     1       5.241   3.887  17.138  0.00  0.00    +0.000 C 
BRANCH   9  10
ATOM     10  C   UNL     1       6.132   5.009  17.617  0.00  0.00    +0.000 A 
ATOM     11  C   UNL     1       6.796   4.921  18.850  0.00  0.00    +0.000 A 
ATOM     12  C   UNL     1       7.706   5.908  19.240  0.00  0.00    +0.000 A 
ATOM     13  C   UNL     1       7.958   6.997  18.408  0.00  0.00    +0.000 A 
ATOM     14  C   UNL     1       7.291   7.107  17.190  0.00  0.00    +0.000 A 
ATOM     15  C   UNL     1       6.384   6.120  16.798  0.00  0.00    +0.000 A 
ENDBRANCH   9  10
ENDBRANCH   7   9
ENDBRANCH   1   3
BRANCH   1  16
ATOM     16  O   UNL     1       2.897   6.807  19.429  0.00  0.00    +0.000 OA
BRANCH  16  17
ATOM     17  C   UNL     1       2.012   7.920  19.269  0.00  0.00    +0.000 C 
BRANCH  17  22
ATOM     18  N   UNL     1       0.554  11.863  18.445  0.00  0.00    +0.000 N 
ATOM     19  C   UNL     1       0.951  10.601  18.795  0.00  0.00    +0.000 C 
ATOM     20  O   UNL     1       0.649  10.093  19.869  0.00  0.00    +0.000 OA
ATOM     21  N   UNL     1       1.691   9.952  17.843  0.00  0.00    +0.000 N 
ATOM     22  C   UNL     1       2.246   8.694  17.963  0.00  0.00    +0.000 C 
ATOM     23  O   UNL     1       2.897   8.235  17.023  0.00  0.00    +0.000 OA
ATOM     24  H   UNL     1       0.851  12.256  17.564  0.00  0.00    +0.000 HD
ATOM     25  H   UNL     1       1.881  10.410  16.966  0.00  0.00    +0.000 HD
BRANCH  18  27
ATOM     26  C   UNL     1      -1.608  12.126  19.639  0.00  0.00    +0.000 C 
ATOM     27  C   UNL     1      -0.212  12.723  19.371  0.00  0.00    +0.000 C 
ATOM     28  C   UNL     1      -0.344  14.151  18.805  0.00  0.00    +0.000 C 
ATOM     29  C   UNL     1       0.532  12.812  20.713  0.00  0.00    +0.000 C 
ENDBRANCH  18  27
ENDBRANCH  17  22
ENDBRANCH  16  17
ENDBRANCH   1  16
TORSDOF 7
ENDMDL
MODEL 9
REMARK VINA RESULT:      -7.1      1.066      1.475
REMARK  Name = 
REMARK  10 active torsions:
REMARK  status: ('A' for Active; 'I' for Inactive)
REMARK    1  A    between atoms: C_1  and  C_2
REMARK    2  A    between atoms: C_2  and  C_3
REMARK    3  A    between atoms: C_2  and  C_4
REMARK    4  A    between atoms: C_2  and  N_5
REMARK    5  A    between atoms: C_9  and  C_11
REMARK    6  A    between atoms: C_11  and  O_12
REMARK    7  A    between atoms: O_12  and  C_13
REMARK    8  A    between atoms: C_13  and  C_15
REMARK    9  A    between atoms: N_19  and  C_20
REMARK   10  A    between atoms: C_20  and  C_21
REMARK                            x       y       z     vdW  Elec       q    Type
REMARK                         _______ _______ _______ _____ _____    ______ ____
ROOT
ATOM      1  C   UNL     1       1.946   5.594  20.148  0.00  0.00    +0.000 C 
ATOM      2  O   UNL     1       2.056   5.949  21.314  0.00  0.00    +0.000 OA
ENDROOT
BRANCH   1   3
ATOM      3  C   UNL     1       1.393   4.258  19.701  0.00  0.00    +0.000 C 
ATOM      4  C   UNL     1       1.877   3.152  20.632  0.00  0.00    +0.000 C 
ATOM      5  C   UNL     1       3.151   2.690  19.969  0.00  0.00    +0.000 C 
ATOM      6  O   UNL     1       4.027   2.041  20.517  0.00  0.00    +0.000 OA
ATOM      7  N   UNL     1       3.113   3.090  18.647  0.00  0.00    +0.000 N 
ATOM      8  C   UNL     1       1.935   3.865  18.337  0.00  0.00    +0.000 C 
BRANCH   7   9
ATOM      9  C   UNL     1       4.153   2.827  17.671  0.00  0.00    +0.000 C 
BRANCH   9  10
ATOM     10  C   UNL     1       4.901   4.059  17.216  0.00  0.00    +0.000 A 
ATOM     11  C   UNL     1       5.005   4.371  15.852  0.00  0.00    +0.000 A 
ATOM     12  C   UNL     1       5.599   5.568  15.440  0.00  0.00    +0.000 A 
ATOM     13  C   UNL     1       6.102   6.462  16.383  0.00  0.00    +0.000 A 
ATOM     14  C   UNL     1       6.023   6.155  17.739  0.00  0.00    +0.000 A 
ATOM     15  C   UNL     1       5.427   4.962  18.152  0.00  0.00    +0.000 A 
ENDBRANCH   9  10
ENDBRANCH   7   9
ENDBRANCH   1   3
BRANCH   1  16
ATOM     16  O   UNL     1       2.272   6.346  19.063  0.00  0.00    +0.000 OA
BRANCH  16  17
ATOM     17  C   UNL     1       2.072   7.757  19.200  0.00  0.00    +0.000 C 
BRANCH  17  22
ATOM     18  N   UNL     1       0.678  11.722  18.370  0.00  0.00    +0.000 N 
ATOM     19  C   UNL     1       1.053  10.453  18.721  0.00  0.00    +0.000 C 
ATOM     20  O   UNL     1       0.728   9.945  19.788  0.00  0.00    +0.000 OA
ATOM     21  N   UNL     1       1.800   9.798  17.778  0.00  0.00    +0.000 N 
ATOM     22  C   UNL     1       2.336   8.533  17.901  0.00  0.00    +0.000 C 
ATOM     23  O   UNL     1       2.996   8.069  16.970  0.00  0.00    +0.000 OA
ATOM     24  H   UNL     1       0.994  12.114  17.495  0.00  0.00    +0.000 HD
ATOM     25  H   UNL     1       2.009  10.257  16.906  0.00  0.00    +0.000 HD
BRANCH  18  27
ATOM     26  C   UNL     1      -1.464  11.962  19.603  0.00  0.00    +0.000 C 
ATOM     27  C   UNL     1      -0.092  12.588  19.287  0.00  0.00    +0.000 C 
ATOM     28  C   UNL     1      -0.274  13.994  18.683  0.00  0.00    +0.000 C 
ATOM     29  C   UNL     1       0.678  12.737  20.608  0.00  0.00    +0.000 C 
ENDBRANCH  18  27
ENDBRANCH  17  22
ENDBRANCH  16  17
ENDBRANCH   1  16
TORSDOF 7
ENDMDL
