MODEL 1
REMARK VINA RESULT:      -5.7      0.000      0.000
REMARK  Name = 
REMARK  9 active torsions:
REMARK  status: ('A' for Active; 'I' for Inactive)
REMARK    1  A    between atoms: C_1  and  N_2
REMARK    2  A    between atoms: N_2  and  C_3
REMARK    3  A    between atoms: N_2  and  P_4
REMARK    4  A    between atoms: P_4  and  C_6
REMARK    5  A    between atoms: P_4  and  N_21
REMARK    6  A    between atoms: C_8  and  N_9
REMARK    7  A    between atoms: C_8  and  N_15
REMARK    8  A    between atoms: N_21  and  C_22
REMARK    9  A    between atoms: N_21  and  C_23
REMARK                            x       y       z     vdW  Elec       q    Type
REMARK                         _______ _______ _______ _____ _____    ______ ____
ROOT
ATOM      1  C   UNL     1       4.431   4.763  17.710  0.00  0.00    +0.000 C 
ATOM      2 CL   UNL     1       4.955   3.115  17.379  0.00  0.00    +0.000 Cl
ATOM      3  C   UNL     1       3.352   4.980  18.516  0.00  0.00    +0.000 C 
ENDROOT
BRANCH   3   4
ATOM      4  N   UNL     1       2.855   6.277  18.733  0.00  0.00    +0.000 N 
ATOM      5  C   UNL     1       2.112   6.903  17.606  0.00  0.00    +0.000 C 
ATOM      6  C   UNL     1       2.036   8.422  17.772  0.00  0.00    +0.000 C 
ATOM      7  C   UNL     1       1.450   8.816  19.123  0.00  0.00    +0.000 C 
ATOM      8  C   UNL     1       2.200   8.114  20.246  0.00  0.00    +0.000 C 
ATOM      9  C   UNL     1       2.219   6.607  20.027  0.00  0.00    +0.000 C 
ENDBRANCH   3   4
BRANCH   3  10
ATOM     10  N   UNL     1       2.720   3.941  19.207  0.00  0.00    +0.000 N 
ATOM     11  C   UNL     1       1.489   3.296  18.750  0.00  0.00    +0.000 C 
ATOM     12  C   UNL     1       0.509   3.252  19.923  0.00  0.00    +0.000 C 
ATOM     13  C   UNL     1       1.124   2.575  21.152  0.00  0.00    +0.000 C 
ATOM     14  C   UNL     1       2.498   3.151  21.499  0.00  0.00    +0.000 C 
ATOM     15  C   UNL     1       3.408   3.202  20.271  0.00  0.00    +0.000 C 
ENDBRANCH   3  10
BRANCH   1  16
ATOM     16  P   UNL     1       5.524   6.086  17.125  0.00  0.00    +0.000 P 
ATOM     17  O   UNL     1       4.987   7.503  17.060  0.00  0.00    +0.000 OA
BRANCH  16  19
ATOM     18  C   UNL     1       7.346   4.833  15.573  0.00  0.00    +0.000 C 
ATOM     19  N   UNL     1       6.222   5.758  15.615  0.00  0.00    +0.000 NA
ATOM     20  C   UNL     1       5.242   5.374  14.586  0.00  0.00    +0.000 C 
ENDBRANCH  16  19
BRANCH  16  21
ATOM     21  N   UNL     1       6.920   6.026  18.070  0.00  0.00    +0.000 NA
ATOM     22  C   UNL     1       7.747   7.224  18.086  0.00  0.00    +0.000 C 
ATOM     23  C   UNL     1       6.820   5.471  19.415  0.00  0.00    +0.000 C 
ENDBRANCH  16  21
ENDBRANCH   1  16
TORSDOF 5
ENDMDL
MODEL 2
REMARK VINA RESULT:      -5.6      1.864      4.553
REMARK  Name = 
REMARK  9 active torsions:
REMARK  status: ('A' for Active; 'I' for Inactive)
REMARK    1  A    between atoms: C_1  and  N_2
REMARK    2  A    between atoms: N_2  and  C_3
REMARK    3  A    between atoms: N_2  and  P_4
REMARK    4  A    between atoms: P_4  and  C_6
REMARK    5  A    between atoms: P_4  and  N_21
REMARK    6  A    between atoms: C_8  and  N_9
REMARK    7  A    between atoms: C_8  and  N_15
REMARK    8  A    between atoms: N_21  and  C_22
REMARK    9  A    between atoms: N_21  and  C_23
REMARK                            x       y       z     vdW  Elec       q    Type
REMARK                         _______ _______ _______ _____ _____    ______ ____
ROOT
ATOM      1  C   UNL     1       4.316   6.283  18.660  0.00  0.00    +0.000 C 
ATOM      2 CL   UNL     1       4.897   7.848  18.098  0.00  0.00    +0.000 Cl
ATOM      3  C   UNL     1       3.038   6.163  19.121  0.00  0.00    +0.000 C 
ENDROOT
BRANCH   3   4
ATOM      4  N   UNL     1       2.569   4.949  19.656  0.00  0.00    +0.000 N 
ATOM      5  C   UNL     1       2.395   4.895  21.132  0.00  0.00    +0.000 C 
ATOM      6  C   UNL     1       2.342   3.449  21.628  0.00  0.00    +0.000 C 
ATOM      7  C   UNL     1       1.271   2.641  20.904  0.00  0.00    +0.000 C 
ATOM      8  C   UNL     1       1.448   2.765  19.397  0.00  0.00    +0.000 C 
ATOM      9  C   UNL     1       1.473   4.228  18.973  0.00  0.00    +0.000 C 
ENDBRANCH   3   4
BRANCH   3  10
ATOM     10  N   UNL     1       2.116   7.212  19.039  0.00  0.00    +0.000 N 
ATOM     11  C   UNL     1       1.596   7.734  17.775  0.00  0.00    +0.000 C 
ATOM     12  C   UNL     1       1.726   9.258  17.799  0.00  0.00    +0.000 C 
ATOM     13  C   UNL     1       1.044   9.866  19.029  0.00  0.00    +0.000 C 
ATOM     14  C   UNL     1       1.474   9.176  20.325  0.00  0.00    +0.000 C 
ATOM     15  C   UNL     1       1.356   7.655  20.212  0.00  0.00    +0.000 C 
ENDBRANCH   3  10
BRANCH   1  16
ATOM     16  P   UNL     1       5.412   4.868  18.368  0.00  0.00    +0.000 P 
ATOM     17  O   UNL     1       5.381   3.707  19.344  0.00  0.00    +0.000 OA
BRANCH  16  19
ATOM     18  C   UNL     1       7.762   5.749  19.366  0.00  0.00    +0.000 C 
ATOM     19  N   UNL     1       7.038   5.308  18.182  0.00  0.00    +0.000 NA
ATOM     20  C   UNL     1       7.842   4.300  17.472  0.00  0.00    +0.000 C 
ENDBRANCH  16  19
BRANCH  16  21
ATOM     21  N   UNL     1       5.112   4.329  16.799  0.00  0.00    +0.000 NA
ATOM     22  C   UNL     1       4.004   3.400  16.631  0.00  0.00    +0.000 C 
ATOM     23  C   UNL     1       5.108   5.310  15.720  0.00  0.00    +0.000 C 
ENDBRANCH  16  21
ENDBRANCH   1  16
TORSDOF 5
ENDMDL
MODEL 3
REMARK VINA RESULT:      -5.5      1.902      4.595
REMARK  Name = 
REMARK  9 active torsions:
REMARK  status: ('A' for Active; 'I' for Inactive)
REMARK    1  A    between atoms: C_1  and  N_2
REMARK    2  A    between atoms: N_2  and  C_3
REMARK    3  A    between atoms: N_2  and  P_4
REMARK    4  A    between atoms: P_4  and  C_6
REMARK    5  A    between atoms: P_4  and  N_21
REMARK    6  A    between atoms: C_8  and  N_9
REMARK    7  A    between atoms: C_8  and  N_15
REMARK    8  A    between atoms: N_21  and  C_22
REMARK    9  A    between atoms: N_21  and  C_23
REMARK                            x       y       z     vdW  Elec       q    Type
REMARK                         _______ _______ _______ _____ _____    ______ ____
ROOT
ATOM      1  C   UNL     1       4.195   5.741  18.602  0.00  0.00    +0.000 C 
ATOM      2 CL   UNL     1       4.880   7.179  17.852  0.00  0.00    +0.000 Cl
ATOM      3  C   UNL     1       2.958   5.800  19.174  0.00  0.00    +0.000 C 
ENDROOT
BRANCH   3   4
ATOM      4  N   UNL     1       2.417   4.695  19.854  0.00  0.00    +0.000 N 
ATOM      5  C   UNL     1       2.581   4.679  21.333  0.00  0.00    +0.000 C 
ATOM      6  C   UNL     1       2.387   3.268  21.893  0.00  0.00    +0.000 C 
ATOM      7  C   UNL     1       1.053   2.667  21.467  0.00  0.00    +0.000 C 
ATOM      8  C   UNL     1       0.898   2.752  19.955  0.00  0.00    +0.000 C 
ATOM      9  C   UNL     1       1.083   4.184  19.470  0.00  0.00    +0.000 C 
ENDBRANCH   3   4
BRANCH   3  10
ATOM     10  N   UNL     1       2.145   6.934  19.067  0.00  0.00    +0.000 N 
ATOM     11  C   UNL     1       1.649   7.457  17.794  0.00  0.00    +0.000 C 
ATOM     12  C   UNL     1       1.932   8.960  17.754  0.00  0.00    +0.000 C 
ATOM     13  C   UNL     1       1.346   9.681  18.973  0.00  0.00    +0.000 C 
ATOM     14  C   UNL     1       1.735   9.000  20.287  0.00  0.00    +0.000 C 
ATOM     15  C   UNL     1       1.463   7.496  20.237  0.00  0.00    +0.000 C 
ENDBRANCH   3  10
BRANCH   1  16
ATOM     16  P   UNL     1       5.110   4.194  18.357  0.00  0.00    +0.000 P 
ATOM     17  O   UNL     1       5.521   3.387  19.574  0.00  0.00    +0.000 OA
BRANCH  16  19
ATOM     18  C   UNL     1       6.333   4.932  16.064  0.00  0.00    +0.000 C 
ATOM     19  N   UNL     1       6.498   4.382  17.403  0.00  0.00    +0.000 NA
ATOM     20  C   UNL     1       7.588   5.097  18.087  0.00  0.00    +0.000 C 
ENDBRANCH  16  19
BRANCH  16  21
ATOM     21  N   UNL     1       4.200   3.246  17.300  0.00  0.00    +0.000 NA
ATOM     22  C   UNL     1       3.737   1.964  17.810  0.00  0.00    +0.000 C 
ATOM     23  C   UNL     1       3.139   3.890  16.534  0.00  0.00    +0.000 C 
ENDBRANCH  16  21
ENDBRANCH   1  16
TORSDOF 5
ENDMDL
MODEL 4
REMARK VINA RESULT:      -5.4      7.758     10.118
REMARK  Name = 
REMARK  9 active torsions:
REMARK  status: ('A' for Active; 'I' for Inactive)
REMARK    1  A    between atoms: C_1  and  N_2
REMARK    2  A    between atoms: N_2  and  C_3
REMARK    3  A    between atoms: N_2  and  P_4
REMARK    4  A    between atoms: P_4  and  C_6
REMARK    5  A    between atoms: P_4  and  N_21
REMARK    6  A    between atoms: C_8  and  N_9
REMARK    7  A    between atoms: C_8  and  N_15
REMARK    8  A    between atoms: N_21  and  C_22
REMARK    9  A    between atoms: N_21  and  C_23
REMARK                            x       y       z     vdW  Elec       q    Type
REMARK                         _______ _______ _______ _____ _____    ______ ____
ROOT
ATOM      1  C   UNL     1      -0.142  14.128  21.787  0.00  0.00    +0.000 C 
ATOM      2 CL   UNL     1      -0.605  15.805  22.056  0.00  0.00    +0.000 Cl
ATOM      3  C   UNL     1      -1.032  13.130  22.051  0.00  0.00    +0.000 C 
ENDROOT
BRANCH   3   4
ATOM      4  N   UNL     1      -0.667  11.777  21.928  0.00  0.00    +0.000 N 
ATOM      5  C   UNL     1      -0.991  10.893  23.080  0.00  0.00    +0.000 C 
ATOM      6  C   UNL     1      -0.160   9.609  23.039  0.00  0.00    +0.000 C 
ATOM      7  C   UNL     1      -0.308   8.880  21.708  0.00  0.00    +0.000 C 
ATOM      8  C   UNL     1      -0.023   9.830  20.554  0.00  0.00    +0.000 C 
ATOM      9  C   UNL     1      -0.897  11.074  20.648  0.00  0.00    +0.000 C 
ENDBRANCH   3   4
BRANCH   3  10
ATOM     10  N   UNL     1      -2.361  13.393  22.403  0.00  0.00    +0.000 N 
ATOM     11  C   UNL     1      -2.782  13.763  23.754  0.00  0.00    +0.000 C 
ATOM     12  C   UNL     1      -3.966  12.876  24.144  0.00  0.00    +0.000 C 
ATOM     13  C   UNL     1      -5.099  12.957  23.115  0.00  0.00    +0.000 C 
ATOM     14  C   UNL     1      -4.595  12.745  21.686  0.00  0.00    +0.000 C 
ATOM     15  C   UNL     1      -3.387  13.633  21.383  0.00  0.00    +0.000 C 
ENDBRANCH   3  10
BRANCH   1  16
ATOM     16  P   UNL     1       1.443  13.858  20.946  0.00  0.00    +0.000 P 
ATOM     17  O   UNL     1       2.216  12.586  21.236  0.00  0.00    +0.000 OA
BRANCH  16  19
ATOM     18  C   UNL     1       3.945  14.828  21.249  0.00  0.00    +0.000 C 
ATOM     19  N   UNL     1       2.529  15.145  21.137  0.00  0.00    +0.000 NA
ATOM     20  C   UNL     1       2.352  16.216  20.142  0.00  0.00    +0.000 C 
ENDBRANCH  16  19
BRANCH  16  21
ATOM     21  N   UNL     1       1.154  14.010  19.292  0.00  0.00    +0.000 NA
ATOM     22  C   UNL     1       1.819  13.049  18.424  0.00  0.00    +0.000 C 
ATOM     23  C   UNL     1      -0.219  14.218  18.846  0.00  0.00    +0.000 C 
ENDBRANCH  16  21
ENDBRANCH   1  16
TORSDOF 5
ENDMDL
MODEL 5
REMARK VINA RESULT:      -5.3      1.754      4.494
REMARK  Name = 
REMARK  9 active torsions:
REMARK  status: ('A' for Active; 'I' for Inactive)
REMARK    1  A    between atoms: C_1  and  N_2
REMARK    2  A    between atoms: N_2  and  C_3
REMARK    3  A    between atoms: N_2  and  P_4
REMARK    4  A    between atoms: P_4  and  C_6
REMARK    5  A    between atoms: P_4  and  N_21
REMARK    6  A    between atoms: C_8  and  N_9
REMARK    7  A    between atoms: C_8  and  N_15
REMARK    8  A    between atoms: N_21  and  C_22
REMARK    9  A    between atoms: N_21  and  C_23
REMARK                            x       y       z     vdW  Elec       q    Type
REMARK                         _______ _______ _______ _____ _____    ______ ____
ROOT
ATOM      1  C   UNL     1       4.261   6.079  18.211  0.00  0.00    +0.000 C 
ATOM      2 CL   UNL     1       4.881   7.635  17.665  0.00  0.00    +0.000 Cl
ATOM      3  C   UNL     1       3.038   6.012  18.811  0.00  0.00    +0.000 C 
ENDROOT
BRANCH   3   4
ATOM      4  N   UNL     1       2.549   4.801  19.333  0.00  0.00    +0.000 N 
ATOM      5  C   UNL     1       2.503   4.687  20.816  0.00  0.00    +0.000 C 
ATOM      6  C   UNL     1       2.412   3.223  21.253  0.00  0.00    +0.000 C 
ATOM      7  C   UNL     1       1.238   2.507  20.595  0.00  0.00    +0.000 C 
ATOM      8  C   UNL     1       1.289   2.693  19.085  0.00  0.00    +0.000 C 
ATOM      9  C   UNL     1       1.359   4.171  18.723  0.00  0.00    +0.000 C 
ENDBRANCH   3   4
BRANCH   3  10
ATOM     10  N   UNL     1       2.186   7.119  18.889  0.00  0.00    +0.000 N 
ATOM     11  C   UNL     1       1.621   7.789  17.718  0.00  0.00    +0.000 C 
ATOM     12  C   UNL     1       1.856   9.293  17.868  0.00  0.00    +0.000 C 
ATOM     13  C   UNL     1       1.301   9.824  19.195  0.00  0.00    +0.000 C 
ATOM     14  C   UNL     1       1.767   8.990  20.389  0.00  0.00    +0.000 C 
ATOM     15  C   UNL     1       1.539   7.497  20.149  0.00  0.00    +0.000 C 
ENDBRANCH   3  10
BRANCH   1  16
ATOM     16  P   UNL     1       5.217   4.618  17.722  0.00  0.00    +0.000 P 
ATOM     17  O   UNL     1       4.571   3.250  17.835  0.00  0.00    +0.000 OA
BRANCH  16  19
ATOM     18  C   UNL     1       7.915   4.493  17.662  0.00  0.00    +0.000 C 
ATOM     19  N   UNL     1       6.722   4.513  18.496  0.00  0.00    +0.000 NA
ATOM     20  C   UNL     1       6.900   5.506  19.569  0.00  0.00    +0.000 C 
ENDBRANCH  16  19
BRANCH  16  21
ATOM     21  N   UNL     1       5.758   4.887  16.148  0.00  0.00    +0.000 NA
ATOM     22  C   UNL     1       5.835   3.722  15.278  0.00  0.00    +0.000 C 
ATOM     23  C   UNL     1       5.209   6.022  15.413  0.00  0.00    +0.000 C 
ENDBRANCH  16  21
ENDBRANCH   1  16
TORSDOF 5
ENDMDL
MODEL 6
REMARK VINA RESULT:      -5.3      8.779     11.092
REMARK  Name = 
REMARK  9 active torsions:
REMARK  status: ('A' for Active; 'I' for Inactive)
REMARK    1  A    between atoms: C_1  and  N_2
REMARK    2  A    between atoms: N_2  and  C_3
REMARK    3  A    between atoms: N_2  and  P_4
REMARK    4  A    between atoms: P_4  and  C_6
REMARK    5  A    between atoms: P_4  and  N_21
REMARK    6  A    between atoms: C_8  and  N_9
REMARK    7  A    between atoms: C_8  and  N_15
REMARK    8  A    between atoms: N_21  and  C_22
REMARK    9  A    between atoms: N_21  and  C_23
REMARK                            x       y       z     vdW  Elec       q    Type
REMARK                         _______ _______ _______ _____ _____    ______ ____
ROOT
ATOM      1  C   UNL     1      -3.617  12.626  20.170  0.00  0.00    +0.000 C 
ATOM      2 CL   UNL     1      -5.276  12.048  20.051  0.00  0.00    +0.000 Cl
ATOM      3  C   UNL     1      -2.669  12.136  19.321  0.00  0.00    +0.000 C 
ENDROOT
BRANCH   3   4
ATOM      4  N   UNL     1      -1.319  12.512  19.443  0.00  0.00    +0.000 N 
ATOM      5  C   UNL     1      -0.446  11.608  20.240  0.00  0.00    +0.000 C 
ATOM      6  C   UNL     1       0.829  12.326  20.688  0.00  0.00    +0.000 C 
ATOM      7  C   UNL     1       1.577  12.940  19.509  0.00  0.00    +0.000 C 
ATOM      8  C   UNL     1       0.639  13.812  18.688  0.00  0.00    +0.000 C 
ATOM      9  C   UNL     1      -0.596  13.029  18.261  0.00  0.00    +0.000 C 
ENDBRANCH   3   4
BRANCH   3  10
ATOM     10  N   UNL     1      -2.990  11.285  18.258  0.00  0.00    +0.000 N 
ATOM     11  C   UNL     1      -2.558   9.890  18.180  0.00  0.00    +0.000 C 
ATOM     12  C   UNL     1      -1.952   9.655  16.796  0.00  0.00    +0.000 C 
ATOM     13  C   UNL     1      -2.923  10.050  15.677  0.00  0.00    +0.000 C 
ATOM     14  C   UNL     1      -3.499  11.452  15.884  0.00  0.00    +0.000 C 
ATOM     15  C   UNL     1      -4.048  11.625  17.301  0.00  0.00    +0.000 C 
ENDBRANCH   3  10
BRANCH   1  16
ATOM     16  P   UNL     1      -3.332  14.025  21.289  0.00  0.00    +0.000 P 
ATOM     17  O   UNL     1      -2.472  15.179  20.810  0.00  0.00    +0.000 OA
BRANCH  16  19
ATOM     18  C   UNL     1      -2.747  12.141  23.134  0.00  0.00    +0.000 C 
ATOM     19  N   UNL     1      -2.727  13.559  22.802  0.00  0.00    +0.000 NA
ATOM     20  C   UNL     1      -1.392  14.104  23.094  0.00  0.00    +0.000 C 
ENDBRANCH  16  19
BRANCH  16  21
ATOM     21  N   UNL     1      -4.847  14.580  21.778  0.00  0.00    +0.000 NA
ATOM     22  C   UNL     1      -4.966  15.010  23.164  0.00  0.00    +0.000 C 
ATOM     23  C   UNL     1      -5.558  15.508  20.906  0.00  0.00    +0.000 C 
ENDBRANCH  16  21
ENDBRANCH   1  16
TORSDOF 5
ENDMDL
MODEL 7
REMARK VINA RESULT:      -5.3      7.355      9.956
REMARK  Name = 
REMARK  9 active torsions:
REMARK  status: ('A' for Active; 'I' for Inactive)
REMARK    1  A    between atoms: C_1  and  N_2
REMARK    2  A    between atoms: N_2  and  C_3
REMARK    3  A    between atoms: N_2  and  P_4
REMARK    4  A    between atoms: P_4  and  C_6
REMARK    5  A    between atoms: P_4  and  N_21
REMARK    6  A    between atoms: C_8  and  N_9
REMARK    7  A    between atoms: C_8  and  N_15
REMARK    8  A    between atoms: N_21  and  C_22
REMARK    9  A    between atoms: N_21  and  C_23
REMARK                            x       y       z     vdW  Elec       q    Type
REMARK                         _______ _______ _______ _____ _____    ______ ____
ROOT
ATOM      1  C   UNL     1      -0.408  13.782  21.616  0.00  0.00    +0.000 C 
ATOM      2 CL   UNL     1      -1.213  15.318  21.919  0.00  0.00    +0.000 Cl
ATOM      3  C   UNL     1      -1.100  12.616  21.761  0.00  0.00    +0.000 C 
ENDROOT
BRANCH   3   4
ATOM      4  N   UNL     1      -0.467  11.369  21.610  0.00  0.00    +0.000 N 
ATOM      5  C   UNL     1      -0.482  10.467  22.792  0.00  0.00    +0.000 C 
ATOM      6  C   UNL     1       0.598   9.389  22.677  0.00  0.00    +0.000 C 
ATOM      7  C   UNL     1       0.484   8.610  21.371  0.00  0.00    +0.000 C 
ATOM      8  C   UNL     1       0.447   9.569  20.189  0.00  0.00    +0.000 C 
ATOM      9  C   UNL     1      -0.661  10.600  20.362  0.00  0.00    +0.000 C 
ENDBRANCH   3   4
BRANCH   3  10
ATOM     10  N   UNL     1      -2.476  12.595  22.012  0.00  0.00    +0.000 N 
ATOM     11  C   UNL     1      -3.491  12.634  20.959  0.00  0.00    +0.000 C 
ATOM     12  C   UNL     1      -4.514  13.711  21.321  0.00  0.00    +0.000 C 
ATOM     13  C   UNL     1      -5.103  13.488  22.719  0.00  0.00    +0.000 C 
ATOM     14  C   UNL     1      -4.016  13.269  23.773  0.00  0.00    +0.000 C 
ATOM     15  C   UNL     1      -3.008  12.210  23.323  0.00  0.00    +0.000 C 
ENDBRANCH   3  10
BRANCH   1  16
ATOM     16  P   UNL     1       1.256  13.874  20.899  0.00  0.00    +0.000 P 
ATOM     17  O   UNL     1       2.311  12.893  21.373  0.00  0.00    +0.000 OA
BRANCH  16  19
ATOM     18  C   UNL     1       2.480  15.840  22.290  0.00  0.00    +0.000 C 
ATOM     19  N   UNL     1       1.943  15.420  21.003  0.00  0.00    +0.000 NA
ATOM     20  C   UNL     1       2.940  15.691  19.954  0.00  0.00    +0.000 C 
ENDBRANCH  16  19
BRANCH  16  21
ATOM     21  N   UNL     1       1.076  13.786  19.225  0.00  0.00    +0.000 NA
ATOM     22  C   UNL     1       1.724  12.665  18.559  0.00  0.00    +0.000 C 
ATOM     23  C   UNL     1      -0.251  14.003  18.660  0.00  0.00    +0.000 C 
ENDBRANCH  16  21
ENDBRANCH   1  16
TORSDOF 5
ENDMDL
MODEL 8
REMARK VINA RESULT:      -5.3      9.380     11.360
REMARK  Name = 
REMARK  9 active torsions:
REMARK  status: ('A' for Active; 'I' for Inactive)
REMARK    1  A    between atoms: C_1  and  N_2
REMARK    2  A    between atoms: N_2  and  C_3
REMARK    3  A    between atoms: N_2  and  P_4
REMARK    4  A    between atoms: P_4  and  C_6
REMARK    5  A    between atoms: P_4  and  N_21
REMARK    6  A    between atoms: C_8  and  N_9
REMARK    7  A    between atoms: C_8  and  N_15
REMARK    8  A    between atoms: N_21  and  C_22
REMARK    9  A    between atoms: N_21  and  C_23
REMARK                            x       y       z     vdW  Elec       q    Type
REMARK                         _______ _______ _______ _____ _____    ______ ____
ROOT
ATOM      1  C   UNL     1       8.733  14.106  20.847  0.00  0.00    +0.000 C 
ATOM      2 CL   UNL     1      10.310  13.370  21.121  0.00  0.00    +0.000 Cl
ATOM      3  C   UNL     1       8.358  14.448  19.581  0.00  0.00    +0.000 C 
ENDROOT
BRANCH   3   4
ATOM      4  N   UNL     1       7.144  15.113  19.337  0.00  0.00    +0.000 N 
ATOM      5  C   UNL     1       7.166  16.597  19.436  0.00  0.00    +0.000 C 
ATOM      6  C   UNL     1       5.754  17.159  19.614  0.00  0.00    +0.000 C 
ATOM      7  C   UNL     1       4.811  16.680  18.516  0.00  0.00    +0.000 C 
ATOM      8  C   UNL     1       4.857  15.163  18.408  0.00  0.00    +0.000 C 
ATOM      9  C   UNL     1       6.287  14.677  18.213  0.00  0.00    +0.000 C 
ENDBRANCH   3   4
BRANCH   3  10
ATOM     10  N   UNL     1       9.126  14.110  18.462  0.00  0.00    +0.000 N 
ATOM     11  C   UNL     1       9.008  12.834  17.754  0.00  0.00    +0.000 C 
ATOM     12  C   UNL     1      10.412  12.257  17.573  0.00  0.00    +0.000 C 
ATOM     13  C   UNL     1      11.349  13.250  16.876  0.00  0.00    +0.000 C 
ATOM     14  C   UNL     1      11.314  14.632  17.531  0.00  0.00    +0.000 C 
ATOM     15  C   UNL     1       9.879  15.124  17.717  0.00  0.00    +0.000 C 
ENDBRANCH   3  10
BRANCH   1  16
ATOM     16  P   UNL     1       7.609  14.150  22.270  0.00  0.00    +0.000 P 
ATOM     17  O   UNL     1       6.135  13.874  22.045  0.00  0.00    +0.000 OA
BRANCH  16  19
ATOM     18  C   UNL     1       8.784  16.517  22.830  0.00  0.00    +0.000 C 
ATOM     19  N   UNL     1       7.707  15.592  23.155  0.00  0.00    +0.000 NA
ATOM     20  C   UNL     1       6.437  16.333  23.213  0.00  0.00    +0.000 C 
ENDBRANCH  16  19
BRANCH  16  21
ATOM     21  N   UNL     1       8.238  13.097  23.427  0.00  0.00    +0.000 NA
ATOM     22  C   UNL     1       8.144  13.524  24.815  0.00  0.00    +0.000 C 
ATOM     23  C   UNL     1       7.915  11.679  23.318  0.00  0.00    +0.000 C 
ENDBRANCH  16  21
ENDBRANCH   1  16
TORSDOF 5
ENDMDL
MODEL 9
REMARK VINA RESULT:      -5.3      1.832      4.533
REMARK  Name = 
REMARK  9 active torsions:
REMARK  status: ('A' for Active; 'I' for Inactive)
REMARK    1  A    between atoms: C_1  and  N_2
REMARK    2  A    between atoms: N_2  and  C_3
REMARK    3  A    between atoms: N_2  and  P_4
REMARK    4  A    between atoms: P_4  and  C_6
REMARK    5  A    between atoms: P_4  and  N_21
REMARK    6  A    between atoms: C_8  and  N_9
REMARK    7  A    between atoms: C_8  and  N_15
REMARK    8  A    between atoms: N_21  and  C_22
REMARK    9  A    between atoms: N_21  and  C_23
REMARK                            x       y       z     vdW  Elec       q    Type
REMARK                         _______ _______ _______ _____ _____    ______ ____
ROOT
ATOM      1  C   UNL     1       3.882   6.261  18.013  0.00  0.00    +0.000 C 
ATOM      2 CL   UNL     1       4.431   7.771  17.293  0.00  0.00    +0.000 Cl
ATOM      3  C   UNL     1       2.760   6.251  18.788  0.00  0.00    +0.000 C 
ENDROOT
BRANCH   3   4
ATOM      4  N   UNL     1       2.341   5.081  19.447  0.00  0.00    +0.000 N 
ATOM      5  C   UNL     1       2.263   5.144  20.931  0.00  0.00    +0.000 C 
ATOM      6  C   UNL     1       2.260   3.741  21.543  0.00  0.00    +0.000 C 
ATOM      7  C   UNL     1       1.155   2.870  20.956  0.00  0.00    +0.000 C 
ATOM      8  C   UNL     1       1.233   2.875  19.436  0.00  0.00    +0.000 C 
ATOM      9  C   UNL     1       1.212   4.299  18.896  0.00  0.00    +0.000 C 
ENDBRANCH   3   4
BRANCH   3  10
ATOM     10  N   UNL     1       1.941   7.377  18.925  0.00  0.00    +0.000 N 
ATOM     11  C   UNL     1       1.343   8.085  17.793  0.00  0.00    +0.000 C 
ATOM     12  C   UNL     1       1.622   9.579  17.963  0.00  0.00    +0.000 C 
ATOM     13  C   UNL     1       1.139  10.096  19.323  0.00  0.00    +0.000 C 
ATOM     14  C   UNL     1       1.634   9.225  20.479  0.00  0.00    +0.000 C 
ATOM     15  C   UNL     1       1.358   7.744  20.220  0.00  0.00    +0.000 C 
ENDBRANCH   3  10
BRANCH   1  16
ATOM     16  P   UNL     1       4.740   4.756  17.475  0.00  0.00    +0.000 P 
ATOM     17  O   UNL     1       3.921   3.609  16.913  0.00  0.00    +0.000 OA
BRANCH  16  19
ATOM     18  C   UNL     1       6.449   5.022  19.550  0.00  0.00    +0.000 C 
ATOM     19  N   UNL     1       5.748   4.099  18.669  0.00  0.00    +0.000 NA
ATOM     20  C   UNL     1       5.096   3.058  19.481  0.00  0.00    +0.000 C 
ENDBRANCH  16  19
BRANCH  16  21
ATOM     21  N   UNL     1       5.925   5.232  16.374  0.00  0.00    +0.000 NA
ATOM     22  C   UNL     1       7.203   4.541  16.455  0.00  0.00    +0.000 C 
ATOM     23  C   UNL     1       5.540   5.407  14.978  0.00  0.00    +0.000 C 
ENDBRANCH  16  21
ENDBRANCH   1  16
TORSDOF 5
ENDMDL
