MODEL 1
REMARK VINA RESULT:      -8.3      0.000      0.000
REMARK  Name = 
REMARK  7 active torsions:
REMARK  status: ('A' for Active; 'I' for Inactive)
REMARK    1  A    between atoms: C_1  and  C_2
REMARK    2  A    between atoms: C_3  and  N_4
REMARK    3  A    between atoms: N_4  and  C_5
REMARK    4  A    between atoms: C_7  and  N_8
REMARK    5  A    between atoms: C_20  and  N_21
REMARK    6  A    between atoms: N_26  and  C_27
REMARK    7  A    between atoms: N_33  and  C_34
REMARK                            x       y       z     vdW  Elec       q    Type
REMARK                         _______ _______ _______ _____ _____    ______ ____
ROOT
ATOM      1  C   UNL     1       2.942   5.834  18.618  0.00  0.00    +0.000 A 
ATOM      2  C   UNL     1       4.366   5.827  18.697  0.00  0.00    +0.000 A 
ATOM      3  C   UNL     1       5.107   4.631  18.750  0.00  0.00    +0.000 A 
ATOM      4  C   UNL     1       4.437   3.741  19.624  0.00  0.00    +0.000 A 
ATOM      5  N   UNL     1       4.888   2.753  20.408  0.00  0.00    +0.000 NA
ATOM      6  O   UNL     1       3.764   2.105  20.883  0.00  0.00    +0.000 OA
ATOM      7  N   UNL     1       2.606   2.633  20.339  0.00  0.00    +0.000 NA
ATOM      8  C   UNL     1       2.985   3.692  19.611  0.00  0.00    +0.000 A 
ATOM      9  C   UNL     1       2.252   4.614  18.823  0.00  0.00    +0.000 A 
ENDROOT
BRANCH   3  10
ATOM     10  N   UNL     1       5.912   4.220  17.675  0.00  0.00    +0.000 N 
ATOM     11  C   UNL     1       7.279   4.738  17.488  0.00  0.00    +0.000 C 
ATOM     12  C   UNL     1       7.386   5.961  16.562  0.00  0.00    +0.000 C 
ATOM     13  C   UNL     1       7.153   5.734  15.069  0.00  0.00    +0.000 C 
ATOM     14  C   UNL     1       5.853   5.019  14.729  0.00  0.00    +0.000 C 
ATOM     15  C   UNL     1       5.871   3.572  15.217  0.00  0.00    +0.000 C 
ATOM     16  C   UNL     1       5.310   3.382  16.625  0.00  0.00    +0.000 C 
ENDBRANCH   3  10
BRANCH   9  17
ATOM     17  N   UNL     1       1.646   3.941  17.676  0.00  0.00    +0.000 N 
ATOM     18  O   UNL     1       1.987   2.768  17.416  0.00  0.00    +0.000 OA
ATOM     19  O   UNL     1       0.757   4.538  17.054  0.00  0.00    +0.000 OA
ENDBRANCH   9  17
BRANCH   1  20
ATOM     20  N   UNL     1       2.344   7.070  18.201  0.00  0.00    +0.000 N 
ATOM     21  H   UNL     1       2.944   7.500  17.487  0.00  0.00    +0.000 HD
BRANCH  20  24
ATOM     22  C   UNL     1       1.159   6.932  21.192  0.00  0.00    +0.000 C 
ATOM     23  C   UNL     1       1.482   8.113  20.331  0.00  0.00    +0.000 A 
ATOM     24  C   UNL     1       1.920   8.068  19.058  0.00  0.00    +0.000 A 
ATOM     25  C   UNL     1       1.562   9.446  18.508  0.00  0.00    +0.000 A 
ATOM     26  O   UNL     1       1.690   9.733  17.325  0.00  0.00    +0.000 OA
ATOM     27  N   UNL     1       1.117  10.199  19.590  0.00  0.00    +0.000 N 
ATOM     28  N   UNL     1       1.156   9.406  20.756  0.00  0.00    +0.000 N 
ATOM     29  C   UNL     1       0.162   9.644  21.807  0.00  0.00    +0.000 C 
BRANCH  27  30
ATOM     30  C   UNL     1       0.823  11.573  19.622  0.00  0.00    +0.000 A 
ATOM     31  C   UNL     1       1.737  12.484  20.165  0.00  0.00    +0.000 A 
ATOM     32  C   UNL     1       1.520  13.859  20.026  0.00  0.00    +0.000 A 
ATOM     33  C   UNL     1       0.372  14.331  19.388  0.00  0.00    +0.000 A 
ATOM     34  C   UNL     1      -0.575  13.428  18.907  0.00  0.00    +0.000 A 
ATOM     35  C   UNL     1      -0.348  12.061  19.025  0.00  0.00    +0.000 A 
ENDBRANCH  27  30
ENDBRANCH  20  24
ENDBRANCH   1  20
TORSDOF 5
ENDMDL
MODEL 2
REMARK VINA RESULT:      -7.6      3.152      9.504
REMARK  Name = 
REMARK  7 active torsions:
REMARK  status: ('A' for Active; 'I' for Inactive)
REMARK    1  A    between atoms: C_1  and  C_2
REMARK    2  A    between atoms: C_3  and  N_4
REMARK    3  A    between atoms: N_4  and  C_5
REMARK    4  A    between atoms: C_7  and  N_8
REMARK    5  A    between atoms: C_20  and  N_21
REMARK    6  A    between atoms: N_26  and  C_27
REMARK    7  A    between atoms: N_33  and  C_34
REMARK                            x       y       z     vdW  Elec       q    Type
REMARK                         _______ _______ _______ _____ _____    ______ ____
ROOT
ATOM      1  C   UNL     1       0.548  11.168  19.771  0.00  0.00    +0.000 A 
ATOM      2  C   UNL     1      -0.822  10.791  19.890  0.00  0.00    +0.000 A 
ATOM      3  C   UNL     1      -1.808  11.688  20.343  0.00  0.00    +0.000 A 
ATOM      4  C   UNL     1      -1.271  12.410  21.436  0.00  0.00    +0.000 A 
ATOM      5  N   UNL     1      -1.850  12.968  22.508  0.00  0.00    +0.000 NA
ATOM      6  O   UNL     1      -0.861  13.703  23.132  0.00  0.00    +0.000 OA
ATOM      7  N   UNL     1       0.323  13.674  22.414  0.00  0.00    +0.000 NA
ATOM      8  C   UNL     1       0.121  12.825  21.398  0.00  0.00    +0.000 A 
ATOM      9  C   UNL     1       0.958  12.401  20.336  0.00  0.00    +0.000 A 
ENDROOT
BRANCH   3  10
ATOM     10  N   UNL     1      -2.796  12.189  19.480  0.00  0.00    +0.000 N 
ATOM     11  C   UNL     1      -3.878  13.064  19.965  0.00  0.00    +0.000 C 
ATOM     12  C   UNL     1      -5.174  12.335  20.356  0.00  0.00    +0.000 C 
ATOM     13  C   UNL     1      -6.015  11.743  19.227  0.00  0.00    +0.000 C 
ATOM     14  C   UNL     1      -5.252  10.834  18.274  0.00  0.00    +0.000 C 
ATOM     15  C   UNL     1      -4.227  11.619  17.458  0.00  0.00    +0.000 C 
ATOM     16  C   UNL     1      -2.842  11.688  18.097  0.00  0.00    +0.000 C 
ENDBRANCH   3  10
BRANCH   9  17
ATOM     17  N   UNL     1       1.267  13.519  19.446  0.00  0.00    +0.000 N 
ATOM     18  O   UNL     1       2.429  13.976  19.435  0.00  0.00    +0.000 OA
ATOM     19  O   UNL     1       0.379  13.915  18.680  0.00  0.00    +0.000 OA
ENDBRANCH   9  17
BRANCH   1  20
ATOM     20  N   UNL     1       1.366  10.308  18.964  0.00  0.00    +0.000 N 
ATOM     21  H   UNL     1       1.090  10.420  17.981  0.00  0.00    +0.000 HD
BRANCH  20  24
ATOM     22  C   UNL     1       1.273   8.598  21.691  0.00  0.00    +0.000 C 
ATOM     23  C   UNL     1       1.478   8.155  20.276  0.00  0.00    +0.000 A 
ATOM     24  C   UNL     1       1.564   8.960  19.200  0.00  0.00    +0.000 A 
ATOM     25  C   UNL     1       2.298   8.105  18.171  0.00  0.00    +0.000 A 
ATOM     26  O   UNL     1       2.677   8.553  17.097  0.00  0.00    +0.000 OA
ATOM     27  N   UNL     1       2.392   6.828  18.715  0.00  0.00    +0.000 N 
ATOM     28  N   UNL     1       1.794   6.821  19.993  0.00  0.00    +0.000 N 
ATOM     29  C   UNL     1       2.329   5.921  21.020  0.00  0.00    +0.000 C 
BRANCH  27  30
ATOM     30  C   UNL     1       2.843   5.653  18.087  0.00  0.00    +0.000 A 
ATOM     31  C   UNL     1       4.206   5.466  17.824  0.00  0.00    +0.000 A 
ATOM     32  C   UNL     1       4.666   4.225  17.372  0.00  0.00    +0.000 A 
ATOM     33  C   UNL     1       3.768   3.182  17.139  0.00  0.00    +0.000 A 
ATOM     34  C   UNL     1       2.403   3.385  17.334  0.00  0.00    +0.000 A 
ATOM     35  C   UNL     1       1.948   4.613  17.805  0.00  0.00    +0.000 A 
ENDBRANCH  27  30
ENDBRANCH  20  24
ENDBRANCH   1  20
TORSDOF 5
ENDMDL
MODEL 3
REMARK VINA RESULT:      -7.5      0.850      1.130
REMARK  Name = 
REMARK  7 active torsions:
REMARK  status: ('A' for Active; 'I' for Inactive)
REMARK    1  A    between atoms: C_1  and  C_2
REMARK    2  A    between atoms: C_3  and  N_4
REMARK    3  A    between atoms: N_4  and  C_5
REMARK    4  A    between atoms: C_7  and  N_8
REMARK    5  A    between atoms: C_20  and  N_21
REMARK    6  A    between atoms: N_26  and  C_27
REMARK    7  A    between atoms: N_33  and  C_34
REMARK                            x       y       z     vdW  Elec       q    Type
REMARK                         _______ _______ _______ _____ _____    ______ ____
ROOT
ATOM      1  C   UNL     1       2.633   6.256  18.724  0.00  0.00    +0.000 A 
ATOM      2  C   UNL     1       3.992   6.638  18.921  0.00  0.00    +0.000 A 
ATOM      3  C   UNL     1       5.046   5.706  18.877  0.00  0.00    +0.000 A 
ATOM      4  C   UNL     1       4.628   4.543  19.567  0.00  0.00    +0.000 A 
ATOM      5  N   UNL     1       5.313   3.615  20.249  0.00  0.00    +0.000 NA
ATOM      6  O   UNL     1       4.407   2.613  20.538  0.00  0.00    +0.000 OA
ATOM      7  N   UNL     1       3.169   2.869  19.974  0.00  0.00    +0.000 NA
ATOM      8  C   UNL     1       3.255   4.089  19.426  0.00  0.00    +0.000 A 
ATOM      9  C   UNL     1       2.319   4.874  18.709  0.00  0.00    +0.000 A 
ENDROOT
BRANCH   3  10
ATOM     10  N   UNL     1       5.980   5.704  17.828  0.00  0.00    +0.000 N 
ATOM     11  C   UNL     1       5.918   6.688  16.733  0.00  0.00    +0.000 C 
ATOM     12  C   UNL     1       5.141   6.224  15.490  0.00  0.00    +0.000 C 
ATOM     13  C   UNL     1       5.784   5.143  14.624  0.00  0.00    +0.000 C 
ATOM     14  C   UNL     1       6.218   3.895  15.381  0.00  0.00    +0.000 C 
ATOM     15  C   UNL     1       7.374   4.197  16.331  0.00  0.00    +0.000 C 
ATOM     16  C   UNL     1       6.938   4.590  17.740  0.00  0.00    +0.000 C 
ENDBRANCH   3  10
BRANCH   9  17
ATOM     17  N   UNL     1       1.983   4.239  17.436  0.00  0.00    +0.000 N 
ATOM     18  O   UNL     1       2.861   3.575  16.845  0.00  0.00    +0.000 OA
ATOM     19  O   UNL     1       0.815   4.320  17.035  0.00  0.00    +0.000 OA
ENDBRANCH   9  17
BRANCH   1  20
ATOM     20  N   UNL     1       1.719   7.322  18.425  0.00  0.00    +0.000 N 
ATOM     21  H   UNL     1       1.894   7.645  17.467  0.00  0.00    +0.000 HD
BRANCH  20  24
ATOM     22  C   UNL     1       0.667   7.602  21.456  0.00  0.00    +0.000 C 
ATOM     23  C   UNL     1       1.158   8.644  20.501  0.00  0.00    +0.000 A 
ATOM     24  C   UNL     1       1.522   8.435  19.221  0.00  0.00    +0.000 A 
ATOM     25  C   UNL     1       1.394   9.816  18.583  0.00  0.00    +0.000 A 
ATOM     26  O   UNL     1       1.518   9.995  17.378  0.00  0.00    +0.000 OA
ATOM     27  N   UNL     1       1.143  10.708  19.620  0.00  0.00    +0.000 N 
ATOM     28  N   UNL     1       1.092  10.000  20.840  0.00  0.00    +0.000 N 
ATOM     29  C   UNL     1       0.206  10.486  21.903  0.00  0.00    +0.000 C 
BRANCH  27  30
ATOM     30  C   UNL     1       1.103  12.112  19.561  0.00  0.00    +0.000 A 
ATOM     31  C   UNL     1       2.194  12.874  20.000  0.00  0.00    +0.000 A 
ATOM     32  C   UNL     1       2.221  14.252  19.767  0.00  0.00    +0.000 A 
ATOM     33  C   UNL     1       1.147  14.884  19.139  0.00  0.00    +0.000 A 
ATOM     34  C   UNL     1       0.029  14.140  18.762  0.00  0.00    +0.000 A 
ATOM     35  C   UNL     1       0.011  12.765  18.973  0.00  0.00    +0.000 A 
ENDBRANCH  27  30
ENDBRANCH  20  24
ENDBRANCH   1  20
TORSDOF 5
ENDMDL
MODEL 4
REMARK VINA RESULT:      -7.5      5.497     11.714
REMARK  Name = 
REMARK  7 active torsions:
REMARK  status: ('A' for Active; 'I' for Inactive)
REMARK    1  A    between atoms: C_1  and  C_2
REMARK    2  A    between atoms: C_3  and  N_4
REMARK    3  A    between atoms: N_4  and  C_5
REMARK    4  A    between atoms: C_7  and  N_8
REMARK    5  A    between atoms: C_20  and  N_21
REMARK    6  A    between atoms: N_26  and  C_27
REMARK    7  A    between atoms: N_33  and  C_34
REMARK                            x       y       z     vdW  Elec       q    Type
REMARK                         _______ _______ _______ _____ _____    ______ ____
ROOT
ATOM      1  C   UNL     1      -3.787  12.967  20.454  0.00  0.00    +0.000 A 
ATOM      2  C   UNL     1      -5.165  12.952  20.086  0.00  0.00    +0.000 A 
ATOM      3  C   UNL     1      -6.182  13.340  20.978  0.00  0.00    +0.000 A 
ATOM      4  C   UNL     1      -5.879  12.796  22.249  0.00  0.00    +0.000 A 
ATOM      5  N   UNL     1      -6.663  12.415  23.267  0.00  0.00    +0.000 NA
ATOM      6  O   UNL     1      -5.810  12.146  24.319  0.00  0.00    +0.000 OA
ATOM      7  N   UNL     1      -4.495  12.431  23.994  0.00  0.00    +0.000 NA
ATOM      8  C   UNL     1      -4.497  12.767  22.697  0.00  0.00    +0.000 A 
ATOM      9  C   UNL     1      -3.459  13.163  21.818  0.00  0.00    +0.000 A 
ENDROOT
BRANCH   3  10
ATOM     10  N   UNL     1      -6.916  14.522  20.783  0.00  0.00    +0.000 N 
ATOM     11  C   UNL     1      -7.609  14.804  19.514  0.00  0.00    +0.000 C 
ATOM     12  C   UNL     1      -6.797  15.631  18.503  0.00  0.00    +0.000 C 
ATOM     13  C   UNL     1      -6.566  17.106  18.826  0.00  0.00    +0.000 C 
ATOM     14  C   UNL     1      -5.979  17.370  20.206  0.00  0.00    +0.000 C 
ATOM     15  C   UNL     1      -6.970  17.008  21.309  0.00  0.00    +0.000 C 
ATOM     16  C   UNL     1      -6.846  15.571  21.812  0.00  0.00    +0.000 C 
ENDBRANCH   3  10
BRANCH   9  17
ATOM     17  N   UNL     1      -2.895  14.447  22.233  0.00  0.00    +0.000 N 
ATOM     18  O   UNL     1      -1.798  14.457  22.830  0.00  0.00    +0.000 OA
ATOM     19  O   UNL     1      -3.494  15.479  21.904  0.00  0.00    +0.000 OA
ENDBRANCH   9  17
BRANCH   1  20
ATOM     20  N   UNL     1      -2.849  12.913  19.370  0.00  0.00    +0.000 N 
ATOM     21  H   UNL     1      -3.298  12.456  18.569  0.00  0.00    +0.000 HD
BRANCH  20  24
ATOM     22  C   UNL     1      -0.031  14.433  19.720  0.00  0.00    +0.000 C 
ATOM     23  C   UNL     1      -0.345  12.970  19.685  0.00  0.00    +0.000 A 
ATOM     24  C   UNL     1      -1.559  12.427  19.469  0.00  0.00    +0.000 A 
ATOM     25  C   UNL     1      -1.237  11.012  18.994  0.00  0.00    +0.000 A 
ATOM     26  O   UNL     1      -2.099  10.251  18.573  0.00  0.00    +0.000 OA
ATOM     27  N   UNL     1       0.133  10.841  19.164  0.00  0.00    +0.000 N 
ATOM     28  N   UNL     1       0.688  12.027  19.689  0.00  0.00    +0.000 N 
ATOM     29  C   UNL     1       2.062  12.387  19.324  0.00  0.00    +0.000 C 
BRANCH  27  30
ATOM     30  C   UNL     1       0.879   9.659  19.018  0.00  0.00    +0.000 A 
ATOM     31  C   UNL     1       1.493   9.352  17.796  0.00  0.00    +0.000 A 
ATOM     32  C   UNL     1       2.382   8.275  17.713  0.00  0.00    +0.000 A 
ATOM     33  C   UNL     1       2.628   7.475  18.829  0.00  0.00    +0.000 A 
ATOM     34  C   UNL     1       1.967   7.735  20.029  0.00  0.00    +0.000 A 
ATOM     35  C   UNL     1       1.100   8.819  20.118  0.00  0.00    +0.000 A 
ENDBRANCH  27  30
ENDBRANCH  20  24
ENDBRANCH   1  20
TORSDOF 5
ENDMDL
MODEL 5
REMARK VINA RESULT:      -7.4      5.330     11.633
REMARK  Name = 
REMARK  7 active torsions:
REMARK  status: ('A' for Active; 'I' for Inactive)
REMARK    1  A    between atoms: C_1  and  C_2
REMARK    2  A    between atoms: C_3  and  N_4
REMARK    3  A    between atoms: N_4  and  C_5
REMARK    4  A    between atoms: C_7  and  N_8
REMARK    5  A    between atoms: C_20  and  N_21
REMARK    6  A    between atoms: N_26  and  C_27
REMARK    7  A    between atoms: N_33  and  C_34
REMARK                            x       y       z     vdW  Elec       q    Type
REMARK                         _______ _______ _______ _____ _____    ______ ____
ROOT
ATOM      1  C   UNL     1      -3.503  12.986  20.499  0.00  0.00    +0.000 A 
ATOM      2  C   UNL     1      -4.887  13.237  20.267  0.00  0.00    +0.000 A 
ATOM      3  C   UNL     1      -5.747  13.689  21.287  0.00  0.00    +0.000 A 
ATOM      4  C   UNL     1      -5.440  12.968  22.466  0.00  0.00    +0.000 A 
ATOM      5  N   UNL     1      -6.193  12.614  23.517  0.00  0.00    +0.000 NA
ATOM      6  O   UNL     1      -5.318  12.096  24.451  0.00  0.00    +0.000 OA
ATOM      7  N   UNL     1      -4.004  12.194  24.026  0.00  0.00    +0.000 NA
ATOM      8  C   UNL     1      -4.053  12.665  22.772  0.00  0.00    +0.000 A 
ATOM      9  C   UNL     1      -3.036  12.977  21.836  0.00  0.00    +0.000 A 
ENDROOT
BRANCH   3  10
ATOM     10  N   UNL     1      -6.277  14.989  21.275  0.00  0.00    +0.000 N 
ATOM     11  C   UNL     1      -7.682  15.250  20.913  0.00  0.00    +0.000 C 
ATOM     12  C   UNL     1      -7.916  15.585  19.431  0.00  0.00    +0.000 C 
ATOM     13  C   UNL     1      -7.425  16.943  18.932  0.00  0.00    +0.000 C 
ATOM     14  C   UNL     1      -5.965  17.244  19.241  0.00  0.00    +0.000 C 
ATOM     15  C   UNL     1      -5.739  17.415  20.741  0.00  0.00    +0.000 C 
ATOM     16  C   UNL     1      -5.361  16.124  21.466  0.00  0.00    +0.000 C 
ENDBRANCH   3  10
BRANCH   9  17
ATOM     17  N   UNL     1      -2.226  14.098  22.311  0.00  0.00    +0.000 N 
ATOM     18  O   UNL     1      -2.459  15.240  21.863  0.00  0.00    +0.000 OA
ATOM     19  O   UNL     1      -1.393  13.878  23.200  0.00  0.00    +0.000 OA
ENDBRANCH   9  17
BRANCH   1  20
ATOM     20  N   UNL     1      -2.679  12.895  19.327  0.00  0.00    +0.000 N 
ATOM     21  H   UNL     1      -3.183  12.358  18.612  0.00  0.00    +0.000 HD
BRANCH  20  24
ATOM     22  C   UNL     1       0.064  14.544  18.967  0.00  0.00    +0.000 C 
ATOM     23  C   UNL     1      -0.163  13.092  19.251  0.00  0.00    +0.000 A 
ATOM     24  C   UNL     1      -1.361  12.479  19.323  0.00  0.00    +0.000 A 
ATOM     25  C   UNL     1      -1.025  11.010  19.076  0.00  0.00    +0.000 A 
ATOM     26  O   UNL     1      -1.890  10.155  18.936  0.00  0.00    +0.000 OA
ATOM     27  N   UNL     1       0.363  10.919  19.070  0.00  0.00    +0.000 N 
ATOM     28  N   UNL     1       0.915  12.201  19.277  0.00  0.00    +0.000 N 
ATOM     29  C   UNL     1       2.201  12.528  18.652  0.00  0.00    +0.000 C 
BRANCH  27  30
ATOM     30  C   UNL     1       1.152   9.755  19.036  0.00  0.00    +0.000 A 
ATOM     31  C   UNL     1       1.298   8.962  20.181  0.00  0.00    +0.000 A 
ATOM     32  C   UNL     1       1.927   7.716  20.091  0.00  0.00    +0.000 A 
ATOM     33  C   UNL     1       2.451   7.276  18.875  0.00  0.00    +0.000 A 
ATOM     34  C   UNL     1       2.368   8.092  17.748  0.00  0.00    +0.000 A 
ATOM     35  C   UNL     1       1.723   9.321  17.831  0.00  0.00    +0.000 A 
ENDBRANCH  27  30
ENDBRANCH  20  24
ENDBRANCH   1  20
TORSDOF 5
ENDMDL
MODEL 6
REMARK VINA RESULT:      -7.4      5.219     11.418
REMARK  Name = 
REMARK  7 active torsions:
REMARK  status: ('A' for Active; 'I' for Inactive)
REMARK    1  A    between atoms: C_1  and  C_2
REMARK    2  A    between atoms: C_3  and  N_4
REMARK    3  A    between atoms: N_4  and  C_5
REMARK    4  A    between atoms: C_7  and  N_8
REMARK    5  A    between atoms: C_20  and  N_21
REMARK    6  A    between atoms: N_26  and  C_27
REMARK    7  A    between atoms: N_33  and  C_34
REMARK                            x       y       z     vdW  Elec       q    Type
REMARK                         _______ _______ _______ _____ _____    ______ ____
ROOT
ATOM      1  C   UNL     1      -3.105  13.021  20.382  0.00  0.00    +0.000 A 
ATOM      2  C   UNL     1      -4.480  12.738  20.130  0.00  0.00    +0.000 A 
ATOM      3  C   UNL     1      -5.488  13.028  21.069  0.00  0.00    +0.000 A 
ATOM      4  C   UNL     1      -5.009  12.664  22.350  0.00  0.00    +0.000 A 
ATOM      5  N   UNL     1      -5.644  12.251  23.456  0.00  0.00    +0.000 NA
ATOM      6  O   UNL     1      -4.688  12.228  24.453  0.00  0.00    +0.000 OA
ATOM      7  N   UNL     1      -3.469  12.701  24.000  0.00  0.00    +0.000 NA
ATOM      8  C   UNL     1      -3.617  12.911  22.684  0.00  0.00    +0.000 A 
ATOM      9  C   UNL     1      -2.726  13.395  21.695  0.00  0.00    +0.000 A 
ENDROOT
BRANCH   3  10
ATOM     10  N   UNL     1      -6.430  14.045  20.842  0.00  0.00    +0.000 N 
ATOM     11  C   UNL     1      -7.777  13.752  20.322  0.00  0.00    +0.000 C 
ATOM     12  C   UNL     1      -7.917  13.851  18.794  0.00  0.00    +0.000 C 
ATOM     13  C   UNL     1      -7.865  15.245  18.173  0.00  0.00    +0.000 C 
ATOM     14  C   UNL     1      -6.653  16.076  18.573  0.00  0.00    +0.000 C 
ATOM     15  C   UNL     1      -6.699  16.446  20.053  0.00  0.00    +0.000 C 
ATOM     16  C   UNL     1      -5.997  15.446  20.969  0.00  0.00    +0.000 C 
ENDBRANCH   3  10
BRANCH   9  17
ATOM     17  N   UNL     1      -2.370  14.788  21.959  0.00  0.00    +0.000 N 
ATOM     18  O   UNL     1      -3.061  15.442  22.768  0.00  0.00    +0.000 OA
ATOM     19  O   UNL     1      -1.347  15.238  21.427  0.00  0.00    +0.000 OA
ENDBRANCH   9  17
BRANCH   1  20
ATOM     20  N   UNL     1      -2.246  13.027  19.232  0.00  0.00    +0.000 N 
ATOM     21  H   UNL     1      -2.781  12.694  18.422  0.00  0.00    +0.000 HD
BRANCH  20  24
ATOM     22  C   UNL     1       0.650  14.290  18.610  0.00  0.00    +0.000 C 
ATOM     23  C   UNL     1       0.264  12.899  19.004  0.00  0.00    +0.000 A 
ATOM     24  C   UNL     1      -0.992  12.448  19.183  0.00  0.00    +0.000 A 
ATOM     25  C   UNL     1      -0.856  10.936  19.019  0.00  0.00    +0.000 A 
ATOM     26  O   UNL     1      -1.827  10.191  18.985  0.00  0.00    +0.000 OA
ATOM     27  N   UNL     1       0.507  10.669  18.943  0.00  0.00    +0.000 N 
ATOM     28  N   UNL     1       1.224  11.881  19.032  0.00  0.00    +0.000 N 
ATOM     29  C   UNL     1       2.498  12.004  18.316  0.00  0.00    +0.000 C 
BRANCH  27  30
ATOM     30  C   UNL     1       1.142   9.415  18.945  0.00  0.00    +0.000 A 
ATOM     31  C   UNL     1       1.773   8.935  17.790  0.00  0.00    +0.000 A 
ATOM     32  C   UNL     1       2.558   7.779  17.852  0.00  0.00    +0.000 A 
ATOM     33  C   UNL     1       2.680   7.073  19.049  0.00  0.00    +0.000 A 
ATOM     34  C   UNL     1       1.999   7.508  20.184  0.00  0.00    +0.000 A 
ATOM     35  C   UNL     1       1.237   8.671  20.129  0.00  0.00    +0.000 A 
ENDBRANCH  27  30
ENDBRANCH  20  24
ENDBRANCH   1  20
TORSDOF 5
ENDMDL
MODEL 7
REMARK VINA RESULT:      -7.4      1.723      2.532
REMARK  Name = 
REMARK  7 active torsions:
REMARK  status: ('A' for Active; 'I' for Inactive)
REMARK    1  A    between atoms: C_1  and  C_2
REMARK    2  A    between atoms: C_3  and  N_4
REMARK    3  A    between atoms: N_4  and  C_5
REMARK    4  A    between atoms: C_7  and  N_8
REMARK    5  A    between atoms: C_20  and  N_21
REMARK    6  A    between atoms: N_26  and  C_27
REMARK    7  A    between atoms: N_33  and  C_34
REMARK                            x       y       z     vdW  Elec       q    Type
REMARK                         _______ _______ _______ _____ _____    ______ ____
ROOT
ATOM      1  C   UNL     1       4.274   6.094  18.086  0.00  0.00    +0.000 A 
ATOM      2  C   UNL     1       5.110   6.302  16.950  0.00  0.00    +0.000 A 
ATOM      3  C   UNL     1       6.331   5.621  16.784  0.00  0.00    +0.000 A 
ATOM      4  C   UNL     1       6.989   5.596  18.037  0.00  0.00    +0.000 A 
ATOM      5  N   UNL     1       8.289   5.560  18.362  0.00  0.00    +0.000 NA
ATOM      6  O   UNL     1       8.331   5.354  19.727  0.00  0.00    +0.000 OA
ATOM      7  N   UNL     1       7.064   5.181  20.255  0.00  0.00    +0.000 NA
ATOM      8  C   UNL     1       6.208   5.396  19.246  0.00  0.00    +0.000 A 
ATOM      9  C   UNL     1       4.794   5.354  19.176  0.00  0.00    +0.000 A 
ENDROOT
BRANCH   3  10
ATOM     10  N   UNL     1       6.496   4.642  15.790  0.00  0.00    +0.000 N 
ATOM     11  C   UNL     1       7.707   4.585  14.953  0.00  0.00    +0.000 C 
ATOM     12  C   UNL     1       7.604   5.336  13.615  0.00  0.00    +0.000 C 
ATOM     13  C   UNL     1       6.702   4.733  12.538  0.00  0.00    +0.000 C 
ATOM     14  C   UNL     1       5.284   4.425  12.997  0.00  0.00    +0.000 C 
ATOM     15  C   UNL     1       5.265   3.294  14.022  0.00  0.00    +0.000 C 
ATOM     16  C   UNL     1       5.359   3.764  15.472  0.00  0.00    +0.000 C 
ENDBRANCH   3  10
BRANCH   9  17
ATOM     17  N   UNL     1       4.307   3.995  19.405  0.00  0.00    +0.000 N 
ATOM     18  O   UNL     1       3.122   3.723  19.119  0.00  0.00    +0.000 OA
ATOM     19  O   UNL     1       5.118   3.146  19.800  0.00  0.00    +0.000 OA
ENDBRANCH   9  17
BRANCH   1  20
ATOM     20  N   UNL     1       2.919   6.550  17.957  0.00  0.00    +0.000 N 
ATOM     21  H   UNL     1       2.770   6.868  16.993  0.00  0.00    +0.000 HD
BRANCH  20  24
ATOM     22  C   UNL     1       1.584   6.169  20.864  0.00  0.00    +0.000 C 
ATOM     23  C   UNL     1       1.794   7.407  20.048  0.00  0.00    +0.000 A 
ATOM     24  C   UNL     1       2.310   7.456  18.805  0.00  0.00    +0.000 A 
ATOM     25  C   UNL     1       1.800   8.788  18.259  0.00  0.00    +0.000 A 
ATOM     26  O   UNL     1       1.960   9.122  17.092  0.00  0.00    +0.000 OA
ATOM     27  N   UNL     1       1.192   9.443  19.324  0.00  0.00    +0.000 N 
ATOM     28  N   UNL     1       1.269   8.631  20.476  0.00  0.00    +0.000 N 
ATOM     29  C   UNL     1       0.189   8.703  21.466  0.00  0.00    +0.000 C 
BRANCH  27  30
ATOM     30  C   UNL     1       0.709  10.763  19.364  0.00  0.00    +0.000 A 
ATOM     31  C   UNL     1       1.471  11.782  19.951  0.00  0.00    +0.000 A 
ATOM     32  C   UNL     1       1.071  13.116  19.821  0.00  0.00    +0.000 A 
ATOM     33  C   UNL     1      -0.109  13.437  19.149  0.00  0.00    +0.000 A 
ATOM     34  C   UNL     1      -0.906  12.421  18.623  0.00  0.00    +0.000 A 
ATOM     35  C   UNL     1      -0.497  11.096  18.732  0.00  0.00    +0.000 A 
ENDBRANCH  27  30
ENDBRANCH  20  24
ENDBRANCH   1  20
TORSDOF 5
ENDMDL
MODEL 8
REMARK VINA RESULT:      -7.2      1.565      2.368
REMARK  Name = 
REMARK  7 active torsions:
REMARK  status: ('A' for Active; 'I' for Inactive)
REMARK    1  A    between atoms: C_1  and  C_2
REMARK    2  A    between atoms: C_3  and  N_4
REMARK    3  A    between atoms: N_4  and  C_5
REMARK    4  A    between atoms: C_7  and  N_8
REMARK    5  A    between atoms: C_20  and  N_21
REMARK    6  A    between atoms: N_26  and  C_27
REMARK    7  A    between atoms: N_33  and  C_34
REMARK                            x       y       z     vdW  Elec       q    Type
REMARK                         _______ _______ _______ _____ _____    ______ ____
ROOT
ATOM      1  C   UNL     1       2.502   5.463  20.168  0.00  0.00    +0.000 A 
ATOM      2  C   UNL     1       3.869   5.819  19.974  0.00  0.00    +0.000 A 
ATOM      3  C   UNL     1       4.733   5.058  19.164  0.00  0.00    +0.000 A 
ATOM      4  C   UNL     1       4.485   3.690  19.428  0.00  0.00    +0.000 A 
ATOM      5  N   UNL     1       5.277   2.611  19.364  0.00  0.00    +0.000 NA
ATOM      6  O   UNL     1       4.446   1.522  19.542  0.00  0.00    +0.000 OA
ATOM      7  N   UNL     1       3.120   1.905  19.640  0.00  0.00    +0.000 NA
ATOM      8  C   UNL     1       3.119   3.245  19.644  0.00  0.00    +0.000 A 
ATOM      9  C   UNL     1       2.068   4.192  19.715  0.00  0.00    +0.000 A 
ENDROOT
BRANCH   3  10
ATOM     10  N   UNL     1       5.210   5.549  17.938  0.00  0.00    +0.000 N 
ATOM     11  C   UNL     1       4.531   5.246  16.665  0.00  0.00    +0.000 C 
ATOM     12  C   UNL     1       5.080   4.020  15.916  0.00  0.00    +0.000 C 
ATOM     13  C   UNL     1       6.459   4.149  15.272  0.00  0.00    +0.000 C 
ATOM     14  C   UNL     1       7.555   4.638  16.209  0.00  0.00    +0.000 C 
ATOM     15  C   UNL     1       7.321   6.087  16.629  0.00  0.00    +0.000 C 
ATOM     16  C   UNL     1       6.508   6.241  17.913  0.00  0.00    +0.000 C 
ENDBRANCH   3  10
BRANCH   9  17
ATOM     17  N   UNL     1       1.225   4.115  18.524  0.00  0.00    +0.000 N 
ATOM     18  O   UNL     1       1.296   5.030  17.676  0.00  0.00    +0.000 OA
ATOM     19  O   UNL     1       0.531   3.102  18.367  0.00  0.00    +0.000 OA
ENDBRANCH   9  17
BRANCH   1  20
ATOM     20  N   UNL     1       1.654   6.495  20.693  0.00  0.00    +0.000 N 
ATOM     21  H   UNL     1       0.741   6.085  20.922  0.00  0.00    +0.000 HD
BRANCH  20  24
ATOM     22  C   UNL     1       2.811   7.743  17.959  0.00  0.00    +0.000 C 
ATOM     23  C   UNL     1       1.808   8.291  18.926  0.00  0.00    +0.000 A 
ATOM     24  C   UNL     1       1.432   7.716  20.085  0.00  0.00    +0.000 A 
ATOM     25  C   UNL     1       0.870   8.882  20.895  0.00  0.00    +0.000 A 
ATOM     26  O   UNL     1       0.545   8.766  22.069  0.00  0.00    +0.000 OA
ATOM     27  N   UNL     1       0.819   9.973  20.033  0.00  0.00    +0.000 N 
ATOM     28  N   UNL     1       1.312   9.589  18.768  0.00  0.00    +0.000 N 
ATOM     29  C   UNL     1       2.009  10.586  17.948  0.00  0.00    +0.000 C 
BRANCH  27  30
ATOM     30  C   UNL     1       0.233  11.229  20.265  0.00  0.00    +0.000 A 
ATOM     31  C   UNL     1      -1.093  11.476  19.889  0.00  0.00    +0.000 A 
ATOM     32  C   UNL     1      -1.724  12.659  20.288  0.00  0.00    +0.000 A 
ATOM     33  C   UNL     1      -1.025  13.618  21.022  0.00  0.00    +0.000 A 
ATOM     34  C   UNL     1       0.316  13.408  21.340  0.00  0.00    +0.000 A 
ATOM     35  C   UNL     1       0.937  12.221  20.962  0.00  0.00    +0.000 A 
ENDBRANCH  27  30
ENDBRANCH  20  24
ENDBRANCH   1  20
TORSDOF 5
ENDMDL
MODEL 9
REMARK VINA RESULT:      -7.2      8.426     10.656
REMARK  Name = 
REMARK  7 active torsions:
REMARK  status: ('A' for Active; 'I' for Inactive)
REMARK    1  A    between atoms: C_1  and  C_2
REMARK    2  A    between atoms: C_3  and  N_4
REMARK    3  A    between atoms: N_4  and  C_5
REMARK    4  A    between atoms: C_7  and  N_8
REMARK    5  A    between atoms: C_20  and  N_21
REMARK    6  A    between atoms: N_26  and  C_27
REMARK    7  A    between atoms: N_33  and  C_34
REMARK                            x       y       z     vdW  Elec       q    Type
REMARK                         _______ _______ _______ _____ _____    ______ ____
ROOT
ATOM      1  C   UNL     1       7.221  15.555  19.260  0.00  0.00    +0.000 A 
ATOM      2  C   UNL     1       7.733  14.519  18.424  0.00  0.00    +0.000 A 
ATOM      3  C   UNL     1       9.090  14.458  18.053  0.00  0.00    +0.000 A 
ATOM      4  C   UNL     1       9.515  15.771  17.737  0.00  0.00    +0.000 A 
ATOM      5  N   UNL     1      10.454  16.226  16.896  0.00  0.00    +0.000 NA
ATOM      6  O   UNL     1      10.558  17.581  17.146  0.00  0.00    +0.000 OA
ATOM      7  N   UNL     1       9.744  17.969  18.196  0.00  0.00    +0.000 NA
ATOM      8  C   UNL     1       9.033  16.884  18.536  0.00  0.00    +0.000 A 
ATOM      9  C   UNL     1       8.053  16.668  19.536  0.00  0.00    +0.000 A 
ENDROOT
BRANCH   3  10
ATOM     10  N   UNL     1       9.939  13.453  18.545  0.00  0.00    +0.000 N 
ATOM     11  C   UNL     1      10.203  12.220  17.784  0.00  0.00    +0.000 C 
ATOM     12  C   UNL     1       9.284  11.037  18.131  0.00  0.00    +0.000 C 
ATOM     13  C   UNL     1       9.484  10.367  19.490  0.00  0.00    +0.000 C 
ATOM     14  C   UNL     1       9.467  11.320  20.677  0.00  0.00    +0.000 C 
ATOM     15  C   UNL     1      10.677  12.250  20.659  0.00  0.00    +0.000 C 
ATOM     16  C   UNL     1      10.440  13.568  19.924  0.00  0.00    +0.000 C 
ENDBRANCH   3  10
BRANCH   9  17
ATOM     17  N   UNL     1       8.641  16.799  20.868  0.00  0.00    +0.000 N 
ATOM     18  O   UNL     1       9.160  17.888  21.192  0.00  0.00    +0.000 OA
ATOM     19  O   UNL     1       8.527  15.846  21.650  0.00  0.00    +0.000 OA
ENDBRANCH   9  17
BRANCH   1  20
ATOM     20  N   UNL     1       5.941  15.303  19.857  0.00  0.00    +0.000 N 
ATOM     21  H   UNL     1       5.570  14.423  19.480  0.00  0.00    +0.000 HD
BRANCH  20  24
ATOM     22  C   UNL     1       5.058  17.384  22.150  0.00  0.00    +0.000 C 
ATOM     23  C   UNL     1       4.502  17.161  20.779  0.00  0.00    +0.000 A 
ATOM     24  C   UNL     1       4.903  16.215  19.907  0.00  0.00    +0.000 A 
ATOM     25  C   UNL     1       3.709  16.066  18.967  0.00  0.00    +0.000 A 
ATOM     26  O   UNL     1       3.654  15.191  18.113  0.00  0.00    +0.000 OA
ATOM     27  N   UNL     1       2.818  17.082  19.298  0.00  0.00    +0.000 N 
ATOM     28  N   UNL     1       3.348  17.836  20.366  0.00  0.00    +0.000 N 
ATOM     29  C   UNL     1       2.425  18.444  21.330  0.00  0.00    +0.000 C 
BRANCH  27  30
ATOM     30  C   UNL     1       1.647  17.458  18.617  0.00  0.00    +0.000 A 
ATOM     31  C   UNL     1       1.715  18.279  17.484  0.00  0.00    +0.000 A 
ATOM     32  C   UNL     1       0.571  18.495  16.709  0.00  0.00    +0.000 A 
ATOM     33  C   UNL     1      -0.651  17.934  17.082  0.00  0.00    +0.000 A 
ATOM     34  C   UNL     1      -0.738  17.173  18.247  0.00  0.00    +0.000 A 
ATOM     35  C   UNL     1       0.404  16.939  19.006  0.00  0.00    +0.000 A 
ENDBRANCH  27  30
ENDBRANCH  20  24
ENDBRANCH   1  20
TORSDOF 5
ENDMDL
