MODEL 1
REMARK VINA RESULT:      -8.4      0.000      0.000
REMARK  Name = 
REMARK  7 active torsions:
REMARK  status: ('A' for Active; 'I' for Inactive)
REMARK    1  A    between atoms: C_1  and  N_2
REMARK    2  A    between atoms: C_3  and  O_4
REMARK    3  A    between atoms: O_4  and  C_5
REMARK    4  A    between atoms: N_8  and  C_9
REMARK    5  A    between atoms: C_14  and  C_15
REMARK    6  A    between atoms: C_15  and  N_16
REMARK    7  A    between atoms: C_28  and  C_29
REMARK                            x       y       z     vdW  Elec       q    Type
REMARK                         _______ _______ _______ _____ _____    ______ ____
ROOT
ATOM      1  C   UNL     1       2.287   7.830  19.734  0.00  0.00    +0.000 C 
ATOM      2  C   UNL     1       1.350   8.451  20.760  0.00  0.00    +0.000 C 
ATOM      3  C   UNL     1       0.140   9.201  20.197  0.00  0.00    +0.000 C 
ATOM      4  N   UNL     1       0.194   9.696  18.804  0.00  0.00    +0.000 N 
ATOM      5  C   UNL     1       1.417   9.528  18.022  0.00  0.00    +0.000 C 
ATOM      6  C   UNL     1       2.627   8.950  18.762  0.00  0.00    +0.000 C 
ENDROOT
BRANCH   4   7
ATOM      7  C   UNL     1      -0.997  10.274  18.277  0.00  0.00    +0.000 A 
ATOM      8  C   UNL     1      -1.671   9.525  17.271  0.00  0.00    +0.000 A 
ATOM      9  C   UNL     1      -2.868   9.926  16.643  0.00  0.00    +0.000 A 
ATOM     10  C   UNL     1      -3.437  11.131  16.956  0.00  0.00    +0.000 A 
ATOM     11  C   UNL     1      -2.834  11.901  17.939  0.00  0.00    +0.000 A 
ATOM     12  C   UNL     1      -1.638  11.503  18.625  0.00  0.00    +0.000 A 
BRANCH  12  13
ATOM     13  C   UNL     1      -1.310  12.484  19.729  0.00  0.00    +0.000 C 
BRANCH  13  14
ATOM     14  N   UNL     1      -0.305  13.493  19.531  0.00  0.00    +0.000 NA
ATOM     15  C   UNL     1      -0.319  14.935  19.811  0.00  0.00    +0.000 C 
ATOM     16  C   UNL     1       0.957  15.412  19.111  0.00  0.00    +0.000 A 
ATOM     17  C   UNL     1       1.350  16.596  18.528  0.00  0.00    +0.000 A 
ATOM     18  C   UNL     1       2.523  16.591  17.737  0.00  0.00    +0.000 A 
ATOM     19  C   UNL     1       3.356  15.459  17.642  0.00  0.00    +0.000 A 
ATOM     20  C   UNL     1       2.937  14.265  18.184  0.00  0.00    +0.000 A 
ATOM     21  C   UNL     1       1.677  14.279  18.739  0.00  0.00    +0.000 A 
ATOM     22  C   UNL     1       0.636  13.253  18.476  0.00  0.00    +0.000 C 
ENDBRANCH  13  14
ENDBRANCH  12  13
ENDBRANCH   4   7
BRANCH   1  23
ATOM     23  O   UNL     1       1.639   6.690  19.122  0.00  0.00    +0.000 OA
BRANCH  23  26
ATOM     24  C   UNL     1       0.825   4.297  20.099  0.00  0.00    +0.000 C 
ATOM     25  N   UNL     1       1.849   4.406  19.079  0.00  0.00    +0.000 N 
ATOM     26  C   UNL     1       2.329   5.617  18.624  0.00  0.00    +0.000 A 
ATOM     27  N   UNL     1       3.315   5.733  17.790  0.00  0.00    +0.000 NA
ATOM     28  C   UNL     1       3.915   4.555  17.363  0.00  0.00    +0.000 A 
ATOM     29  C   UNL     1       3.463   3.329  17.677  0.00  0.00    +0.000 A 
ATOM     30  C   UNL     1       2.325   3.210  18.576  0.00  0.00    +0.000 A 
ATOM     31  O   UNL     1       1.875   2.103  18.836  0.00  0.00    +0.000 OA
BRANCH  28  32
ATOM     32  C   UNL     1       5.137   4.590  16.508  0.00  0.00    +0.000 A 
ATOM     33  C   UNL     1       5.050   4.521  15.135  0.00  0.00    +0.000 A 
ATOM     34  C   UNL     1       6.244   4.554  14.450  0.00  0.00    +0.000 A 
ATOM     35  N   UNL     1       7.450   4.649  15.044  0.00  0.00    +0.000 NA
ATOM     36  C   UNL     1       7.429   4.704  16.381  0.00  0.00    +0.000 A 
ATOM     37  N   UNL     1       6.333   4.673  17.149  0.00  0.00    +0.000 NA
ENDBRANCH  28  32
ENDBRANCH  23  26
ENDBRANCH   1  23
TORSDOF 6
ENDMDL
MODEL 2
REMARK VINA RESULT:      -8.3      2.311      3.748
REMARK  Name = 
REMARK  7 active torsions:
REMARK  status: ('A' for Active; 'I' for Inactive)
REMARK    1  A    between atoms: C_1  and  N_2
REMARK    2  A    between atoms: C_3  and  O_4
REMARK    3  A    between atoms: O_4  and  C_5
REMARK    4  A    between atoms: N_8  and  C_9
REMARK    5  A    between atoms: C_14  and  C_15
REMARK    6  A    between atoms: C_15  and  N_16
REMARK    7  A    between atoms: C_28  and  C_29
REMARK                            x       y       z     vdW  Elec       q    Type
REMARK                         _______ _______ _______ _____ _____    ______ ____
ROOT
ATOM      1  C   UNL     1       2.048   8.170  19.896  0.00  0.00    +0.000 C 
ATOM      2  C   UNL     1       1.005   8.854  20.767  0.00  0.00    +0.000 C 
ATOM      3  C   UNL     1      -0.184   9.474  20.029  0.00  0.00    +0.000 C 
ATOM      4  N   UNL     1      -0.036   9.811  18.597  0.00  0.00    +0.000 N 
ATOM      5  C   UNL     1       1.253   9.619  17.936  0.00  0.00    +0.000 C 
ATOM      6  C   UNL     1       2.421   9.189  18.829  0.00  0.00    +0.000 C 
ENDROOT
BRANCH   4   7
ATOM      7  C   UNL     1      -1.202  10.267  17.916  0.00  0.00    +0.000 A 
ATOM      8  C   UNL     1      -1.681   9.438  16.861  0.00  0.00    +0.000 A 
ATOM      9  C   UNL     1      -2.825   9.714  16.085  0.00  0.00    +0.000 A 
ATOM     10  C   UNL     1      -3.533  10.867  16.291  0.00  0.00    +0.000 A 
ATOM     11  C   UNL     1      -3.124  11.709  17.314  0.00  0.00    +0.000 A 
ATOM     12  C   UNL     1      -1.988  11.437  18.148  0.00  0.00    +0.000 A 
BRANCH  12  13
ATOM     13  C   UNL     1      -1.883  12.466  19.252  0.00  0.00    +0.000 C 
BRANCH  13  14
ATOM     14  N   UNL     1      -2.836  12.478  20.329  0.00  0.00    +0.000 NA
ATOM     15  C   UNL     1      -4.269  12.796  20.344  0.00  0.00    +0.000 C 
ATOM     16  C   UNL     1      -4.569  12.864  21.845  0.00  0.00    +0.000 A 
ATOM     17  C   UNL     1      -5.481  13.552  22.614  0.00  0.00    +0.000 A 
ATOM     18  C   UNL     1      -5.292  13.567  24.017  0.00  0.00    +0.000 A 
ATOM     19  C   UNL     1      -4.291  12.800  24.644  0.00  0.00    +0.000 A 
ATOM     20  C   UNL     1      -3.352  12.154  23.872  0.00  0.00    +0.000 A 
ATOM     21  C   UNL     1      -3.452  12.371  22.516  0.00  0.00    +0.000 A 
ATOM     22  C   UNL     1      -2.309  12.729  21.639  0.00  0.00    +0.000 C 
ENDBRANCH  13  14
ENDBRANCH  12  13
ENDBRANCH   4   7
BRANCH   1  23
ATOM     23  O   UNL     1       1.500   6.937  19.372  0.00  0.00    +0.000 OA
BRANCH  23  26
ATOM     24  C   UNL     1       0.942   4.541  20.509  0.00  0.00    +0.000 C 
ATOM     25  N   UNL     1       1.929   4.685  19.457  0.00  0.00    +0.000 N 
ATOM     26  C   UNL     1       2.280   5.905  18.919  0.00  0.00    +0.000 A 
ATOM     27  N   UNL     1       3.232   6.064  18.053  0.00  0.00    +0.000 NA
ATOM     28  C   UNL     1       3.934   4.924  17.680  0.00  0.00    +0.000 A 
ATOM     29  C   UNL     1       3.608   3.682  18.078  0.00  0.00    +0.000 A 
ATOM     30  C   UNL     1       2.507   3.511  19.013  0.00  0.00    +0.000 A 
ATOM     31  O   UNL     1       2.171   2.384  19.349  0.00  0.00    +0.000 OA
BRANCH  28  32
ATOM     32  C   UNL     1       5.129   5.022  16.793  0.00  0.00    +0.000 A 
ATOM     33  C   UNL     1       5.226   4.273  15.640  0.00  0.00    +0.000 A 
ATOM     34  C   UNL     1       6.377   4.441  14.904  0.00  0.00    +0.000 A 
ATOM     35  N   UNL     1       7.375   5.277  15.250  0.00  0.00    +0.000 NA
ATOM     36  C   UNL     1       7.190   5.955  16.388  0.00  0.00    +0.000 A 
ATOM     37  N   UNL     1       6.117   5.868  17.185  0.00  0.00    +0.000 NA
ENDBRANCH  28  32
ENDBRANCH  23  26
ENDBRANCH   1  23
TORSDOF 6
ENDMDL
MODEL 3
REMARK VINA RESULT:      -8.3      1.914      3.175
REMARK  Name = 
REMARK  7 active torsions:
REMARK  status: ('A' for Active; 'I' for Inactive)
REMARK    1  A    between atoms: C_1  and  N_2
REMARK    2  A    between atoms: C_3  and  O_4
REMARK    3  A    between atoms: O_4  and  C_5
REMARK    4  A    between atoms: N_8  and  C_9
REMARK    5  A    between atoms: C_14  and  C_15
REMARK    6  A    between atoms: C_15  and  N_16
REMARK    7  A    between atoms: C_28  and  C_29
REMARK                            x       y       z     vdW  Elec       q    Type
REMARK                         _______ _______ _______ _____ _____    ______ ____
ROOT
ATOM      1  C   UNL     1       1.673   9.633  17.840  0.00  0.00    +0.000 C 
ATOM      2  C   UNL     1       2.141  11.077  17.949  0.00  0.00    +0.000 C 
ATOM      3  C   UNL     1       1.556  11.886  19.110  0.00  0.00    +0.000 C 
ATOM      4  N   UNL     1       0.283  11.440  19.718  0.00  0.00    +0.000 N 
ATOM      5  C   UNL     1      -0.424  10.291  19.159  0.00  0.00    +0.000 C 
ATOM      6  C   UNL     1       0.153   9.692  17.873  0.00  0.00    +0.000 C 
ENDROOT
BRANCH   4   7
ATOM      7  C   UNL     1      -0.161  12.144  20.875  0.00  0.00    +0.000 A 
ATOM      8  C   UNL     1      -1.112  11.472  21.696  0.00  0.00    +0.000 A 
ATOM      9  C   UNL     1      -1.655  12.000  22.885  0.00  0.00    +0.000 A 
ATOM     10  C   UNL     1      -1.310  13.259  23.298  0.00  0.00    +0.000 A 
ATOM     11  C   UNL     1      -0.377  13.958  22.548  0.00  0.00    +0.000 A 
ATOM     12  C   UNL     1       0.224  13.433  21.355  0.00  0.00    +0.000 A 
BRANCH  12  13
ATOM     13  C   UNL     1       1.295  14.372  20.846  0.00  0.00    +0.000 C 
BRANCH  13  14
ATOM     14  N   UNL     1       0.940  15.533  20.074  0.00  0.00    +0.000 NA
ATOM     15  C   UNL     1      -0.249  16.393  20.121  0.00  0.00    +0.000 C 
ATOM     16  C   UNL     1      -0.078  17.249  18.861  0.00  0.00    +0.000 A 
ATOM     17  C   UNL     1      -0.948  17.879  18.001  0.00  0.00    +0.000 A 
ATOM     18  C   UNL     1      -0.436  18.369  16.776  0.00  0.00    +0.000 A 
ATOM     19  C   UNL     1       0.942  18.348  16.481  0.00  0.00    +0.000 A 
ATOM     20  C   UNL     1       1.801  17.674  17.319  0.00  0.00    +0.000 A 
ATOM     21  C   UNL     1       1.206  17.017  18.372  0.00  0.00    +0.000 A 
ATOM     22  C   UNL     1       1.498  15.613  18.756  0.00  0.00    +0.000 C 
ENDBRANCH  13  14
ENDBRANCH  12  13
ENDBRANCH   4   7
BRANCH   1  23
ATOM     23  O   UNL     1       2.258   8.857  18.912  0.00  0.00    +0.000 OA
BRANCH  23  26
ATOM     24  C   UNL     1       1.471   7.191  20.899  0.00  0.00    +0.000 C 
ATOM     25  N   UNL     1       2.201   6.719  19.740  0.00  0.00    +0.000 N 
ATOM     26  C   UNL     1       2.675   7.562  18.756  0.00  0.00    +0.000 A 
ATOM     27  N   UNL     1       3.417   7.170  17.768  0.00  0.00    +0.000 NA
ATOM     28  C   UNL     1       3.754   5.822  17.735  0.00  0.00    +0.000 A 
ATOM     29  C   UNL     1       3.268   4.909  18.593  0.00  0.00    +0.000 A 
ATOM     30  C   UNL     1       2.397   5.352  19.671  0.00  0.00    +0.000 A 
ATOM     31  O   UNL     1       1.913   4.527  20.433  0.00  0.00    +0.000 OA
BRANCH  28  32
ATOM     32  C   UNL     1       4.709   5.301  16.715  0.00  0.00    +0.000 A 
ATOM     33  C   UNL     1       4.875   3.947  16.518  0.00  0.00    +0.000 A 
ATOM     34  C   UNL     1       5.789   3.584  15.554  0.00  0.00    +0.000 A 
ATOM     35  N   UNL     1       6.500   4.463  14.821  0.00  0.00    +0.000 NA
ATOM     36  C   UNL     1       6.272   5.753  15.092  0.00  0.00    +0.000 A 
ATOM     37  N   UNL     1       5.415   6.222  16.007  0.00  0.00    +0.000 NA
ENDBRANCH  28  32
ENDBRANCH  23  26
ENDBRANCH   1  23
TORSDOF 6
ENDMDL
MODEL 4
REMARK VINA RESULT:      -8.3      3.073     10.075
REMARK  Name = 
REMARK  7 active torsions:
REMARK  status: ('A' for Active; 'I' for Inactive)
REMARK    1  A    between atoms: C_1  and  N_2
REMARK    2  A    between atoms: C_3  and  O_4
REMARK    3  A    between atoms: O_4  and  C_5
REMARK    4  A    between atoms: N_8  and  C_9
REMARK    5  A    between atoms: C_14  and  C_15
REMARK    6  A    between atoms: C_15  and  N_16
REMARK    7  A    between atoms: C_28  and  C_29
REMARK                            x       y       z     vdW  Elec       q    Type
REMARK                         _______ _______ _______ _____ _____    ______ ____
ROOT
ATOM      1  C   UNL     1       1.050  10.150  19.126  0.00  0.00    +0.000 C 
ATOM      2  C   UNL     1       2.021   9.483  18.163  0.00  0.00    +0.000 C 
ATOM      3  C   UNL     1       2.279   7.992  18.396  0.00  0.00    +0.000 C 
ATOM      4  N   UNL     1       2.007   7.423  19.734  0.00  0.00    +0.000 N 
ATOM      5  C   UNL     1       1.573   8.299  20.820  0.00  0.00    +0.000 C 
ATOM      6  C   UNL     1       1.551   9.801  20.519  0.00  0.00    +0.000 C 
ENDROOT
BRANCH   4   7
ATOM      7  C   UNL     1       2.138   6.011  19.875  0.00  0.00    +0.000 A 
ATOM      8  C   UNL     1       0.930   5.283  20.077  0.00  0.00    +0.000 A 
ATOM      9  C   UNL     1       0.858   3.882  20.222  0.00  0.00    +0.000 A 
ATOM     10  C   UNL     1       2.002   3.130  20.221  0.00  0.00    +0.000 A 
ATOM     11  C   UNL     1       3.209   3.782  20.014  0.00  0.00    +0.000 A 
ATOM     12  C   UNL     1       3.313   5.200  19.823  0.00  0.00    +0.000 A 
BRANCH  12  13
ATOM     13  C   UNL     1       4.737   5.585  19.487  0.00  0.00    +0.000 C 
BRANCH  13  14
ATOM     14  N   UNL     1       5.354   5.110  18.278  0.00  0.00    +0.000 NA
ATOM     15  C   UNL     1       6.768   4.988  17.902  0.00  0.00    +0.000 C 
ATOM     16  C   UNL     1       6.678   4.674  16.405  0.00  0.00    +0.000 A 
ATOM     17  C   UNL     1       7.497   4.905  15.322  0.00  0.00    +0.000 A 
ATOM     18  C   UNL     1       6.962   4.703  14.028  0.00  0.00    +0.000 A 
ATOM     19  C   UNL     1       5.681   4.154  13.826  0.00  0.00    +0.000 A 
ATOM     20  C   UNL     1       4.847   3.971  14.907  0.00  0.00    +0.000 A 
ATOM     21  C   UNL     1       5.342   4.407  16.115  0.00  0.00    +0.000 A 
ATOM     22  C   UNL     1       4.583   5.246  17.077  0.00  0.00    +0.000 C 
ENDBRANCH  13  14
ENDBRANCH  12  13
ENDBRANCH   4   7
BRANCH   1  23
ATOM     23  O   UNL     1      -0.294   9.690  18.846  0.00  0.00    +0.000 OA
BRANCH  23  26
ATOM     24  C   UNL     1      -1.856   9.583  16.635  0.00  0.00    +0.000 C 
ATOM     25  N   UNL     1      -2.207  10.385  17.789  0.00  0.00    +0.000 N 
ATOM     26  C   UNL     1      -1.389  10.511  18.893  0.00  0.00    +0.000 A 
ATOM     27  N   UNL     1      -1.639  11.304  19.888  0.00  0.00    +0.000 NA
ATOM     28  C   UNL     1      -2.794  12.073  19.800  0.00  0.00    +0.000 A 
ATOM     29  C   UNL     1      -3.698  11.954  18.813  0.00  0.00    +0.000 A 
ATOM     30  C   UNL     1      -3.430  11.026  17.725  0.00  0.00    +0.000 A 
ATOM     31  O   UNL     1      -4.264  10.875  16.842  0.00  0.00    +0.000 OA
BRANCH  28  32
ATOM     32  C   UNL     1      -3.098  13.108  20.830  0.00  0.00    +0.000 A 
ATOM     33  C   UNL     1      -4.335  13.713  20.890  0.00  0.00    +0.000 A 
ATOM     34  C   UNL     1      -4.499  14.659  21.878  0.00  0.00    +0.000 A 
ATOM     35  N   UNL     1      -3.538  15.004  22.756  0.00  0.00    +0.000 NA
ATOM     36  C   UNL     1      -2.372  14.365  22.611  0.00  0.00    +0.000 A 
ATOM     37  N   UNL     1      -2.096  13.435  21.688  0.00  0.00    +0.000 NA
ENDBRANCH  28  32
ENDBRANCH  23  26
ENDBRANCH   1  23
TORSDOF 6
ENDMDL
MODEL 5
REMARK VINA RESULT:      -8.3      1.587      2.492
REMARK  Name = 
REMARK  7 active torsions:
REMARK  status: ('A' for Active; 'I' for Inactive)
REMARK    1  A    between atoms: C_1  and  N_2
REMARK    2  A    between atoms: C_3  and  O_4
REMARK    3  A    between atoms: O_4  and  C_5
REMARK    4  A    between atoms: N_8  and  C_9
REMARK    5  A    between atoms: C_14  and  C_15
REMARK    6  A    between atoms: C_15  and  N_16
REMARK    7  A    between atoms: C_28  and  C_29
REMARK                            x       y       z     vdW  Elec       q    Type
REMARK                         _______ _______ _______ _____ _____    ______ ____
ROOT
ATOM      1  C   UNL     1       1.627   9.210  17.942  0.00  0.00    +0.000 C 
ATOM      2  C   UNL     1       2.159  10.564  18.387  0.00  0.00    +0.000 C 
ATOM      3  C   UNL     1       1.357  11.274  19.481  0.00  0.00    +0.000 C 
ATOM      4  N   UNL     1      -0.060  10.900  19.681  0.00  0.00    +0.000 N 
ATOM      5  C   UNL     1      -0.684   9.923  18.792  0.00  0.00    +0.000 C 
ATOM      6  C   UNL     1       0.160   9.437  17.609  0.00  0.00    +0.000 C 
ENDROOT
BRANCH   4   7
ATOM      7  C   UNL     1      -0.734  11.490  20.788  0.00  0.00    +0.000 A 
ATOM      8  C   UNL     1      -0.733  10.741  22.000  0.00  0.00    +0.000 A 
ATOM      9  C   UNL     1      -1.334  11.167  23.203  0.00  0.00    +0.000 A 
ATOM     10  C   UNL     1      -2.015  12.354  23.248  0.00  0.00    +0.000 A 
ATOM     11  C   UNL     1      -2.040  13.135  22.103  0.00  0.00    +0.000 A 
ATOM     12  C   UNL     1      -1.404  12.749  20.875  0.00  0.00    +0.000 A 
BRANCH  12  13
ATOM     13  C   UNL     1      -1.492  13.868  19.860  0.00  0.00    +0.000 C 
BRANCH  13  14
ATOM     14  N   UNL     1      -0.328  14.648  19.534  0.00  0.00    +0.000 NA
ATOM     15  C   UNL     1      -0.061  16.085  19.677  0.00  0.00    +0.000 C 
ATOM     16  C   UNL     1       1.245  16.250  18.893  0.00  0.00    +0.000 A 
ATOM     17  C   UNL     1       1.820  17.283  18.188  0.00  0.00    +0.000 A 
ATOM     18  C   UNL     1       2.931  16.988  17.362  0.00  0.00    +0.000 A 
ATOM     19  C   UNL     1       3.535  15.715  17.349  0.00  0.00    +0.000 A 
ATOM     20  C   UNL     1       2.929  14.674  18.015  0.00  0.00    +0.000 A 
ATOM     21  C   UNL     1       1.723  14.973  18.607  0.00  0.00    +0.000 A 
ATOM     22  C   UNL     1       0.498  14.143  18.477  0.00  0.00    +0.000 C 
ENDBRANCH  13  14
ENDBRANCH  12  13
ENDBRANCH   4   7
BRANCH   1  23
ATOM     23  O   UNL     1       1.853   8.238  18.990  0.00  0.00    +0.000 OA
BRANCH  23  26
ATOM     24  C   UNL     1       1.383   6.305  20.829  0.00  0.00    +0.000 C 
ATOM     25  N   UNL     1       2.278   6.101  19.708  0.00  0.00    +0.000 N 
ATOM     26  C   UNL     1       2.587   7.096  18.804  0.00  0.00    +0.000 A 
ATOM     27  N   UNL     1       3.464   6.963  17.858  0.00  0.00    +0.000 NA
ATOM     28  C   UNL     1       4.126   5.744  17.787  0.00  0.00    +0.000 A 
ATOM     29  C   UNL     1       3.830   4.685  18.561  0.00  0.00    +0.000 A 
ATOM     30  C   UNL     1       2.811   4.832  19.589  0.00  0.00    +0.000 A 
ATOM     31  O   UNL     1       2.500   3.866  20.271  0.00  0.00    +0.000 OA
BRANCH  28  32
ATOM     32  C   UNL     1       5.242   5.539  16.818  0.00  0.00    +0.000 A 
ATOM     33  C   UNL     1       5.117   4.667  15.759  0.00  0.00    +0.000 A 
ATOM     34  C   UNL     1       6.215   4.554  14.935  0.00  0.00    +0.000 A 
ATOM     35  N   UNL     1       7.362   5.237  15.113  0.00  0.00    +0.000 NA
ATOM     36  C   UNL     1       7.387   6.053  16.173  0.00  0.00    +0.000 A 
ATOM     37  N   UNL     1       6.386   6.238  17.043  0.00  0.00    +0.000 NA
ENDBRANCH  28  32
ENDBRANCH  23  26
ENDBRANCH   1  23
TORSDOF 6
ENDMDL
MODEL 6
REMARK VINA RESULT:      -8.1      1.004      1.425
REMARK  Name = 
REMARK  7 active torsions:
REMARK  status: ('A' for Active; 'I' for Inactive)
REMARK    1  A    between atoms: C_1  and  N_2
REMARK    2  A    between atoms: C_3  and  O_4
REMARK    3  A    between atoms: O_4  and  C_5
REMARK    4  A    between atoms: N_8  and  C_9
REMARK    5  A    between atoms: C_14  and  C_15
REMARK    6  A    between atoms: C_15  and  N_16
REMARK    7  A    between atoms: C_28  and  C_29
REMARK                            x       y       z     vdW  Elec       q    Type
REMARK                         _______ _______ _______ _____ _____    ______ ____
ROOT
ATOM      1  C   UNL     1       2.136   8.162  19.623  0.00  0.00    +0.000 C 
ATOM      2  C   UNL     1       1.176   8.782  20.627  0.00  0.00    +0.000 C 
ATOM      3  C   UNL     1      -0.094   9.406  20.044  0.00  0.00    +0.000 C 
ATOM      4  N   UNL     1      -0.101   9.811  18.622  0.00  0.00    +0.000 N 
ATOM      5  C   UNL     1       1.117   9.679  17.825  0.00  0.00    +0.000 C 
ATOM      6  C   UNL     1       2.379   9.236  18.573  0.00  0.00    +0.000 C 
ENDROOT
BRANCH   4   7
ATOM      7  C   UNL     1      -1.339  10.269  18.086  0.00  0.00    +0.000 A 
ATOM      8  C   UNL     1      -1.833   9.566  16.949  0.00  0.00    +0.000 A 
ATOM      9  C   UNL     1      -3.044   9.863  16.292  0.00  0.00    +0.000 A 
ATOM     10  C   UNL     1      -3.812  10.917  16.708  0.00  0.00    +0.000 A 
ATOM     11  C   UNL     1      -3.390  11.631  17.819  0.00  0.00    +0.000 A 
ATOM     12  C   UNL     1      -2.184  11.330  18.535  0.00  0.00    +0.000 A 
BRANCH  12  13
ATOM     13  C   UNL     1      -2.072  12.195  19.771  0.00  0.00    +0.000 C 
BRANCH  13  14
ATOM     14  N   UNL     1      -1.038  13.188  19.874  0.00  0.00    +0.000 NA
ATOM     15  C   UNL     1      -0.233  13.851  18.841  0.00  0.00    +0.000 C 
ATOM     16  C   UNL     1       0.833  14.571  19.674  0.00  0.00    +0.000 A 
ATOM     17  C   UNL     1       2.136  14.953  19.447  0.00  0.00    +0.000 A 
ATOM     18  C   UNL     1       2.910  15.372  20.555  0.00  0.00    +0.000 A 
ATOM     19  C   UNL     1       2.351  15.532  21.839  0.00  0.00    +0.000 A 
ATOM     20  C   UNL     1       1.065  15.103  22.073  0.00  0.00    +0.000 A 
ATOM     21  C   UNL     1       0.444  14.488  21.009  0.00  0.00    +0.000 A 
ATOM     22  C   UNL     1      -0.291  13.201  21.098  0.00  0.00    +0.000 C 
ENDBRANCH  13  14
ENDBRANCH  12  13
ENDBRANCH   4   7
BRANCH   1  23
ATOM     23  O   UNL     1       1.561   6.941  19.100  0.00  0.00    +0.000 OA
BRANCH  23  26
ATOM     24  C   UNL     1       0.869   4.639  20.350  0.00  0.00    +0.000 C 
ATOM     25  N   UNL     1       1.896   4.684  19.328  0.00  0.00    +0.000 N 
ATOM     26  C   UNL     1       2.314   5.857  18.734  0.00  0.00    +0.000 A 
ATOM     27  N   UNL     1       3.300   5.928  17.896  0.00  0.00    +0.000 NA
ATOM     28  C   UNL     1       3.968   4.743  17.614  0.00  0.00    +0.000 A 
ATOM     29  C   UNL     1       3.580   3.539  18.069  0.00  0.00    +0.000 A 
ATOM     30  C   UNL     1       2.442   3.464  18.972  0.00  0.00    +0.000 A 
ATOM     31  O   UNL     1       2.050   2.373  19.359  0.00  0.00    +0.000 OA
BRANCH  28  32
ATOM     32  C   UNL     1       5.195   4.745  16.766  0.00  0.00    +0.000 A 
ATOM     33  C   UNL     1       5.114   4.847  15.394  0.00  0.00    +0.000 A 
ATOM     34  C   UNL     1       6.312   4.830  14.714  0.00  0.00    +0.000 A 
ATOM     35  N   UNL     1       7.514   4.723  15.312  0.00  0.00    +0.000 NA
ATOM     36  C   UNL     1       7.486   4.623  16.645  0.00  0.00    +0.000 A 
ATOM     37  N   UNL     1       6.386   4.622  17.408  0.00  0.00    +0.000 NA
ENDBRANCH  28  32
ENDBRANCH  23  26
ENDBRANCH   1  23
TORSDOF 6
ENDMDL
MODEL 7
REMARK VINA RESULT:      -8.1      0.670      1.212
REMARK  Name = 
REMARK  7 active torsions:
REMARK  status: ('A' for Active; 'I' for Inactive)
REMARK    1  A    between atoms: C_1  and  N_2
REMARK    2  A    between atoms: C_3  and  O_4
REMARK    3  A    between atoms: O_4  and  C_5
REMARK    4  A    between atoms: N_8  and  C_9
REMARK    5  A    between atoms: C_14  and  C_15
REMARK    6  A    between atoms: C_15  and  N_16
REMARK    7  A    between atoms: C_28  and  C_29
REMARK                            x       y       z     vdW  Elec       q    Type
REMARK                         _______ _______ _______ _____ _____    ______ ____
ROOT
ATOM      1  C   UNL     1       2.191   8.214  19.675  0.00  0.00    +0.000 C 
ATOM      2  C   UNL     1       1.291   8.779  20.764  0.00  0.00    +0.000 C 
ATOM      3  C   UNL     1      -0.017   9.418  20.288  0.00  0.00    +0.000 C 
ATOM      4  N   UNL     1      -0.112   9.887  18.889  0.00  0.00    +0.000 N 
ATOM      5  C   UNL     1       1.055   9.802  18.014  0.00  0.00    +0.000 C 
ATOM      6  C   UNL     1       2.363   9.337  18.663  0.00  0.00    +0.000 C 
ENDROOT
BRANCH   4   7
ATOM      7  C   UNL     1      -1.383  10.358  18.450  0.00  0.00    +0.000 A 
ATOM      8  C   UNL     1      -2.134   9.473  17.624  0.00  0.00    +0.000 A 
ATOM      9  C   UNL     1      -3.415   9.756  17.107  0.00  0.00    +0.000 A 
ATOM     10  C   UNL     1      -4.001  10.969  17.350  0.00  0.00    +0.000 A 
ATOM     11  C   UNL     1      -3.325  11.869  18.159  0.00  0.00    +0.000 A 
ATOM     12  C   UNL     1      -2.038  11.596  18.734  0.00  0.00    +0.000 A 
BRANCH  12  13
ATOM     13  C   UNL     1      -1.631  12.711  19.672  0.00  0.00    +0.000 C 
BRANCH  13  14
ATOM     14  N   UNL     1      -0.642  13.674  19.271  0.00  0.00    +0.000 NA
ATOM     15  C   UNL     1       0.766  13.508  18.887  0.00  0.00    +0.000 C 
ATOM     16  C   UNL     1       1.264  14.956  18.852  0.00  0.00    +0.000 A 
ATOM     17  C   UNL     1       2.485  15.559  19.060  0.00  0.00    +0.000 A 
ATOM     18  C   UNL     1       2.517  16.966  19.202  0.00  0.00    +0.000 A 
ATOM     19  C   UNL     1       1.371  17.763  19.007  0.00  0.00    +0.000 A 
ATOM     20  C   UNL     1       0.146  17.156  18.850  0.00  0.00    +0.000 A 
ATOM     21  C   UNL     1       0.149  15.784  18.955  0.00  0.00    +0.000 A 
ATOM     22  C   UNL     1      -0.812  15.005  19.777  0.00  0.00    +0.000 C 
ENDBRANCH  13  14
ENDBRANCH  12  13
ENDBRANCH   4   7
BRANCH   1  23
ATOM     23  O   UNL     1       1.592   7.014  19.133  0.00  0.00    +0.000 OA
BRANCH  23  26
ATOM     24  C   UNL     1       0.836   4.700  20.324  0.00  0.00    +0.000 C 
ATOM     25  N   UNL     1       1.874   4.744  19.313  0.00  0.00    +0.000 N 
ATOM     26  C   UNL     1       2.324   5.920  18.750  0.00  0.00    +0.000 A 
ATOM     27  N   UNL     1       3.320   5.988  17.924  0.00  0.00    +0.000 NA
ATOM     28  C   UNL     1       3.964   4.795  17.621  0.00  0.00    +0.000 A 
ATOM     29  C   UNL     1       3.544   3.590  18.045  0.00  0.00    +0.000 A 
ATOM     30  C   UNL     1       2.395   3.521  18.934  0.00  0.00    +0.000 A 
ATOM     31  O   UNL     1       1.975   2.430  19.293  0.00  0.00    +0.000 OA
BRANCH  28  32
ATOM     32  C   UNL     1       5.199   4.787  16.785  0.00  0.00    +0.000 A 
ATOM     33  C   UNL     1       5.135   4.926  15.415  0.00  0.00    +0.000 A 
ATOM     34  C   UNL     1       6.339   4.897  14.747  0.00  0.00    +0.000 A 
ATOM     35  N   UNL     1       7.532   4.745  15.353  0.00  0.00    +0.000 NA
ATOM     36  C   UNL     1       7.488   4.611  16.683  0.00  0.00    +0.000 A 
ATOM     37  N   UNL     1       6.380   4.618  17.435  0.00  0.00    +0.000 NA
ENDBRANCH  28  32
ENDBRANCH  23  26
ENDBRANCH   1  23
TORSDOF 6
ENDMDL
MODEL 8
REMARK VINA RESULT:      -8.1      2.038      3.578
REMARK  Name = 
REMARK  7 active torsions:
REMARK  status: ('A' for Active; 'I' for Inactive)
REMARK    1  A    between atoms: C_1  and  N_2
REMARK    2  A    between atoms: C_3  and  O_4
REMARK    3  A    between atoms: O_4  and  C_5
REMARK    4  A    between atoms: N_8  and  C_9
REMARK    5  A    between atoms: C_14  and  C_15
REMARK    6  A    between atoms: C_15  and  N_16
REMARK    7  A    between atoms: C_28  and  C_29
REMARK                            x       y       z     vdW  Elec       q    Type
REMARK                         _______ _______ _______ _____ _____    ______ ____
ROOT
ATOM      1  C   UNL     1       2.162   8.049  19.784  0.00  0.00    +0.000 C 
ATOM      2  C   UNL     1       1.210   8.649  20.808  0.00  0.00    +0.000 C 
ATOM      3  C   UNL     1      -0.039   9.333  20.245  0.00  0.00    +0.000 C 
ATOM      4  N   UNL     1      -0.022   9.801  18.842  0.00  0.00    +0.000 N 
ATOM      5  C   UNL     1       1.198   9.672  18.049  0.00  0.00    +0.000 C 
ATOM      6  C   UNL     1       2.441   9.162  18.785  0.00  0.00    +0.000 C 
ENDROOT
BRANCH   4   7
ATOM      7  C   UNL     1      -1.243  10.315  18.318  0.00  0.00    +0.000 A 
ATOM      8  C   UNL     1      -2.017   9.419  17.525  0.00  0.00    +0.000 A 
ATOM      9  C   UNL     1      -3.257   9.742  16.936  0.00  0.00    +0.000 A 
ATOM     10  C   UNL     1      -3.773  11.002  17.068  0.00  0.00    +0.000 A 
ATOM     11  C   UNL     1      -3.072  11.916  17.840  0.00  0.00    +0.000 A 
ATOM     12  C   UNL     1      -1.829  11.607  18.487  0.00  0.00    +0.000 A 
BRANCH  12  13
ATOM     13  C   UNL     1      -1.387  12.760  19.361  0.00  0.00    +0.000 C 
BRANCH  13  14
ATOM     14  N   UNL     1      -1.917  12.912  20.689  0.00  0.00    +0.000 NA
ATOM     15  C   UNL     1      -1.748  12.089  21.893  0.00  0.00    +0.000 C 
ATOM     16  C   UNL     1      -2.794  12.685  22.841  0.00  0.00    +0.000 A 
ATOM     17  C   UNL     1      -3.544  12.187  23.882  0.00  0.00    +0.000 A 
ATOM     18  C   UNL     1      -4.616  12.973  24.366  0.00  0.00    +0.000 A 
ATOM     19  C   UNL     1      -4.846  14.286  23.909  0.00  0.00    +0.000 A 
ATOM     20  C   UNL     1      -4.128  14.762  22.836  0.00  0.00    +0.000 A 
ATOM     21  C   UNL     1      -3.261  13.862  22.259  0.00  0.00    +0.000 A 
ATOM     22  C   UNL     1      -3.163  13.613  20.798  0.00  0.00    +0.000 C 
ENDBRANCH  13  14
ENDBRANCH  12  13
ENDBRANCH   4   7
BRANCH   1  23
ATOM     23  O   UNL     1       1.559   6.869  19.202  0.00  0.00    +0.000 OA
BRANCH  23  26
ATOM     24  C   UNL     1       0.792   4.503  20.279  0.00  0.00    +0.000 C 
ATOM     25  N   UNL     1       1.832   4.593  19.274  0.00  0.00    +0.000 N 
ATOM     26  C   UNL     1       2.288   5.793  18.769  0.00  0.00    +0.000 A 
ATOM     27  N   UNL     1       3.286   5.898  17.949  0.00  0.00    +0.000 NA
ATOM     28  C   UNL     1       3.926   4.718  17.590  0.00  0.00    +0.000 A 
ATOM     29  C   UNL     1       3.502   3.496  17.955  0.00  0.00    +0.000 A 
ATOM     30  C   UNL     1       2.351   3.388  18.838  0.00  0.00    +0.000 A 
ATOM     31  O   UNL     1       1.926   2.282  19.143  0.00  0.00    +0.000 OA
BRANCH  28  32
ATOM     32  C   UNL     1       5.164   4.746  16.758  0.00  0.00    +0.000 A 
ATOM     33  C   UNL     1       5.102   4.930  15.393  0.00  0.00    +0.000 A 
ATOM     34  C   UNL     1       6.308   4.931  14.727  0.00  0.00    +0.000 A 
ATOM     35  N   UNL     1       7.500   4.768  15.331  0.00  0.00    +0.000 NA
ATOM     36  C   UNL     1       7.454   4.590  16.656  0.00  0.00    +0.000 A 
ATOM     37  N   UNL     1       6.345   4.565  17.405  0.00  0.00    +0.000 NA
ENDBRANCH  28  32
ENDBRANCH  23  26
ENDBRANCH   1  23
TORSDOF 6
ENDMDL
MODEL 9
REMARK VINA RESULT:      -8.1      2.437      3.830
REMARK  Name = 
REMARK  7 active torsions:
REMARK  status: ('A' for Active; 'I' for Inactive)
REMARK    1  A    between atoms: C_1  and  N_2
REMARK    2  A    between atoms: C_3  and  O_4
REMARK    3  A    between atoms: O_4  and  C_5
REMARK    4  A    between atoms: N_8  and  C_9
REMARK    5  A    between atoms: C_14  and  C_15
REMARK    6  A    between atoms: C_15  and  N_16
REMARK    7  A    between atoms: C_28  and  C_29
REMARK                            x       y       z     vdW  Elec       q    Type
REMARK                         _______ _______ _______ _____ _____    ______ ____
ROOT
ATOM      1  C   UNL     1       2.156   8.087  19.796  0.00  0.00    +0.000 C 
ATOM      2  C   UNL     1       1.242   8.618  20.889  0.00  0.00    +0.000 C 
ATOM      3  C   UNL     1      -0.046   9.298  20.416  0.00  0.00    +0.000 C 
ATOM      4  N   UNL     1      -0.105   9.829  19.037  0.00  0.00    +0.000 N 
ATOM      5  C   UNL     1       1.079   9.763  18.183  0.00  0.00    +0.000 C 
ATOM      6  C   UNL     1       2.366   9.250  18.837  0.00  0.00    +0.000 C 
ENDROOT
BRANCH   4   7
ATOM      7  C   UNL     1      -1.359  10.339  18.593  0.00  0.00    +0.000 A 
ATOM      8  C   UNL     1      -1.973   9.648  17.509  0.00  0.00    +0.000 A 
ATOM      9  C   UNL     1      -3.218   9.995  16.945  0.00  0.00    +0.000 A 
ATOM     10  C   UNL     1      -3.902  11.088  17.405  0.00  0.00    +0.000 A 
ATOM     11  C   UNL     1      -3.361  11.793  18.469  0.00  0.00    +0.000 A 
ATOM     12  C   UNL     1      -2.116  11.443  19.092  0.00  0.00    +0.000 A 
BRANCH  12  13
ATOM     13  C   UNL     1      -1.868  12.315  20.304  0.00  0.00    +0.000 C 
BRANCH  13  14
ATOM     14  N   UNL     1      -2.931  13.106  20.862  0.00  0.00    +0.000 NA
ATOM     15  C   UNL     1      -3.112  14.561  20.935  0.00  0.00    +0.000 C 
ATOM     16  C   UNL     1      -4.309  14.690  21.883  0.00  0.00    +0.000 A 
ATOM     17  C   UNL     1      -4.729  15.649  22.777  0.00  0.00    +0.000 A 
ATOM     18  C   UNL     1      -5.759  15.307  23.685  0.00  0.00    +0.000 A 
ATOM     19  C   UNL     1      -6.444  14.078  23.610  0.00  0.00    +0.000 A 
ATOM     20  C   UNL     1      -5.990  13.104  22.750  0.00  0.00    +0.000 A 
ATOM     21  C   UNL     1      -4.839  13.414  22.061  0.00  0.00    +0.000 A 
ATOM     22  C   UNL     1      -3.668  12.510  21.937  0.00  0.00    +0.000 C 
ENDBRANCH  13  14
ENDBRANCH  12  13
ENDBRANCH   4   7
BRANCH   1  23
ATOM     23  O   UNL     1       1.551   6.921  19.189  0.00  0.00    +0.000 OA
BRANCH  23  26
ATOM     24  C   UNL     1       0.860   4.528  20.257  0.00  0.00    +0.000 C 
ATOM     25  N   UNL     1       1.861   4.648  19.216  0.00  0.00    +0.000 N 
ATOM     26  C   UNL     1       2.279   5.863  18.713  0.00  0.00    +0.000 A 
ATOM     27  N   UNL     1       3.245   5.994  17.858  0.00  0.00    +0.000 NA
ATOM     28  C   UNL     1       3.889   4.829  17.459  0.00  0.00    +0.000 A 
ATOM     29  C   UNL     1       3.496   3.596  17.820  0.00  0.00    +0.000 A 
ATOM     30  C   UNL     1       2.380   3.458  18.743  0.00  0.00    +0.000 A 
ATOM     31  O   UNL     1       1.984   2.341  19.047  0.00  0.00    +0.000 OA
BRANCH  28  32
ATOM     32  C   UNL     1       5.094   4.889  16.582  0.00  0.00    +0.000 A 
ATOM     33  C   UNL     1       5.129   4.231  15.371  0.00  0.00    +0.000 A 
ATOM     34  C   UNL     1       6.296   4.352  14.650  0.00  0.00    +0.000 A 
ATOM     35  N   UNL     1       7.365   5.060  15.063  0.00  0.00    +0.000 NA
ATOM     36  C   UNL     1       7.235   5.656  16.253  0.00  0.00    +0.000 A 
ATOM     37  N   UNL     1       6.154   5.604  17.042  0.00  0.00    +0.000 NA
ENDBRANCH  28  32
ENDBRANCH  23  26
ENDBRANCH   1  23
TORSDOF 6
ENDMDL
