MODEL 1
REMARK VINA RESULT:      -7.3      0.000      0.000
REMARK  Name = 
REMARK  6 active torsions:
REMARK  status: ('A' for Active; 'I' for Inactive)
REMARK    1  A    between atoms: C_2  and  C_3
REMARK    2  A    between atoms: C_3  and  O_4
REMARK    3  A    between atoms: O_4  and  C_5
REMARK    4  A    between atoms: C_16  and  C_17
REMARK    5  A    between atoms: C_19  and  C_20
REMARK    6  A    between atoms: C_23  and  N_24
REMARK                            x       y       z     vdW  Elec       q    Type
REMARK                         _______ _______ _______ _____ _____    ______ ____
ROOT
ATOM      1  O   UNL     1       3.830   3.118  16.570  0.00  0.00    +0.000 OA
ATOM      2  C   UNL     1       3.722   4.287  16.976  0.00  0.00    +0.000 C 
ATOM      3  N   UNL     1       4.854   5.102  17.115  0.00  0.00    +0.000 N 
ATOM      4  C   UNL     1       6.094   4.462  16.639  0.00  0.00    +0.000 C 
ATOM      5  C   UNL     1       7.343   4.957  17.353  0.00  0.00    +0.000 C 
ATOM      6  C   UNL     1       7.459   6.469  17.289  0.00  0.00    +0.000 C 
ATOM      7  C   UNL     1       6.179   7.119  17.786  0.00  0.00    +0.000 C 
ATOM      8  C   UNL     1       4.915   6.594  17.067  0.00  0.00    +0.000 C 
ENDROOT
BRANCH   8   9
ATOM      9  C   UNL     1       3.748   7.343  17.615  0.00  0.00    +0.000 A 
ATOM     10  N   UNL     1       3.290   7.384  18.848  0.00  0.00    +0.000 NA
ATOM     11  C   UNL     1       2.227   8.246  18.734  0.00  0.00    +0.000 A 
ATOM     12  N   UNL     1       2.002   8.692  17.491  0.00  0.00    +0.000 NA
ATOM     13  O   UNL     1       3.017   8.098  16.743  0.00  0.00    +0.000 OA
BRANCH  11  14
ATOM     14  C   UNL     1       1.419   8.682  19.906  0.00  0.00    +0.000 A 
ATOM     15  C   UNL     1       1.144   7.915  21.029  0.00  0.00    +0.000 A 
ATOM     16  C   UNL     1       0.390   8.727  21.911  0.00  0.00    +0.000 A 
ATOM     17  C   UNL     1       0.224   9.920  21.251  0.00  0.00    +0.000 A 
ATOM     18  O   UNL     1       0.827   9.912  20.035  0.00  0.00    +0.000 OA
BRANCH  17  19
ATOM     19  N   UNL     1      -0.437  11.125  21.626  0.00  0.00    +0.000 N 
ATOM     20  O   UNL     1      -1.100  11.684  20.737  0.00  0.00    +0.000 OA
ATOM     21  O   UNL     1      -0.302  11.529  22.788  0.00  0.00    +0.000 OA
ENDBRANCH  17  19
ENDBRANCH  11  14
ENDBRANCH   8   9
BRANCH   2  22
ATOM     22  C   UNL     1       2.317   4.754  17.359  0.00  0.00    +0.000 C 
BRANCH  22  23
ATOM     23  O   UNL     1       1.550   3.672  17.880  0.00  0.00    +0.000 OA
BRANCH  23  24
ATOM     24  C   UNL     1       1.740   3.443  19.220  0.00  0.00    +0.000 A 
ATOM     25  C   UNL     1       1.893   4.569  20.031  0.00  0.00    +0.000 A 
ATOM     26  C   UNL     1       2.111   4.421  21.405  0.00  0.00    +0.000 A 
ATOM     27  C   UNL     1       2.145   3.150  21.976  0.00  0.00    +0.000 A 
ATOM     28  C   UNL     1       1.955   2.027  21.175  0.00  0.00    +0.000 A 
ATOM     29  C   UNL     1       1.755   2.172  19.801  0.00  0.00    +0.000 A 
ENDBRANCH  23  24
ENDBRANCH  22  23
ENDBRANCH   2  22
TORSDOF 6
ENDMDL
MODEL 2
REMARK VINA RESULT:      -7.3      0.405      1.117
REMARK  Name = 
REMARK  6 active torsions:
REMARK  status: ('A' for Active; 'I' for Inactive)
REMARK    1  A    between atoms: C_2  and  C_3
REMARK    2  A    between atoms: C_3  and  O_4
REMARK    3  A    between atoms: O_4  and  C_5
REMARK    4  A    between atoms: C_16  and  C_17
REMARK    5  A    between atoms: C_19  and  C_20
REMARK    6  A    between atoms: C_23  and  N_24
REMARK                            x       y       z     vdW  Elec       q    Type
REMARK                         _______ _______ _______ _____ _____    ______ ____
ROOT
ATOM      1  O   UNL     1       3.200   3.062  16.622  0.00  0.00    +0.000 OA
ATOM      2  C   UNL     1       3.220   4.242  17.010  0.00  0.00    +0.000 C 
ATOM      3  N   UNL     1       4.427   4.951  17.077  0.00  0.00    +0.000 N 
ATOM      4  C   UNL     1       5.577   4.193  16.552  0.00  0.00    +0.000 C 
ATOM      5  C   UNL     1       6.902   4.581  17.194  0.00  0.00    +0.000 C 
ATOM      6  C   UNL     1       7.152   6.075  17.094  0.00  0.00    +0.000 C 
ATOM      7  C   UNL     1       5.963   6.847  17.643  0.00  0.00    +0.000 C 
ATOM      8  C   UNL     1       4.621   6.430  16.998  0.00  0.00    +0.000 C 
ENDROOT
BRANCH   8   9
ATOM      9  C   UNL     1       3.557   7.292  17.588  0.00  0.00    +0.000 A 
ATOM     10  N   UNL     1       3.131   7.352  18.832  0.00  0.00    +0.000 NA
ATOM     11  C   UNL     1       2.169   8.331  18.762  0.00  0.00    +0.000 A 
ATOM     12  N   UNL     1       1.972   8.831  17.535  0.00  0.00    +0.000 NA
ATOM     13  O   UNL     1       2.899   8.146  16.751  0.00  0.00    +0.000 OA
BRANCH  11  14
ATOM     14  C   UNL     1       1.439   8.824  19.961  0.00  0.00    +0.000 A 
ATOM     15  C   UNL     1       1.138   8.075  21.090  0.00  0.00    +0.000 A 
ATOM     16  C   UNL     1       0.483   8.941  21.999  0.00  0.00    +0.000 A 
ATOM     17  C   UNL     1       0.393  10.147  21.349  0.00  0.00    +0.000 A 
ATOM     18  O   UNL     1       0.954  10.097  20.114  0.00  0.00    +0.000 OA
BRANCH  17  19
ATOM     19  N   UNL     1      -0.153  11.401  21.750  0.00  0.00    +0.000 N 
ATOM     20  O   UNL     1      -0.463  11.503  22.949  0.00  0.00    +0.000 OA
ATOM     21  O   UNL     1      -0.284  12.282  20.892  0.00  0.00    +0.000 OA
ENDBRANCH  17  19
ENDBRANCH  11  14
ENDBRANCH   8   9
BRANCH   2  22
ATOM     22  C   UNL     1       1.885   4.842  17.454  0.00  0.00    +0.000 C 
BRANCH  22  23
ATOM     23  O   UNL     1       1.084   3.862  18.108  0.00  0.00    +0.000 OA
BRANCH  23  24
ATOM     24  C   UNL     1       1.437   3.627  19.413  0.00  0.00    +0.000 A 
ATOM     25  C   UNL     1       1.481   2.292  19.818  0.00  0.00    +0.000 A 
ATOM     26  C   UNL     1       1.812   1.967  21.138  0.00  0.00    +0.000 A 
ATOM     27  C   UNL     1       2.130   2.975  22.047  0.00  0.00    +0.000 A 
ATOM     28  C   UNL     1       2.124   4.305  21.637  0.00  0.00    +0.000 A 
ATOM     29  C   UNL     1       1.776   4.631  20.324  0.00  0.00    +0.000 A 
ENDBRANCH  23  24
ENDBRANCH  22  23
ENDBRANCH   2  22
TORSDOF 6
ENDMDL
MODEL 3
REMARK VINA RESULT:      -7.1      3.439      7.443
REMARK  Name = 
REMARK  6 active torsions:
REMARK  status: ('A' for Active; 'I' for Inactive)
REMARK    1  A    between atoms: C_2  and  C_3
REMARK    2  A    between atoms: C_3  and  O_4
REMARK    3  A    between atoms: O_4  and  C_5
REMARK    4  A    between atoms: C_16  and  C_17
REMARK    5  A    between atoms: C_19  and  C_20
REMARK    6  A    between atoms: C_23  and  N_24
REMARK                            x       y       z     vdW  Elec       q    Type
REMARK                         _______ _______ _______ _____ _____    ______ ____
ROOT
ATOM      1  O   UNL     1       3.813   4.861  20.607  0.00  0.00    +0.000 OA
ATOM      2  C   UNL     1       4.219   5.200  19.483  0.00  0.00    +0.000 C 
ATOM      3  N   UNL     1       3.709   6.346  18.857  0.00  0.00    +0.000 N 
ATOM      4  C   UNL     1       2.771   7.104  19.704  0.00  0.00    +0.000 C 
ATOM      5  C   UNL     1       1.729   7.880  18.911  0.00  0.00    +0.000 C 
ATOM      6  C   UNL     1       2.377   8.787  17.880  0.00  0.00    +0.000 C 
ATOM      7  C   UNL     1       3.337   7.995  17.008  0.00  0.00    +0.000 C 
ATOM      8  C   UNL     1       4.378   7.196  17.826  0.00  0.00    +0.000 C 
ENDROOT
BRANCH   8   9
ATOM      9  C   UNL     1       5.277   6.510  16.854  0.00  0.00    +0.000 A 
ATOM     10  N   UNL     1       4.966   5.841  15.764  0.00  0.00    +0.000 NA
ATOM     11  C   UNL     1       6.202   5.472  15.289  0.00  0.00    +0.000 A 
ATOM     12  N   UNL     1       7.230   5.852  16.058  0.00  0.00    +0.000 NA
ATOM     13  O   UNL     1       6.619   6.550  17.098  0.00  0.00    +0.000 OA
BRANCH  11  14
ATOM     14  C   UNL     1       6.381   4.746  14.002  0.00  0.00    +0.000 A 
ATOM     15  C   UNL     1       7.499   4.818  13.183  0.00  0.00    +0.000 A 
ATOM     16  C   UNL     1       7.271   3.940  12.094  0.00  0.00    +0.000 A 
ATOM     17  C   UNL     1       6.017   3.423  12.303  0.00  0.00    +0.000 A 
ATOM     18  O   UNL     1       5.457   3.903  13.443  0.00  0.00    +0.000 OA
BRANCH  17  19
ATOM     19  N   UNL     1       5.243   2.487  11.559  0.00  0.00    +0.000 N 
ATOM     20  O   UNL     1       5.796   1.404  11.300  0.00  0.00    +0.000 OA
ATOM     21  O   UNL     1       4.097   2.811  11.222  0.00  0.00    +0.000 OA
ENDBRANCH  17  19
ENDBRANCH  11  14
ENDBRANCH   8   9
BRANCH   2  22
ATOM     22  C   UNL     1       5.243   4.282  18.816  0.00  0.00    +0.000 C 
BRANCH  22  23
ATOM     23  O   UNL     1       4.623   3.470  17.824  0.00  0.00    +0.000 OA
BRANCH  23  24
ATOM     24  C   UNL     1       3.352   3.063  18.144  0.00  0.00    +0.000 A 
ATOM     25  C   UNL     1       2.303   3.812  17.607  0.00  0.00    +0.000 A 
ATOM     26  C   UNL     1       0.977   3.477  17.900  0.00  0.00    +0.000 A 
ATOM     27  C   UNL     1       0.696   2.374  18.705  0.00  0.00    +0.000 A 
ATOM     28  C   UNL     1       1.739   1.603  19.211  0.00  0.00    +0.000 A 
ATOM     29  C   UNL     1       3.063   1.947  18.933  0.00  0.00    +0.000 A 
ENDBRANCH  23  24
ENDBRANCH  22  23
ENDBRANCH   2  22
TORSDOF 6
ENDMDL
MODEL 4
REMARK VINA RESULT:      -7.0      4.218      9.506
REMARK  Name = 
REMARK  6 active torsions:
REMARK  status: ('A' for Active; 'I' for Inactive)
REMARK    1  A    between atoms: C_2  and  C_3
REMARK    2  A    between atoms: C_3  and  O_4
REMARK    3  A    between atoms: O_4  and  C_5
REMARK    4  A    between atoms: C_16  and  C_17
REMARK    5  A    between atoms: C_19  and  C_20
REMARK    6  A    between atoms: C_23  and  N_24
REMARK                            x       y       z     vdW  Elec       q    Type
REMARK                         _______ _______ _______ _____ _____    ______ ____
ROOT
ATOM      1  O   UNL     1      -5.141  13.144  20.904  0.00  0.00    +0.000 OA
ATOM      2  C   UNL     1      -3.913  12.972  20.990  0.00  0.00    +0.000 C 
ATOM      3  N   UNL     1      -3.202  13.445  22.102  0.00  0.00    +0.000 N 
ATOM      4  C   UNL     1      -4.068  14.036  23.138  0.00  0.00    +0.000 C 
ATOM      5  C   UNL     1      -3.377  15.113  23.962  0.00  0.00    +0.000 C 
ATOM      6  C   UNL     1      -2.082  14.604  24.569  0.00  0.00    +0.000 C 
ATOM      7  C   UNL     1      -1.195  14.002  23.492  0.00  0.00    +0.000 C 
ATOM      8  C   UNL     1      -1.913  12.924  22.649  0.00  0.00    +0.000 C 
ENDROOT
BRANCH   8   9
ATOM      9  C   UNL     1      -0.922  12.390  21.671  0.00  0.00    +0.000 A 
ATOM     10  N   UNL     1      -0.609  11.139  21.405  0.00  0.00    +0.000 NA
ATOM     11  C   UNL     1       0.336  11.283  20.417  0.00  0.00    +0.000 A 
ATOM     12  N   UNL     1       0.630  12.552  20.107  0.00  0.00    +0.000 NA
ATOM     13  O   UNL     1      -0.210  13.293  20.936  0.00  0.00    +0.000 OA
BRANCH  11  14
ATOM     14  C   UNL     1       0.948  10.119  19.719  0.00  0.00    +0.000 A 
ATOM     15  C   UNL     1       1.288  10.070  18.375  0.00  0.00    +0.000 A 
ATOM     16  C   UNL     1       1.880   8.804  18.143  0.00  0.00    +0.000 A 
ATOM     17  C   UNL     1       1.826   8.153  19.351  0.00  0.00    +0.000 A 
ATOM     18  O   UNL     1       1.258   8.924  20.314  0.00  0.00    +0.000 OA
BRANCH  17  19
ATOM     19  N   UNL     1       2.268   6.859  19.750  0.00  0.00    +0.000 N 
ATOM     20  O   UNL     1       1.650   6.337  20.693  0.00  0.00    +0.000 OA
ATOM     21  O   UNL     1       3.223   6.355  19.146  0.00  0.00    +0.000 OA
ENDBRANCH  17  19
ENDBRANCH  11  14
ENDBRANCH   8   9
BRANCH   2  22
ATOM     22  C   UNL     1      -3.233  12.278  19.810  0.00  0.00    +0.000 C 
BRANCH  22  23
ATOM     23  O   UNL     1      -4.176  11.992  18.781  0.00  0.00    +0.000 OA
BRANCH  23  24
ATOM     24  C   UNL     1      -3.660  11.280  17.727  0.00  0.00    +0.000 A 
ATOM     25  C   UNL     1      -4.365  11.346  16.523  0.00  0.00    +0.000 A 
ATOM     26  C   UNL     1      -3.917  10.634  15.406  0.00  0.00    +0.000 A 
ATOM     27  C   UNL     1      -2.748   9.879  15.480  0.00  0.00    +0.000 A 
ATOM     28  C   UNL     1      -2.022   9.841  16.668  0.00  0.00    +0.000 A 
ATOM     29  C   UNL     1      -2.478  10.538  17.789  0.00  0.00    +0.000 A 
ENDBRANCH  23  24
ENDBRANCH  22  23
ENDBRANCH   2  22
TORSDOF 6
ENDMDL
MODEL 5
REMARK VINA RESULT:      -6.9      1.060      1.214
REMARK  Name = 
REMARK  6 active torsions:
REMARK  status: ('A' for Active; 'I' for Inactive)
REMARK    1  A    between atoms: C_2  and  C_3
REMARK    2  A    between atoms: C_3  and  O_4
REMARK    3  A    between atoms: O_4  and  C_5
REMARK    4  A    between atoms: C_16  and  C_17
REMARK    5  A    between atoms: C_19  and  C_20
REMARK    6  A    between atoms: C_23  and  N_24
REMARK                            x       y       z     vdW  Elec       q    Type
REMARK                         _______ _______ _______ _____ _____    ______ ____
ROOT
ATOM      1  O   UNL     1       3.688   3.060  16.997  0.00  0.00    +0.000 OA
ATOM      2  C   UNL     1       3.608   4.273  17.257  0.00  0.00    +0.000 C 
ATOM      3  N   UNL     1       4.766   5.054  17.379  0.00  0.00    +0.000 N 
ATOM      4  C   UNL     1       6.003   4.315  17.067  0.00  0.00    +0.000 C 
ATOM      5  C   UNL     1       7.226   4.842  17.804  0.00  0.00    +0.000 C 
ATOM      6  C   UNL     1       7.415   6.330  17.574  0.00  0.00    +0.000 C 
ATOM      7  C   UNL     1       6.137   7.083  17.904  0.00  0.00    +0.000 C 
ATOM      8  C   UNL     1       4.899   6.526  17.165  0.00  0.00    +0.000 C 
ENDROOT
BRANCH   8   9
ATOM      9  C   UNL     1       3.735   7.379  17.541  0.00  0.00    +0.000 A 
ATOM     10  N   UNL     1       3.187   7.564  18.724  0.00  0.00    +0.000 NA
ATOM     11  C   UNL     1       2.183   8.458  18.441  0.00  0.00    +0.000 A 
ATOM     12  N   UNL     1       2.079   8.788  17.147  0.00  0.00    +0.000 NA
ATOM     13  O   UNL     1       3.115   8.076  16.545  0.00  0.00    +0.000 OA
BRANCH  11  14
ATOM     14  C   UNL     1       1.313   9.045  19.496  0.00  0.00    +0.000 A 
ATOM     15  C   UNL     1       0.229   9.883  19.277  0.00  0.00    +0.000 A 
ATOM     16  C   UNL     1      -0.339  10.167  20.543  0.00  0.00    +0.000 A 
ATOM     17  C   UNL     1       0.459   9.515  21.451  0.00  0.00    +0.000 A 
ATOM     18  O   UNL     1       1.468   8.840  20.843  0.00  0.00    +0.000 OA
BRANCH  17  19
ATOM     19  N   UNL     1       0.393   9.417  22.871  0.00  0.00    +0.000 N 
ATOM     20  O   UNL     1      -0.739   9.252  23.355  0.00  0.00    +0.000 OA
ATOM     21  O   UNL     1       1.447   9.509  23.513  0.00  0.00    +0.000 OA
ENDBRANCH  17  19
ENDBRANCH  11  14
ENDBRANCH   8   9
BRANCH   2  22
ATOM     22  C   UNL     1       2.206   4.835  17.487  0.00  0.00    +0.000 C 
BRANCH  22  23
ATOM     23  O   UNL     1       1.351   3.844  18.051  0.00  0.00    +0.000 OA
BRANCH  23  24
ATOM     24  C   UNL     1       1.574   3.602  19.383  0.00  0.00    +0.000 A 
ATOM     25  C   UNL     1       1.945   4.698  20.165  0.00  0.00    +0.000 A 
ATOM     26  C   UNL     1       2.210   4.532  21.528  0.00  0.00    +0.000 A 
ATOM     27  C   UNL     1       2.075   3.277  22.120  0.00  0.00    +0.000 A 
ATOM     28  C   UNL     1       1.669   2.190  21.351  0.00  0.00    +0.000 A 
ATOM     29  C   UNL     1       1.421   2.351  19.987  0.00  0.00    +0.000 A 
ENDBRANCH  23  24
ENDBRANCH  22  23
ENDBRANCH   2  22
TORSDOF 6
ENDMDL
MODEL 6
REMARK VINA RESULT:      -6.9      1.227      1.581
REMARK  Name = 
REMARK  6 active torsions:
REMARK  status: ('A' for Active; 'I' for Inactive)
REMARK    1  A    between atoms: C_2  and  C_3
REMARK    2  A    between atoms: C_3  and  O_4
REMARK    3  A    between atoms: O_4  and  C_5
REMARK    4  A    between atoms: C_16  and  C_17
REMARK    5  A    between atoms: C_19  and  C_20
REMARK    6  A    between atoms: C_23  and  N_24
REMARK                            x       y       z     vdW  Elec       q    Type
REMARK                         _______ _______ _______ _____ _____    ______ ____
ROOT
ATOM      1  O   UNL     1       2.966   3.042  16.111  0.00  0.00    +0.000 OA
ATOM      2  C   UNL     1       3.062   4.098  16.759  0.00  0.00    +0.000 C 
ATOM      3  N   UNL     1       4.284   4.780  16.834  0.00  0.00    +0.000 N 
ATOM      4  C   UNL     1       5.341   4.175  16.004  0.00  0.00    +0.000 C 
ATOM      5  C   UNL     1       6.744   4.410  16.544  0.00  0.00    +0.000 C 
ATOM      6  C   UNL     1       7.014   5.888  16.766  0.00  0.00    +0.000 C 
ATOM      7  C   UNL     1       5.923   6.501  17.627  0.00  0.00    +0.000 C 
ATOM      8  C   UNL     1       4.501   6.238  17.080  0.00  0.00    +0.000 C 
ENDROOT
BRANCH   8   9
ATOM      9  C   UNL     1       3.540   6.929  17.987  0.00  0.00    +0.000 A 
ATOM     10  N   UNL     1       2.851   8.032  17.783  0.00  0.00    +0.000 NA
ATOM     11  C   UNL     1       2.140   8.148  18.953  0.00  0.00    +0.000 A 
ATOM     12  N   UNL     1       2.396   7.195  19.858  0.00  0.00    +0.000 NA
ATOM     13  O   UNL     1       3.323   6.377  19.217  0.00  0.00    +0.000 OA
BRANCH  11  14
ATOM     14  C   UNL     1       1.134   9.223  19.175  0.00  0.00    +0.000 A 
ATOM     15  C   UNL     1       0.361   9.823  18.192  0.00  0.00    +0.000 A 
ATOM     16  C   UNL     1      -0.488  10.753  18.842  0.00  0.00    +0.000 A 
ATOM     17  C   UNL     1      -0.149  10.684  20.170  0.00  0.00    +0.000 A 
ATOM     18  O   UNL     1       0.835   9.775  20.394  0.00  0.00    +0.000 OA
BRANCH  17  19
ATOM     19  N   UNL     1      -0.654  11.369  21.313  0.00  0.00    +0.000 N 
ATOM     20  O   UNL     1      -1.671  12.058  21.131  0.00  0.00    +0.000 OA
ATOM     21  O   UNL     1      -0.052  11.239  22.386  0.00  0.00    +0.000 OA
ENDBRANCH  17  19
ENDBRANCH  11  14
ENDBRANCH   8   9
BRANCH   2  22
ATOM     22  C   UNL     1       1.808   4.567  17.498  0.00  0.00    +0.000 C 
BRANCH  22  23
ATOM     23  O   UNL     1       1.123   3.462  18.081  0.00  0.00    +0.000 OA
BRANCH  23  24
ATOM     24  C   UNL     1       1.540   3.147  19.349  0.00  0.00    +0.000 A 
ATOM     25  C   UNL     1       2.866   2.731  19.486  0.00  0.00    +0.000 A 
ATOM     26  C   UNL     1       3.366   2.372  20.742  0.00  0.00    +0.000 A 
ATOM     27  C   UNL     1       2.550   2.458  21.869  0.00  0.00    +0.000 A 
ATOM     28  C   UNL     1       1.238   2.908  21.742  0.00  0.00    +0.000 A 
ATOM     29  C   UNL     1       0.734   3.250  20.486  0.00  0.00    +0.000 A 
ENDBRANCH  23  24
ENDBRANCH  22  23
ENDBRANCH   2  22
TORSDOF 6
ENDMDL
MODEL 7
REMARK VINA RESULT:      -6.9      2.096      2.759
REMARK  Name = 
REMARK  6 active torsions:
REMARK  status: ('A' for Active; 'I' for Inactive)
REMARK    1  A    between atoms: C_2  and  C_3
REMARK    2  A    between atoms: C_3  and  O_4
REMARK    3  A    between atoms: O_4  and  C_5
REMARK    4  A    between atoms: C_16  and  C_17
REMARK    5  A    between atoms: C_19  and  C_20
REMARK    6  A    between atoms: C_23  and  N_24
REMARK                            x       y       z     vdW  Elec       q    Type
REMARK                         _______ _______ _______ _____ _____    ______ ____
ROOT
ATOM      1  O   UNL     1       7.787   4.363  18.554  0.00  0.00    +0.000 OA
ATOM      2  C   UNL     1       6.694   4.835  18.197  0.00  0.00    +0.000 C 
ATOM      3  N   UNL     1       6.378   4.949  16.836  0.00  0.00    +0.000 N 
ATOM      4  C   UNL     1       7.402   4.367  15.949  0.00  0.00    +0.000 C 
ATOM      5  C   UNL     1       7.466   5.031  14.581  0.00  0.00    +0.000 C 
ATOM      6  C   UNL     1       6.108   5.039  13.902  0.00  0.00    +0.000 C 
ATOM      7  C   UNL     1       5.061   5.646  14.822  0.00  0.00    +0.000 C 
ATOM      8  C   UNL     1       5.019   4.977  16.215  0.00  0.00    +0.000 C 
ENDROOT
BRANCH   8   9
ATOM      9  C   UNL     1       3.927   5.632  16.991  0.00  0.00    +0.000 A 
ATOM     10  N   UNL     1       3.840   6.874  17.417  0.00  0.00    +0.000 NA
ATOM     11  C   UNL     1       2.615   6.881  18.039  0.00  0.00    +0.000 A 
ATOM     12  N   UNL     1       1.984   5.700  18.040  0.00  0.00    +0.000 NA
ATOM     13  O   UNL     1       2.851   4.866  17.337  0.00  0.00    +0.000 OA
BRANCH  11  14
ATOM     14  C   UNL     1       2.021   8.113  18.625  0.00  0.00    +0.000 A 
ATOM     15  C   UNL     1       1.768   9.294  17.940  0.00  0.00    +0.000 A 
ATOM     16  C   UNL     1       1.161  10.185  18.860  0.00  0.00    +0.000 A 
ATOM     17  C   UNL     1       1.119   9.502  20.050  0.00  0.00    +0.000 A 
ATOM     18  O   UNL     1       1.642   8.254  19.935  0.00  0.00    +0.000 OA
BRANCH  17  19
ATOM     19  N   UNL     1       0.619   9.866  21.334  0.00  0.00    +0.000 N 
ATOM     20  O   UNL     1      -0.021   8.991  21.939  0.00  0.00    +0.000 OA
ATOM     21  O   UNL     1       0.847  11.010  21.747  0.00  0.00    +0.000 OA
ENDBRANCH  17  19
ENDBRANCH  11  14
ENDBRANCH   8   9
BRANCH   2  22
ATOM     22  C   UNL     1       5.763   5.325  19.305  0.00  0.00    +0.000 C 
BRANCH  22  23
ATOM     23  O   UNL     1       5.500   4.284  20.241  0.00  0.00    +0.000 OA
BRANCH  23  24
ATOM     24  C   UNL     1       4.355   3.572  19.983  0.00  0.00    +0.000 A 
ATOM     25  C   UNL     1       3.203   3.973  20.662  0.00  0.00    +0.000 A 
ATOM     26  C   UNL     1       1.999   3.287  20.472  0.00  0.00    +0.000 A 
ATOM     27  C   UNL     1       1.936   2.219  19.578  0.00  0.00    +0.000 A 
ATOM     28  C   UNL     1       3.075   1.840  18.871  0.00  0.00    +0.000 A 
ATOM     29  C   UNL     1       4.281   2.513  19.074  0.00  0.00    +0.000 A 
ENDBRANCH  23  24
ENDBRANCH  22  23
ENDBRANCH   2  22
TORSDOF 6
ENDMDL
MODEL 8
REMARK VINA RESULT:      -6.9      2.100      4.695
REMARK  Name = 
REMARK  6 active torsions:
REMARK  status: ('A' for Active; 'I' for Inactive)
REMARK    1  A    between atoms: C_2  and  C_3
REMARK    2  A    between atoms: C_3  and  O_4
REMARK    3  A    between atoms: O_4  and  C_5
REMARK    4  A    between atoms: C_16  and  C_17
REMARK    5  A    between atoms: C_19  and  C_20
REMARK    6  A    between atoms: C_23  and  N_24
REMARK                            x       y       z     vdW  Elec       q    Type
REMARK                         _______ _______ _______ _____ _____    ______ ____
ROOT
ATOM      1  O   UNL     1       5.848   4.009  19.514  0.00  0.00    +0.000 OA
ATOM      2  C   UNL     1       4.835   4.717  19.385  0.00  0.00    +0.000 C 
ATOM      3  N   UNL     1       3.569   4.218  19.720  0.00  0.00    +0.000 N 
ATOM      4  C   UNL     1       3.613   2.868  20.312  0.00  0.00    +0.000 C 
ATOM      5  C   UNL     1       2.353   2.054  20.057  0.00  0.00    +0.000 C 
ATOM      6  C   UNL     1       1.109   2.798  20.507  0.00  0.00    +0.000 C 
ATOM      7  C   UNL     1       1.070   4.185  19.887  0.00  0.00    +0.000 C 
ATOM      8  C   UNL     1       2.363   4.996  20.136  0.00  0.00    +0.000 C 
ENDROOT
BRANCH   8   9
ATOM      9  C   UNL     1       2.172   6.340  19.520  0.00  0.00    +0.000 A 
ATOM     10  N   UNL     1       1.886   7.487  20.100  0.00  0.00    +0.000 NA
ATOM     11  C   UNL     1       1.859   8.352  19.032  0.00  0.00    +0.000 A 
ATOM     12  N   UNL     1       2.075   7.775  17.843  0.00  0.00    +0.000 NA
ATOM     13  O   UNL     1       2.291   6.436  18.163  0.00  0.00    +0.000 OA
BRANCH  11  14
ATOM     14  C   UNL     1       1.650   9.816  19.193  0.00  0.00    +0.000 A 
ATOM     15  C   UNL     1       1.962  10.786  18.251  0.00  0.00    +0.000 A 
ATOM     16  C   UNL     1       1.559  12.033  18.791  0.00  0.00    +0.000 A 
ATOM     17  C   UNL     1       1.064  11.744  20.038  0.00  0.00    +0.000 A 
ATOM     18  O   UNL     1       1.119  10.414  20.307  0.00  0.00    +0.000 OA
BRANCH  17  19
ATOM     19  N   UNL     1       0.506  12.575  21.052  0.00  0.00    +0.000 N 
ATOM     20  O   UNL     1      -0.694  12.390  21.311  0.00  0.00    +0.000 OA
ATOM     21  O   UNL     1       1.240  13.414  21.590  0.00  0.00    +0.000 OA
ENDBRANCH  17  19
ENDBRANCH  11  14
ENDBRANCH   8   9
BRANCH   2  22
ATOM     22  C   UNL     1       5.043   6.114  18.800  0.00  0.00    +0.000 C 
BRANCH  22  23
ATOM     23  O   UNL     1       6.284   6.190  18.104  0.00  0.00    +0.000 OA
BRANCH  23  24
ATOM     24  C   UNL     1       6.257   5.645  16.845  0.00  0.00    +0.000 A 
ATOM     25  C   UNL     1       5.300   6.154  15.964  0.00  0.00    +0.000 A 
ATOM     26  C   UNL     1       5.192   5.639  14.668  0.00  0.00    +0.000 A 
ATOM     27  C   UNL     1       6.061   4.638  14.239  0.00  0.00    +0.000 A 
ATOM     28  C   UNL     1       7.041   4.155  15.101  0.00  0.00    +0.000 A 
ATOM     29  C   UNL     1       7.138   4.656  16.401  0.00  0.00    +0.000 A 
ENDBRANCH  23  24
ENDBRANCH  22  23
ENDBRANCH   2  22
TORSDOF 6
ENDMDL
MODEL 9
REMARK VINA RESULT:      -6.8      2.065      2.368
REMARK  Name = 
REMARK  6 active torsions:
REMARK  status: ('A' for Active; 'I' for Inactive)
REMARK    1  A    between atoms: C_2  and  C_3
REMARK    2  A    between atoms: C_3  and  O_4
REMARK    3  A    between atoms: O_4  and  C_5
REMARK    4  A    between atoms: C_16  and  C_17
REMARK    5  A    between atoms: C_19  and  C_20
REMARK    6  A    between atoms: C_23  and  N_24
REMARK                            x       y       z     vdW  Elec       q    Type
REMARK                         _______ _______ _______ _____ _____    ______ ____
ROOT
ATOM      1  O   UNL     1       3.823   3.236  16.366  0.00  0.00    +0.000 OA
ATOM      2  C   UNL     1       3.691   4.362  16.873  0.00  0.00    +0.000 C 
ATOM      3  N   UNL     1       4.789   5.226  16.988  0.00  0.00    +0.000 N 
ATOM      4  C   UNL     1       6.015   4.696  16.364  0.00  0.00    +0.000 C 
ATOM      5  C   UNL     1       7.293   5.204  17.015  0.00  0.00    +0.000 C 
ATOM      6  C   UNL     1       7.328   6.720  17.065  0.00  0.00    +0.000 C 
ATOM      7  C   UNL     1       6.063   7.257  17.714  0.00  0.00    +0.000 C 
ATOM      8  C   UNL     1       4.771   6.718  17.058  0.00  0.00    +0.000 C 
ENDROOT
BRANCH   8   9
ATOM      9  C   UNL     1       3.618   7.356  17.756  0.00  0.00    +0.000 A 
ATOM     10  N   UNL     1       2.835   8.332  17.347  0.00  0.00    +0.000 NA
ATOM     11  C   UNL     1       1.961   8.461  18.399  0.00  0.00    +0.000 A 
ATOM     12  N   UNL     1       2.204   7.641  19.430  0.00  0.00    +0.000 NA
ATOM     13  O   UNL     1       3.303   6.898  19.003  0.00  0.00    +0.000 OA
BRANCH  11  14
ATOM     14  C   UNL     1       0.811   9.406  18.374  0.00  0.00    +0.000 A 
ATOM     15  C   UNL     1       0.726  10.595  19.085  0.00  0.00    +0.000 A 
ATOM     16  C   UNL     1      -0.507  11.200  18.735  0.00  0.00    +0.000 A 
ATOM     17  C   UNL     1      -1.106  10.322  17.866  0.00  0.00    +0.000 A 
ATOM     18  O   UNL     1      -0.334   9.228  17.642  0.00  0.00    +0.000 OA
BRANCH  17  19
ATOM     19  N   UNL     1      -2.349  10.376  17.172  0.00  0.00    +0.000 N 
ATOM     20  O   UNL     1      -2.281  10.490  15.937  0.00  0.00    +0.000 OA
ATOM     21  O   UNL     1      -3.392  10.314  17.835  0.00  0.00    +0.000 OA
ENDBRANCH  17  19
ENDBRANCH  11  14
ENDBRANCH   8   9
BRANCH   2  22
ATOM     22  C   UNL     1       2.302   4.717  17.404  0.00  0.00    +0.000 C 
BRANCH  22  23
ATOM     23  O   UNL     1       1.628   3.553  17.874  0.00  0.00    +0.000 OA
BRANCH  23  24
ATOM     24  C   UNL     1       1.926   3.216  19.171  0.00  0.00    +0.000 A 
ATOM     25  C   UNL     1       0.952   3.500  20.130  0.00  0.00    +0.000 A 
ATOM     26  C   UNL     1       1.185   3.207  21.478  0.00  0.00    +0.000 A 
ATOM     27  C   UNL     1       2.379   2.600  21.865  0.00  0.00    +0.000 A 
ATOM     28  C   UNL     1       3.337   2.281  20.906  0.00  0.00    +0.000 A 
ATOM     29  C   UNL     1       3.112   2.590  19.563  0.00  0.00    +0.000 A 
ENDBRANCH  23  24
ENDBRANCH  22  23
ENDBRANCH   2  22
TORSDOF 6
ENDMDL
