MODEL 1
REMARK VINA RESULT:      -8.2      0.000      0.000
REMARK  Name = 
REMARK  12 active torsions:
REMARK  status: ('A' for Active; 'I' for Inactive)
REMARK    1  A    between atoms: C_2  and  C_4
REMARK    2  A    between atoms: C_4  and  C_5
REMARK    3  A    between atoms: C_5  and  O_6
REMARK    4  A    between atoms: C_5  and  C_7
REMARK    5  A    between atoms: C_7  and  C_8
REMARK    6  A    between atoms: C_8  and  O_9
REMARK    7  A    between atoms: C_8  and  C_10
REMARK    8  A    between atoms: C_10  and  C_11
REMARK    9  A    between atoms: C_11  and  N_12
REMARK   10  A    between atoms: C_13  and  C_14
REMARK   11  A    between atoms: C_19  and  C_20
REMARK   12  A    between atoms: C_26  and  C_27
REMARK                            x       y       z     vdW  Elec       q    Type
REMARK                         _______ _______ _______ _____ _____    ______ ____
ROOT
ATOM      1  N   UNL     1       4.405   4.635  17.999  0.00  0.00    +0.000 N 
ATOM      2  C   UNL     1       3.572   3.754  17.320  0.00  0.00    +0.000 A 
ATOM      3  N   UNL     1       4.026   3.566  16.092  0.00  0.00    +0.000 NA
ATOM      4  C   UNL     1       5.180   4.294  15.981  0.00  0.00    +0.000 A 
ATOM      5  C   UNL     1       5.430   5.037  17.139  0.00  0.00    +0.000 A 
ENDROOT
BRANCH   5   6
ATOM      6  C   UNL     1       6.537   5.986  17.434  0.00  0.00    +0.000 A 
ATOM      7  C   UNL     1       7.529   5.640  18.371  0.00  0.00    +0.000 A 
ATOM      8  C   UNL     1       8.365   6.613  18.933  0.00  0.00    +0.000 A 
ATOM      9  C   UNL     1       8.288   7.923  18.488  0.00  0.00    +0.000 A 
ATOM     10  F   UNL     1       9.042   8.869  19.062  0.00  0.00    +0.000 F 
ATOM     11  C   UNL     1       7.417   8.268  17.470  0.00  0.00    +0.000 A 
ATOM     12  C   UNL     1       6.542   7.305  16.959  0.00  0.00    +0.000 A 
ENDBRANCH   5   6
BRANCH   4  13
ATOM     13  C   UNL     1       5.960   4.273  14.751  0.00  0.00    +0.000 A 
ATOM     14  C   UNL     1       5.488   3.573  13.634  0.00  0.00    +0.000 A 
ATOM     15  C   UNL     1       6.148   3.670  12.405  0.00  0.00    +0.000 A 
ATOM     16  C   UNL     1       7.278   4.478  12.282  0.00  0.00    +0.000 A 
ATOM     17  C   UNL     1       7.793   5.128  13.398  0.00  0.00    +0.000 A 
ATOM     18  C   UNL     1       7.168   4.981  14.634  0.00  0.00    +0.000 A 
ENDBRANCH   4  13
BRANCH   2  19
ATOM     19  C   UNL     1       2.342   3.094  17.891  0.00  0.00    +0.000 C 
ATOM     20  F   UNL     1       2.419   2.876  19.223  0.00  0.00    +0.000 F 
ATOM     21  F   UNL     1       1.226   3.837  17.677  0.00  0.00    +0.000 F 
ATOM     22  F   UNL     1       2.123   1.877  17.324  0.00  0.00    +0.000 F 
ENDBRANCH   2  19
BRANCH   1  23
ATOM     23  C   UNL     1       4.214   5.087  19.371  0.00  0.00    +0.000 C 
BRANCH  23  24
ATOM     24  C   UNL     1       3.634   6.505  19.441  0.00  0.00    +0.000 C 
BRANCH  24  25
ATOM     25  C   UNL     1       2.157   6.543  19.850  0.00  0.00    +0.000 C 
BRANCH  25  26
ATOM     26  O   UNL     1       1.991   5.849  21.094  0.00  0.00    +0.000 OA
ATOM     27  H   UNL     1       1.110   6.047  21.451  0.00  0.00    +0.000 HD
ENDBRANCH  25  26
BRANCH  25  28
ATOM     28  C   UNL     1       1.577   7.956  19.974  0.00  0.00    +0.000 C 
BRANCH  28  29
ATOM     29  C   UNL     1       0.912   8.235  21.330  0.00  0.00    +0.000 C 
BRANCH  29  30
ATOM     30  O   UNL     1       1.925   8.669  22.246  0.00  0.00    +0.000 OA
ATOM     31  H   UNL     1       2.494   9.311  21.789  0.00  0.00    +0.000 HD
ENDBRANCH  29  30
BRANCH  29  32
ATOM     32  C   UNL     1      -0.200   9.273  21.270  0.00  0.00    +0.000 C 
BRANCH  32  34
ATOM     33  O   UNL     1      -0.220  10.460  23.280  0.00  0.00    +0.000 OA
ATOM     34  C   UNL     1       0.182  10.494  22.073  0.00  0.00    +0.000 C 
ATOM     35  O   UNL     1       0.873  11.382  21.521  0.00  0.00    +0.000 OA
ENDBRANCH  32  34
ENDBRANCH  29  32
ENDBRANCH  28  29
ENDBRANCH  25  28
ENDBRANCH  24  25
ENDBRANCH  23  24
ENDBRANCH   1  23
TORSDOF 12
ENDMDL
MODEL 2
REMARK VINA RESULT:      -7.6      0.937      1.389
REMARK  Name = 
REMARK  12 active torsions:
REMARK  status: ('A' for Active; 'I' for Inactive)
REMARK    1  A    between atoms: C_2  and  C_4
REMARK    2  A    between atoms: C_4  and  C_5
REMARK    3  A    between atoms: C_5  and  O_6
REMARK    4  A    between atoms: C_5  and  C_7
REMARK    5  A    between atoms: C_7  and  C_8
REMARK    6  A    between atoms: C_8  and  O_9
REMARK    7  A    between atoms: C_8  and  C_10
REMARK    8  A    between atoms: C_10  and  C_11
REMARK    9  A    between atoms: C_11  and  N_12
REMARK   10  A    between atoms: C_13  and  C_14
REMARK   11  A    between atoms: C_19  and  C_20
REMARK   12  A    between atoms: C_26  and  C_27
REMARK                            x       y       z     vdW  Elec       q    Type
REMARK                         _______ _______ _______ _____ _____    ______ ____
ROOT
ATOM      1  N   UNL     1       3.901   4.578  18.499  0.00  0.00    +0.000 N 
ATOM      2  C   UNL     1       3.225   3.551  17.851  0.00  0.00    +0.000 A 
ATOM      3  N   UNL     1       3.769   3.337  16.664  0.00  0.00    +0.000 NA
ATOM      4  C   UNL     1       4.825   4.200  16.552  0.00  0.00    +0.000 A 
ATOM      5  C   UNL     1       4.914   5.048  17.660  0.00  0.00    +0.000 A 
ENDROOT
BRANCH   5   6
ATOM      6  C   UNL     1       5.874   6.151  17.933  0.00  0.00    +0.000 A 
ATOM      7  C   UNL     1       5.705   7.402  17.310  0.00  0.00    +0.000 A 
ATOM      8  C   UNL     1       6.751   8.331  17.255  0.00  0.00    +0.000 A 
ATOM      9  C   UNL     1       7.942   8.063  17.911  0.00  0.00    +0.000 A 
ATOM     10  F   UNL     1       8.967   8.920  17.813  0.00  0.00    +0.000 F 
ATOM     11  C   UNL     1       8.091   6.901  18.647  0.00  0.00    +0.000 A 
ATOM     12  C   UNL     1       7.066   5.951  18.644  0.00  0.00    +0.000 A 
ENDBRANCH   5   6
BRANCH   4  13
ATOM     13  C   UNL     1       5.671   4.195  15.366  0.00  0.00    +0.000 A 
ATOM     14  C   UNL     1       5.210   3.609  14.180  0.00  0.00    +0.000 A 
ATOM     15  C   UNL     1       5.945   3.731  12.997  0.00  0.00    +0.000 A 
ATOM     16  C   UNL     1       7.140   4.449  12.988  0.00  0.00    +0.000 A 
ATOM     17  C   UNL     1       7.640   4.981  14.172  0.00  0.00    +0.000 A 
ATOM     18  C   UNL     1       6.935   4.807  15.361  0.00  0.00    +0.000 A 
ENDBRANCH   4  13
BRANCH   2  19
ATOM     19  C   UNL     1       2.058   2.778  18.412  0.00  0.00    +0.000 C 
ATOM     20  F   UNL     1       2.243   2.378  19.690  0.00  0.00    +0.000 F 
ATOM     21  F   UNL     1       0.913   3.508  18.390  0.00  0.00    +0.000 F 
ATOM     22  F   UNL     1       1.820   1.647  17.695  0.00  0.00    +0.000 F 
ENDBRANCH   2  19
BRANCH   1  23
ATOM     23  C   UNL     1       3.576   5.096  19.821  0.00  0.00    +0.000 C 
BRANCH  23  24
ATOM     24  C   UNL     1       2.298   5.944  19.817  0.00  0.00    +0.000 C 
BRANCH  24  25
ATOM     25  C   UNL     1       2.485   7.331  19.193  0.00  0.00    +0.000 C 
BRANCH  25  26
ATOM     26  O   UNL     1       2.285   7.245  17.775  0.00  0.00    +0.000 OA
ATOM     27  H   UNL     1       2.475   6.339  17.483  0.00  0.00    +0.000 HD
ENDBRANCH  25  26
BRANCH  25  28
ATOM     28  C   UNL     1       1.563   8.409  19.772  0.00  0.00    +0.000 C 
BRANCH  28  29
ATOM     29  C   UNL     1       1.123   8.137  21.218  0.00  0.00    +0.000 C 
BRANCH  29  30
ATOM     30  O   UNL     1       2.170   8.574  22.094  0.00  0.00    +0.000 OA
ATOM     31  H   UNL     1       2.518   7.799  22.565  0.00  0.00    +0.000 HD
ENDBRANCH  29  30
BRANCH  29  32
ATOM     32  C   UNL     1      -0.183   8.817  21.604  0.00  0.00    +0.000 C 
BRANCH  32  34
ATOM     33  O   UNL     1       0.484  11.044  21.819  0.00  0.00    +0.000 OA
ATOM     34  C   UNL     1       0.093  10.022  22.472  0.00  0.00    +0.000 C 
ATOM     35  O   UNL     1      -0.119   9.936  23.704  0.00  0.00    +0.000 OA
ENDBRANCH  32  34
ENDBRANCH  29  32
ENDBRANCH  28  29
ENDBRANCH  25  28
ENDBRANCH  24  25
ENDBRANCH  23  24
ENDBRANCH   1  23
TORSDOF 12
ENDMDL
MODEL 3
REMARK VINA RESULT:      -7.5      1.364      1.980
REMARK  Name = 
REMARK  12 active torsions:
REMARK  status: ('A' for Active; 'I' for Inactive)
REMARK    1  A    between atoms: C_2  and  C_4
REMARK    2  A    between atoms: C_4  and  C_5
REMARK    3  A    between atoms: C_5  and  O_6
REMARK    4  A    between atoms: C_5  and  C_7
REMARK    5  A    between atoms: C_7  and  C_8
REMARK    6  A    between atoms: C_8  and  O_9
REMARK    7  A    between atoms: C_8  and  C_10
REMARK    8  A    between atoms: C_10  and  C_11
REMARK    9  A    between atoms: C_11  and  N_12
REMARK   10  A    between atoms: C_13  and  C_14
REMARK   11  A    between atoms: C_19  and  C_20
REMARK   12  A    between atoms: C_26  and  C_27
REMARK                            x       y       z     vdW  Elec       q    Type
REMARK                         _______ _______ _______ _____ _____    ______ ____
ROOT
ATOM      1  N   UNL     1       4.495   4.291  18.065  0.00  0.00    +0.000 N 
ATOM      2  C   UNL     1       3.630   3.447  17.378  0.00  0.00    +0.000 A 
ATOM      3  N   UNL     1       3.979   3.390  16.103  0.00  0.00    +0.000 NA
ATOM      4  C   UNL     1       5.097   4.168  15.964  0.00  0.00    +0.000 A 
ATOM      5  C   UNL     1       5.428   4.808  17.162  0.00  0.00    +0.000 A 
ENDROOT
BRANCH   5   6
ATOM      6  C   UNL     1       6.530   5.765  17.451  0.00  0.00    +0.000 A 
ATOM      7  C   UNL     1       7.519   5.434  18.396  0.00  0.00    +0.000 A 
ATOM      8  C   UNL     1       8.349   6.416  18.950  0.00  0.00    +0.000 A 
ATOM      9  C   UNL     1       8.269   7.721  18.491  0.00  0.00    +0.000 A 
ATOM     10  F   UNL     1       9.016   8.676  19.058  0.00  0.00    +0.000 F 
ATOM     11  C   UNL     1       7.400   8.051  17.466  0.00  0.00    +0.000 A 
ATOM     12  C   UNL     1       6.531   7.079  16.962  0.00  0.00    +0.000 A 
ENDBRANCH   5   6
BRANCH   4  13
ATOM     13  C   UNL     1       5.766   4.289  14.676  0.00  0.00    +0.000 A 
ATOM     14  C   UNL     1       6.985   4.973  14.582  0.00  0.00    +0.000 A 
ATOM     15  C   UNL     1       7.712   4.966  13.387  0.00  0.00    +0.000 A 
ATOM     16  C   UNL     1       7.231   4.266  12.282  0.00  0.00    +0.000 A 
ATOM     17  C   UNL     1       5.992   3.636  12.343  0.00  0.00    +0.000 A 
ATOM     18  C   UNL     1       5.243   3.695  13.516  0.00  0.00    +0.000 A 
ENDBRANCH   4  13
BRANCH   2  19
ATOM     19  C   UNL     1       2.475   2.693  17.985  0.00  0.00    +0.000 C 
ATOM     20  F   UNL     1       1.346   3.430  18.086  0.00  0.00    +0.000 F 
ATOM     21  F   UNL     1       2.159   1.587  17.262  0.00  0.00    +0.000 F 
ATOM     22  F   UNL     1       2.763   2.273  19.246  0.00  0.00    +0.000 F 
ENDBRANCH   2  19
BRANCH   1  23
ATOM     23  C   UNL     1       4.413   4.606  19.484  0.00  0.00    +0.000 C 
BRANCH  23  24
ATOM     24  C   UNL     1       3.920   6.037  19.736  0.00  0.00    +0.000 C 
BRANCH  24  25
ATOM     25  C   UNL     1       2.404   6.197  19.583  0.00  0.00    +0.000 C 
BRANCH  25  26
ATOM     26  O   UNL     1       1.901   7.008  20.654  0.00  0.00    +0.000 OA
ATOM     27  H   UNL     1       2.067   6.556  21.496  0.00  0.00    +0.000 HD
ENDBRANCH  25  26
BRANCH  25  28
ATOM     28  C   UNL     1       1.968   6.800  18.243  0.00  0.00    +0.000 C 
BRANCH  28  29
ATOM     29  C   UNL     1       2.344   8.279  18.078  0.00  0.00    +0.000 C 
BRANCH  29  30
ATOM     30  O   UNL     1       3.195   8.400  16.930  0.00  0.00    +0.000 OA
ATOM     31  H   UNL     1       3.387   7.507  16.597  0.00  0.00    +0.000 HD
ENDBRANCH  29  30
BRANCH  29  32
ATOM     32  C   UNL     1       1.147   9.207  17.924  0.00  0.00    +0.000 C 
BRANCH  32  34
ATOM     33  O   UNL     1       0.895   9.730  20.186  0.00  0.00    +0.000 OA
ATOM     34  C   UNL     1       1.132  10.228  19.038  0.00  0.00    +0.000 C 
ATOM     35  O   UNL     1       1.388  11.423  18.760  0.00  0.00    +0.000 OA
ENDBRANCH  32  34
ENDBRANCH  29  32
ENDBRANCH  28  29
ENDBRANCH  25  28
ENDBRANCH  24  25
ENDBRANCH  23  24
ENDBRANCH   1  23
TORSDOF 12
ENDMDL
MODEL 4
REMARK VINA RESULT:      -7.4      0.813      1.348
REMARK  Name = 
REMARK  12 active torsions:
REMARK  status: ('A' for Active; 'I' for Inactive)
REMARK    1  A    between atoms: C_2  and  C_4
REMARK    2  A    between atoms: C_4  and  C_5
REMARK    3  A    between atoms: C_5  and  O_6
REMARK    4  A    between atoms: C_5  and  C_7
REMARK    5  A    between atoms: C_7  and  C_8
REMARK    6  A    between atoms: C_8  and  O_9
REMARK    7  A    between atoms: C_8  and  C_10
REMARK    8  A    between atoms: C_10  and  C_11
REMARK    9  A    between atoms: C_11  and  N_12
REMARK   10  A    between atoms: C_13  and  C_14
REMARK   11  A    between atoms: C_19  and  C_20
REMARK   12  A    between atoms: C_26  and  C_27
REMARK                            x       y       z     vdW  Elec       q    Type
REMARK                         _______ _______ _______ _____ _____    ______ ____
ROOT
ATOM      1  N   UNL     1       4.190   4.911  18.050  0.00  0.00    +0.000 N 
ATOM      2  C   UNL     1       3.334   4.012  17.425  0.00  0.00    +0.000 A 
ATOM      3  N   UNL     1       3.755   3.775  16.194  0.00  0.00    +0.000 NA
ATOM      4  C   UNL     1       4.910   4.491  16.026  0.00  0.00    +0.000 A 
ATOM      5  C   UNL     1       5.195   5.274  17.149  0.00  0.00    +0.000 A 
ENDROOT
BRANCH   5   6
ATOM      6  C   UNL     1       6.315   6.225  17.380  0.00  0.00    +0.000 A 
ATOM      7  C   UNL     1       7.403   5.847  18.190  0.00  0.00    +0.000 A 
ATOM      8  C   UNL     1       8.280   6.803  18.715  0.00  0.00    +0.000 A 
ATOM      9  C   UNL     1       8.143   8.134  18.354  0.00  0.00    +0.000 A 
ATOM     10  F   UNL     1       8.941   9.061  18.899  0.00  0.00    +0.000 F 
ATOM     11  C   UNL     1       7.166   8.518  17.452  0.00  0.00    +0.000 A 
ATOM     12  C   UNL     1       6.254   7.568  16.982  0.00  0.00    +0.000 A 
ENDBRANCH   5   6
BRANCH   4  13
ATOM     13  C   UNL     1       5.659   4.419  14.779  0.00  0.00    +0.000 A 
ATOM     14  C   UNL     1       6.932   4.996  14.692  0.00  0.00    +0.000 A 
ATOM     15  C   UNL     1       7.722   4.803  13.554  0.00  0.00    +0.000 A 
ATOM     16  C   UNL     1       7.249   4.021  12.501  0.00  0.00    +0.000 A 
ATOM     17  C   UNL     1       5.963   3.495  12.548  0.00  0.00    +0.000 A 
ATOM     18  C   UNL     1       5.156   3.739  13.657  0.00  0.00    +0.000 A 
ENDBRANCH   4  13
BRANCH   2  19
ATOM     19  C   UNL     1       2.115   3.382  18.051  0.00  0.00    +0.000 C 
ATOM     20  F   UNL     1       1.022   4.176  18.014  0.00  0.00    +0.000 F 
ATOM     21  F   UNL     1       1.777   2.219  17.436  0.00  0.00    +0.000 F 
ATOM     22  F   UNL     1       2.324   3.091  19.363  0.00  0.00    +0.000 F 
ENDBRANCH   2  19
BRANCH   1  23
ATOM     23  C   UNL     1       4.036   5.415  19.407  0.00  0.00    +0.000 C 
BRANCH  23  24
ATOM     24  C   UNL     1       3.210   6.706  19.460  0.00  0.00    +0.000 C 
BRANCH  24  25
ATOM     25  C   UNL     1       1.989   6.614  20.381  0.00  0.00    +0.000 C 
BRANCH  25  26
ATOM     26  O   UNL     1       2.084   5.426  21.180  0.00  0.00    +0.000 OA
ATOM     27  H   UNL     1       2.233   4.665  20.597  0.00  0.00    +0.000 HD
ENDBRANCH  25  26
BRANCH  25  28
ATOM     28  C   UNL     1       1.802   7.828  21.298  0.00  0.00    +0.000 C 
BRANCH  28  29
ATOM     29  C   UNL     1       0.502   8.604  21.042  0.00  0.00    +0.000 C 
BRANCH  29  30
ATOM     30  O   UNL     1      -0.573   7.897  21.674  0.00  0.00    +0.000 OA
ATOM     31  H   UNL     1      -0.193   7.273  22.315  0.00  0.00    +0.000 HD
ENDBRANCH  29  30
BRANCH  29  32
ATOM     32  C   UNL     1       0.531  10.041  21.543  0.00  0.00    +0.000 C 
BRANCH  32  34
ATOM     33  O   UNL     1       0.417   9.673  23.846  0.00  0.00    +0.000 OA
ATOM     34  C   UNL     1      -0.217  10.153  22.851  0.00  0.00    +0.000 C 
ATOM     35  O   UNL     1      -1.332  10.725  22.857  0.00  0.00    +0.000 OA
ENDBRANCH  32  34
ENDBRANCH  29  32
ENDBRANCH  28  29
ENDBRANCH  25  28
ENDBRANCH  24  25
ENDBRANCH  23  24
ENDBRANCH   1  23
TORSDOF 12
ENDMDL
MODEL 5
REMARK VINA RESULT:      -7.3      1.366      1.701
REMARK  Name = 
REMARK  12 active torsions:
REMARK  status: ('A' for Active; 'I' for Inactive)
REMARK    1  A    between atoms: C_2  and  C_4
REMARK    2  A    between atoms: C_4  and  C_5
REMARK    3  A    between atoms: C_5  and  O_6
REMARK    4  A    between atoms: C_5  and  C_7
REMARK    5  A    between atoms: C_7  and  C_8
REMARK    6  A    between atoms: C_8  and  O_9
REMARK    7  A    between atoms: C_8  and  C_10
REMARK    8  A    between atoms: C_10  and  C_11
REMARK    9  A    between atoms: C_11  and  N_12
REMARK   10  A    between atoms: C_13  and  C_14
REMARK   11  A    between atoms: C_19  and  C_20
REMARK   12  A    between atoms: C_26  and  C_27
REMARK                            x       y       z     vdW  Elec       q    Type
REMARK                         _______ _______ _______ _____ _____    ______ ____
ROOT
ATOM      1  N   UNL     1       4.359   4.598  18.039  0.00  0.00    +0.000 N 
ATOM      2  C   UNL     1       3.527   3.703  17.377  0.00  0.00    +0.000 A 
ATOM      3  N   UNL     1       3.977   3.499  16.150  0.00  0.00    +0.000 NA
ATOM      4  C   UNL     1       5.127   4.231  16.023  0.00  0.00    +0.000 A 
ATOM      5  C   UNL     1       5.378   4.992  17.168  0.00  0.00    +0.000 A 
ENDROOT
BRANCH   5   6
ATOM      6  C   UNL     1       6.482   5.950  17.444  0.00  0.00    +0.000 A 
ATOM      7  C   UNL     1       7.500   5.608  18.355  0.00  0.00    +0.000 A 
ATOM      8  C   UNL     1       8.338   6.585  18.904  0.00  0.00    +0.000 A 
ATOM      9  C   UNL     1       8.238   7.898  18.473  0.00  0.00    +0.000 A 
ATOM     10  F   UNL     1       8.995   8.847  19.036  0.00  0.00    +0.000 F 
ATOM     11  C   UNL     1       7.339   8.242  17.479  0.00  0.00    +0.000 A 
ATOM     12  C   UNL     1       6.462   7.273  16.981  0.00  0.00    +0.000 A 
ENDBRANCH   5   6
BRANCH   4  13
ATOM     13  C   UNL     1       5.903   4.195  14.790  0.00  0.00    +0.000 A 
ATOM     14  C   UNL     1       5.430   3.474  13.686  0.00  0.00    +0.000 A 
ATOM     15  C   UNL     1       6.085   3.555  12.453  0.00  0.00    +0.000 A 
ATOM     16  C   UNL     1       7.209   4.368  12.313  0.00  0.00    +0.000 A 
ATOM     17  C   UNL     1       7.725   5.039  13.417  0.00  0.00    +0.000 A 
ATOM     18  C   UNL     1       7.106   4.908  14.657  0.00  0.00    +0.000 A 
ENDBRANCH   4  13
BRANCH   2  19
ATOM     19  C   UNL     1       2.303   3.046  17.962  0.00  0.00    +0.000 C 
ATOM     20  F   UNL     1       1.983   1.877  17.363  0.00  0.00    +0.000 F 
ATOM     21  F   UNL     1       2.456   2.782  19.285  0.00  0.00    +0.000 F 
ATOM     22  F   UNL     1       1.206   3.842  17.842  0.00  0.00    +0.000 F 
ENDBRANCH   2  19
BRANCH   1  23
ATOM     23  C   UNL     1       4.170   5.070  19.404  0.00  0.00    +0.000 C 
BRANCH  23  24
ATOM     24  C   UNL     1       3.685   6.524  19.456  0.00  0.00    +0.000 C 
BRANCH  24  25
ATOM     25  C   UNL     1       2.179   6.657  19.708  0.00  0.00    +0.000 C 
BRANCH  25  26
ATOM     26  O   UNL     1       1.727   5.540  20.486  0.00  0.00    +0.000 OA
ATOM     27  H   UNL     1       1.159   5.864  21.204  0.00  0.00    +0.000 HD
ENDBRANCH  25  26
BRANCH  25  28
ATOM     28  C   UNL     1       1.773   7.960  20.407  0.00  0.00    +0.000 C 
BRANCH  28  29
ATOM     29  C   UNL     1       1.397   9.090  19.438  0.00  0.00    +0.000 C 
BRANCH  29  30
ATOM     30  O   UNL     1       1.463   8.576  18.102  0.00  0.00    +0.000 OA
ATOM     31  H   UNL     1       2.010   9.178  17.570  0.00  0.00    +0.000 HD
ENDBRANCH  29  30
BRANCH  29  32
ATOM     32  C   UNL     1       0.017   9.684  19.688  0.00  0.00    +0.000 C 
BRANCH  32  34
ATOM     33  O   UNL     1      -1.072  10.001  17.648  0.00  0.00    +0.000 OA
ATOM     34  C   UNL     1      -0.379  10.585  18.542  0.00  0.00    +0.000 C 
ATOM     35  O   UNL     1      -0.047  11.792  18.586  0.00  0.00    +0.000 OA
ENDBRANCH  32  34
ENDBRANCH  29  32
ENDBRANCH  28  29
ENDBRANCH  25  28
ENDBRANCH  24  25
ENDBRANCH  23  24
ENDBRANCH   1  23
TORSDOF 12
ENDMDL
MODEL 6
REMARK VINA RESULT:      -7.3      4.093      6.947
REMARK  Name = 
REMARK  12 active torsions:
REMARK  status: ('A' for Active; 'I' for Inactive)
REMARK    1  A    between atoms: C_2  and  C_4
REMARK    2  A    between atoms: C_4  and  C_5
REMARK    3  A    between atoms: C_5  and  O_6
REMARK    4  A    between atoms: C_5  and  C_7
REMARK    5  A    between atoms: C_7  and  C_8
REMARK    6  A    between atoms: C_8  and  O_9
REMARK    7  A    between atoms: C_8  and  C_10
REMARK    8  A    between atoms: C_10  and  C_11
REMARK    9  A    between atoms: C_11  and  N_12
REMARK   10  A    between atoms: C_13  and  C_14
REMARK   11  A    between atoms: C_19  and  C_20
REMARK   12  A    between atoms: C_26  and  C_27
REMARK                            x       y       z     vdW  Elec       q    Type
REMARK                         _______ _______ _______ _____ _____    ______ ____
ROOT
ATOM      1  N   UNL     1       5.019   5.925  16.955  0.00  0.00    +0.000 N 
ATOM      2  C   UNL     1       5.382   4.618  16.652  0.00  0.00    +0.000 A 
ATOM      3  N   UNL     1       4.572   3.775  17.270  0.00  0.00    +0.000 NA
ATOM      4  C   UNL     1       3.654   4.532  17.948  0.00  0.00    +0.000 A 
ATOM      5  C   UNL     1       3.930   5.897  17.831  0.00  0.00    +0.000 A 
ENDROOT
BRANCH   5   6
ATOM      6  C   UNL     1       3.224   7.061  18.431  0.00  0.00    +0.000 A 
ATOM      7  C   UNL     1       2.739   6.985  19.751  0.00  0.00    +0.000 A 
ATOM      8  C   UNL     1       1.782   7.891  20.223  0.00  0.00    +0.000 A 
ATOM      9  C   UNL     1       1.377   8.943  19.418  0.00  0.00    +0.000 A 
ATOM     10  F   UNL     1       0.419   9.779  19.841  0.00  0.00    +0.000 F 
ATOM     11  C   UNL     1       1.937   9.124  18.166  0.00  0.00    +0.000 A 
ATOM     12  C   UNL     1       2.844   8.180  17.677  0.00  0.00    +0.000 A 
ENDBRANCH   5   6
BRANCH   4  13
ATOM     13  C   UNL     1       2.583   3.903  18.709  0.00  0.00    +0.000 A 
ATOM     14  C   UNL     1       1.389   3.543  18.072  0.00  0.00    +0.000 A 
ATOM     15  C   UNL     1       0.417   2.804  18.752  0.00  0.00    +0.000 A 
ATOM     16  C   UNL     1       0.637   2.408  20.071  0.00  0.00    +0.000 A 
ATOM     17  C   UNL     1       1.791   2.812  20.735  0.00  0.00    +0.000 A 
ATOM     18  C   UNL     1       2.730   3.599  20.073  0.00  0.00    +0.000 A 
ENDBRANCH   4  13
BRANCH   2  19
ATOM     19  C   UNL     1       6.514   4.210  15.745  0.00  0.00    +0.000 C 
ATOM     20  F   UNL     1       7.724   4.243  16.348  0.00  0.00    +0.000 F 
ATOM     21  F   UNL     1       6.348   2.950  15.265  0.00  0.00    +0.000 F 
ATOM     22  F   UNL     1       6.610   5.034  14.667  0.00  0.00    +0.000 F 
ENDBRANCH   2  19
BRANCH   1  23
ATOM     23  C   UNL     1       5.691   7.120  16.465  0.00  0.00    +0.000 C 
BRANCH  23  24
ATOM     24  C   UNL     1       7.195   7.108  16.765  0.00  0.00    +0.000 C 
BRANCH  24  25
ATOM     25  C   UNL     1       7.593   8.013  17.936  0.00  0.00    +0.000 C 
BRANCH  25  26
ATOM     26  O   UNL     1       8.357   7.255  18.885  0.00  0.00    +0.000 OA
ATOM     27  H   UNL     1       9.236   7.080  18.514  0.00  0.00    +0.000 HD
ENDBRANCH  25  26
BRANCH  25  28
ATOM     28  C   UNL     1       8.386   9.258  17.525  0.00  0.00    +0.000 C 
BRANCH  28  29
ATOM     29  C   UNL     1       8.573  10.275  18.659  0.00  0.00    +0.000 C 
BRANCH  29  30
ATOM     30  O   UNL     1       9.467   9.709  19.626  0.00  0.00    +0.000 OA
ATOM     31  H   UNL     1       8.973   9.064  20.158  0.00  0.00    +0.000 HD
ENDBRANCH  29  30
BRANCH  29  32
ATOM     32  C   UNL     1       9.110  11.623  18.198  0.00  0.00    +0.000 C 
BRANCH  32  34
ATOM     33  O   UNL     1      11.430  11.577  17.945  0.00  0.00    +0.000 OA
ATOM     34  C   UNL     1      10.493  11.855  18.760  0.00  0.00    +0.000 C 
ATOM     35  O   UNL     1      10.598  12.325  19.917  0.00  0.00    +0.000 OA
ENDBRANCH  32  34
ENDBRANCH  29  32
ENDBRANCH  28  29
ENDBRANCH  25  28
ENDBRANCH  24  25
ENDBRANCH  23  24
ENDBRANCH   1  23
TORSDOF 12
ENDMDL
MODEL 7
REMARK VINA RESULT:      -7.3      1.265      1.751
REMARK  Name = 
REMARK  12 active torsions:
REMARK  status: ('A' for Active; 'I' for Inactive)
REMARK    1  A    between atoms: C_2  and  C_4
REMARK    2  A    between atoms: C_4  and  C_5
REMARK    3  A    between atoms: C_5  and  O_6
REMARK    4  A    between atoms: C_5  and  C_7
REMARK    5  A    between atoms: C_7  and  C_8
REMARK    6  A    between atoms: C_8  and  O_9
REMARK    7  A    between atoms: C_8  and  C_10
REMARK    8  A    between atoms: C_10  and  C_11
REMARK    9  A    between atoms: C_11  and  N_12
REMARK   10  A    between atoms: C_13  and  C_14
REMARK   11  A    between atoms: C_19  and  C_20
REMARK   12  A    between atoms: C_26  and  C_27
REMARK                            x       y       z     vdW  Elec       q    Type
REMARK                         _______ _______ _______ _____ _____    ______ ____
ROOT
ATOM      1  N   UNL     1       4.251   4.731  18.009  0.00  0.00    +0.000 N 
ATOM      2  C   UNL     1       3.393   3.852  17.359  0.00  0.00    +0.000 A 
ATOM      3  N   UNL     1       3.803   3.664  16.116  0.00  0.00    +0.000 NA
ATOM      4  C   UNL     1       4.954   4.390  15.964  0.00  0.00    +0.000 A 
ATOM      5  C   UNL     1       5.247   5.131  17.113  0.00  0.00    +0.000 A 
ENDROOT
BRANCH   5   6
ATOM      6  C   UNL     1       6.366   6.077  17.370  0.00  0.00    +0.000 A 
ATOM      7  C   UNL     1       7.423   5.702  18.220  0.00  0.00    +0.000 A 
ATOM      8  C   UNL     1       8.290   6.658  18.762  0.00  0.00    +0.000 A 
ATOM      9  C   UNL     1       8.174   7.985  18.380  0.00  0.00    +0.000 A 
ATOM     10  F   UNL     1       8.960   8.913  18.940  0.00  0.00    +0.000 F 
ATOM     11  C   UNL     1       7.231   8.364  17.442  0.00  0.00    +0.000 A 
ATOM     12  C   UNL     1       6.328   7.415  16.953  0.00  0.00    +0.000 A 
ENDBRANCH   5   6
BRANCH   4  13
ATOM     13  C   UNL     1       5.691   4.368  14.708  0.00  0.00    +0.000 A 
ATOM     14  C   UNL     1       6.932   5.010  14.613  0.00  0.00    +0.000 A 
ATOM     15  C   UNL     1       7.717   4.869  13.465  0.00  0.00    +0.000 A 
ATOM     16  C   UNL     1       7.273   4.074  12.409  0.00  0.00    +0.000 A 
ATOM     17  C   UNL     1       6.016   3.482  12.465  0.00  0.00    +0.000 A 
ATOM     18  C   UNL     1       5.211   3.674  13.585  0.00  0.00    +0.000 A 
ENDBRANCH   4  13
BRANCH   2  19
ATOM     19  C   UNL     1       2.183   3.195  17.972  0.00  0.00    +0.000 C 
ATOM     20  F   UNL     1       2.309   2.967  19.299  0.00  0.00    +0.000 F 
ATOM     21  F   UNL     1       1.063   3.945  17.807  0.00  0.00    +0.000 F 
ATOM     22  F   UNL     1       1.935   1.983  17.405  0.00  0.00    +0.000 F 
ENDBRANCH   2  19
BRANCH   1  23
ATOM     23  C   UNL     1       4.109   5.182  19.387  0.00  0.00    +0.000 C 
BRANCH  23  24
ATOM     24  C   UNL     1       3.340   6.505  19.489  0.00  0.00    +0.000 C 
BRANCH  24  25
ATOM     25  C   UNL     1       2.071   6.411  20.344  0.00  0.00    +0.000 C 
BRANCH  25  26
ATOM     26  O   UNL     1       2.197   5.315  21.262  0.00  0.00    +0.000 OA
ATOM     27  H   UNL     1       2.946   5.485  21.855  0.00  0.00    +0.000 HD
ENDBRANCH  25  26
BRANCH  25  28
ATOM     28  C   UNL     1       1.742   7.690  21.121  0.00  0.00    +0.000 C 
BRANCH  28  29
ATOM     29  C   UNL     1       0.538   8.461  20.561  0.00  0.00    +0.000 C 
BRANCH  29  30
ATOM     30  O   UNL     1      -0.421   8.620  21.615  0.00  0.00    +0.000 OA
ATOM     31  H   UNL     1      -1.203   9.067  21.251  0.00  0.00    +0.000 HD
ENDBRANCH  29  30
BRANCH  29  32
ATOM     32  C   UNL     1       0.892   9.825  19.985  0.00  0.00    +0.000 C 
BRANCH  32  34
ATOM     33  O   UNL     1       1.977   9.608  17.929  0.00  0.00    +0.000 OA
ATOM     34  C   UNL     1       0.841   9.783  18.476  0.00  0.00    +0.000 C 
ATOM     35  O   UNL     1      -0.274   9.875  17.911  0.00  0.00    +0.000 OA
ENDBRANCH  32  34
ENDBRANCH  29  32
ENDBRANCH  28  29
ENDBRANCH  25  28
ENDBRANCH  24  25
ENDBRANCH  23  24
ENDBRANCH   1  23
TORSDOF 12
ENDMDL
MODEL 8
REMARK VINA RESULT:      -7.2      3.546      7.388
REMARK  Name = 
REMARK  12 active torsions:
REMARK  status: ('A' for Active; 'I' for Inactive)
REMARK    1  A    between atoms: C_2  and  C_4
REMARK    2  A    between atoms: C_4  and  C_5
REMARK    3  A    between atoms: C_5  and  O_6
REMARK    4  A    between atoms: C_5  and  C_7
REMARK    5  A    between atoms: C_7  and  C_8
REMARK    6  A    between atoms: C_8  and  O_9
REMARK    7  A    between atoms: C_8  and  C_10
REMARK    8  A    between atoms: C_10  and  C_11
REMARK    9  A    between atoms: C_11  and  N_12
REMARK   10  A    between atoms: C_13  and  C_14
REMARK   11  A    between atoms: C_19  and  C_20
REMARK   12  A    between atoms: C_26  and  C_27
REMARK                            x       y       z     vdW  Elec       q    Type
REMARK                         _______ _______ _______ _____ _____    ______ ____
ROOT
ATOM      1  N   UNL     1       3.286   4.105  18.766  0.00  0.00    +0.000 N 
ATOM      2  C   UNL     1       2.009   3.823  19.237  0.00  0.00    +0.000 A 
ATOM      3  N   UNL     1       1.425   4.940  19.640  0.00  0.00    +0.000 NA
ATOM      4  C   UNL     1       2.307   5.958  19.397  0.00  0.00    +0.000 A 
ATOM      5  C   UNL     1       3.522   5.476  18.901  0.00  0.00    +0.000 A 
ENDROOT
BRANCH   5   6
ATOM      6  C   UNL     1       4.760   6.219  18.543  0.00  0.00    +0.000 A 
ATOM      7  C   UNL     1       4.778   7.050  17.407  0.00  0.00    +0.000 A 
ATOM      8  C   UNL     1       5.985   7.476  16.840  0.00  0.00    +0.000 A 
ATOM      9  C   UNL     1       7.183   7.161  17.460  0.00  0.00    +0.000 A 
ATOM     10  F   UNL     1       8.343   7.513  16.892  0.00  0.00    +0.000 F 
ATOM     11  C   UNL     1       7.192   6.460  18.653  0.00  0.00    +0.000 A 
ATOM     12  C   UNL     1       5.988   5.984  19.179  0.00  0.00    +0.000 A 
ENDBRANCH   5   6
BRANCH   4  13
ATOM     13  C   UNL     1       1.953   7.340  19.693  0.00  0.00    +0.000 A 
ATOM     14  C   UNL     1       1.883   8.282  18.659  0.00  0.00    +0.000 A 
ATOM     15  C   UNL     1       1.398   9.570  18.905  0.00  0.00    +0.000 A 
ATOM     16  C   UNL     1       0.967   9.921  20.183  0.00  0.00    +0.000 A 
ATOM     17  C   UNL     1       1.090   9.015  21.232  0.00  0.00    +0.000 A 
ATOM     18  C   UNL     1       1.629   7.753  20.996  0.00  0.00    +0.000 A 
ENDBRANCH   4  13
BRANCH   2  19
ATOM     19  C   UNL     1       1.369   2.459  19.273  0.00  0.00    +0.000 C 
ATOM     20  F   UNL     1       1.899   1.642  20.210  0.00  0.00    +0.000 F 
ATOM     21  F   UNL     1       0.036   2.534  19.525  0.00  0.00    +0.000 F 
ATOM     22  F   UNL     1       1.511   1.811  18.085  0.00  0.00    +0.000 F 
ENDBRANCH   2  19
BRANCH   1  23
ATOM     23  C   UNL     1       4.229   3.122  18.251  0.00  0.00    +0.000 C 
BRANCH  23  24
ATOM     24  C   UNL     1       4.261   3.092  16.718  0.00  0.00    +0.000 C 
BRANCH  24  25
ATOM     25  C   UNL     1       5.464   3.825  16.116  0.00  0.00    +0.000 C 
BRANCH  25  26
ATOM     26  O   UNL     1       6.574   3.739  17.021  0.00  0.00    +0.000 OA
ATOM     27  H   UNL     1       7.351   4.146  16.606  0.00  0.00    +0.000 HD
ENDBRANCH  25  26
BRANCH  25  28
ATOM     28  C   UNL     1       5.890   3.306  14.739  0.00  0.00    +0.000 C 
BRANCH  28  29
ATOM     29  C   UNL     1       6.315   4.414  13.764  0.00  0.00    +0.000 C 
BRANCH  29  30
ATOM     30  O   UNL     1       7.420   5.120  14.342  0.00  0.00    +0.000 OA
ATOM     31  H   UNL     1       7.545   4.800  15.251  0.00  0.00    +0.000 HD
ENDBRANCH  29  30
BRANCH  29  32
ATOM     32  C   UNL     1       6.702   3.905  12.382  0.00  0.00    +0.000 C 
BRANCH  32  34
ATOM     33  O   UNL     1       4.487   3.554  11.736  0.00  0.00    +0.000 OA
ATOM     34  C   UNL     1       5.626   2.995  11.840  0.00  0.00    +0.000 C 
ATOM     35  O   UNL     1       5.938   1.827  11.509  0.00  0.00    +0.000 OA
ENDBRANCH  32  34
ENDBRANCH  29  32
ENDBRANCH  28  29
ENDBRANCH  25  28
ENDBRANCH  24  25
ENDBRANCH  23  24
ENDBRANCH   1  23
TORSDOF 12
ENDMDL
MODEL 9
REMARK VINA RESULT:      -7.2      0.910      1.108
REMARK  Name = 
REMARK  12 active torsions:
REMARK  status: ('A' for Active; 'I' for Inactive)
REMARK    1  A    between atoms: C_2  and  C_4
REMARK    2  A    between atoms: C_4  and  C_5
REMARK    3  A    between atoms: C_5  and  O_6
REMARK    4  A    between atoms: C_5  and  C_7
REMARK    5  A    between atoms: C_7  and  C_8
REMARK    6  A    between atoms: C_8  and  O_9
REMARK    7  A    between atoms: C_8  and  C_10
REMARK    8  A    between atoms: C_10  and  C_11
REMARK    9  A    between atoms: C_11  and  N_12
REMARK   10  A    between atoms: C_13  and  C_14
REMARK   11  A    between atoms: C_19  and  C_20
REMARK   12  A    between atoms: C_26  and  C_27
REMARK                            x       y       z     vdW  Elec       q    Type
REMARK                         _______ _______ _______ _____ _____    ______ ____
ROOT
ATOM      1  N   UNL     1       4.320   4.670  18.061  0.00  0.00    +0.000 N 
ATOM      2  C   UNL     1       3.490   3.763  17.412  0.00  0.00    +0.000 A 
ATOM      3  N   UNL     1       3.944   3.538  16.190  0.00  0.00    +0.000 NA
ATOM      4  C   UNL     1       5.094   4.268  16.054  0.00  0.00    +0.000 A 
ATOM      5  C   UNL     1       5.342   5.049  17.187  0.00  0.00    +0.000 A 
ENDROOT
BRANCH   5   6
ATOM      6  C   UNL     1       6.445   6.012  17.449  0.00  0.00    +0.000 A 
ATOM      7  C   UNL     1       7.480   5.671  18.340  0.00  0.00    +0.000 A 
ATOM      8  C   UNL     1       8.322   6.650  18.880  0.00  0.00    +0.000 A 
ATOM      9  C   UNL     1       8.206   7.964  18.459  0.00  0.00    +0.000 A 
ATOM     10  F   UNL     1       8.968   8.915  19.015  0.00  0.00    +0.000 F 
ATOM     11  C   UNL     1       7.288   8.309  17.483  0.00  0.00    +0.000 A 
ATOM     12  C   UNL     1       6.408   7.338  16.995  0.00  0.00    +0.000 A 
ENDBRANCH   5   6
BRANCH   4  13
ATOM     13  C   UNL     1       5.873   4.211  14.824  0.00  0.00    +0.000 A 
ATOM     14  C   UNL     1       5.399   3.479  13.728  0.00  0.00    +0.000 A 
ATOM     15  C   UNL     1       6.058   3.540  12.497  0.00  0.00    +0.000 A 
ATOM     16  C   UNL     1       7.188   4.344  12.349  0.00  0.00    +0.000 A 
ATOM     17  C   UNL     1       7.705   5.026  13.445  0.00  0.00    +0.000 A 
ATOM     18  C   UNL     1       7.081   4.915  14.686  0.00  0.00    +0.000 A 
ENDBRANCH   4  13
BRANCH   2  19
ATOM     19  C   UNL     1       2.265   3.116  18.005  0.00  0.00    +0.000 C 
ATOM     20  F   UNL     1       2.402   2.805  19.314  0.00  0.00    +0.000 F 
ATOM     21  F   UNL     1       1.172   3.916  17.904  0.00  0.00    +0.000 F 
ATOM     22  F   UNL     1       1.962   1.951  17.372  0.00  0.00    +0.000 F 
ENDBRANCH   2  19
BRANCH   1  23
ATOM     23  C   UNL     1       4.128   5.165  19.418  0.00  0.00    +0.000 C 
BRANCH  23  24
ATOM     24  C   UNL     1       3.474   6.552  19.444  0.00  0.00    +0.000 C 
BRANCH  24  25
ATOM     25  C   UNL     1       2.023   6.535  19.935  0.00  0.00    +0.000 C 
BRANCH  25  26
ATOM     26  O   UNL     1       1.795   5.344  20.704  0.00  0.00    +0.000 OA
ATOM     27  H   UNL     1       1.973   4.570  20.147  0.00  0.00    +0.000 HD
ENDBRANCH  25  26
BRANCH  25  28
ATOM     28  C   UNL     1       1.627   7.759  20.767  0.00  0.00    +0.000 C 
BRANCH  28  29
ATOM     29  C   UNL     1       1.423   9.034  19.935  0.00  0.00    +0.000 C 
BRANCH  29  30
ATOM     30  O   UNL     1       1.407   8.666  18.550  0.00  0.00    +0.000 OA
ATOM     31  H   UNL     1       1.011   9.396  18.045  0.00  0.00    +0.000 HD
ENDBRANCH  29  30
BRANCH  29  32
ATOM     32  C   UNL     1       0.150   9.796  20.276  0.00  0.00    +0.000 C 
BRANCH  32  34
ATOM     33  O   UNL     1      -0.068  11.965  19.439  0.00  0.00    +0.000 OA
ATOM     34  C   UNL     1       0.439  11.275  20.381  0.00  0.00    +0.000 C 
ATOM     35  O   UNL     1       1.089  11.690  21.369  0.00  0.00    +0.000 OA
ENDBRANCH  32  34
ENDBRANCH  29  32
ENDBRANCH  28  29
ENDBRANCH  25  28
ENDBRANCH  24  25
ENDBRANCH  23  24
ENDBRANCH   1  23
TORSDOF 12
ENDMDL
