MODEL 1
REMARK VINA RESULT:      -8.1      0.000      0.000
REMARK  Name = 
REMARK  10 active torsions:
REMARK  status: ('A' for Active; 'I' for Inactive)
REMARK    1  A    between atoms: C_1  and  C_2
REMARK    2  A    between atoms: C_2  and  C_3
REMARK    3  A    between atoms: C_3  and  S_4
REMARK    4  A    between atoms: S_4  and  N_7
REMARK    5  A    between atoms: C_10  and  O_11
REMARK    6  A    between atoms: O_11  and  C_12
REMARK    7  A    between atoms: C_15  and  O_16
REMARK    8  A    between atoms: O_16  and  C_17
REMARK    9  A    between atoms: C_17  and  C_18
REMARK   10  A    between atoms: C_22  and  C_23
REMARK                            x       y       z     vdW  Elec       q    Type
REMARK                         _______ _______ _______ _____ _____    ______ ____
ROOT
ATOM      1  N   UNL     1      -0.488  12.733  19.711  0.00  0.00    +0.000 NA
ATOM      2  C   UNL     1       0.974  12.641  19.929  0.00  0.00    +0.000 C 
ATOM      3  C   UNL     1       1.613  11.836  18.811  0.00  0.00    +0.000 C 
ATOM      4  C   UNL     1       1.062  10.408  18.758  0.00  0.00    +0.000 C 
ATOM      5  C   UNL     1      -0.439  10.560  18.453  0.00  0.00    +0.000 C 
ATOM      6  C   UNL     1      -1.149  11.404  19.515  0.00  0.00    +0.000 C 
ENDROOT
BRANCH   1   7
ATOM      7  S   UNL     1      -1.247  13.739  20.895  0.00  0.00    +0.000 S 
ATOM      8  O   UNL     1      -1.674  14.960  20.251  0.00  0.00    +0.000 OA
ATOM      9  O   UNL     1      -0.414  13.751  22.076  0.00  0.00    +0.000 OA
BRANCH   7  10
ATOM     10  C   UNL     1      -2.675  12.743  21.205  0.00  0.00    +0.000 C 
BRANCH  10  12
ATOM     11  C   UNL     1      -2.995  12.096  23.583  0.00  0.00    +0.000 C 
ATOM     12  C   UNL     1      -3.394  13.095  22.491  0.00  0.00    +0.000 C 
ATOM     13  N   UNL     1      -3.199  14.445  22.976  0.00  0.00    +0.000 N 
ATOM     14  C   UNL     1      -4.390  15.037  23.335  0.00  0.00    +0.000 C 
ATOM     15  O   UNL     1      -4.495  16.118  23.883  0.00  0.00    +0.000 OA
ATOM     16  N   UNL     1      -5.403  14.210  22.979  0.00  0.00    +0.000 N 
ATOM     17  C   UNL     1      -4.927  13.074  22.396  0.00  0.00    +0.000 C 
ATOM     18  O   UNL     1      -5.605  12.149  21.977  0.00  0.00    +0.000 OA
ATOM     19  H   UNL     1      -2.319  14.917  23.147  0.00  0.00    +0.000 HD
ATOM     20  H   UNL     1      -6.376  14.435  23.090  0.00  0.00    +0.000 HD
ENDBRANCH  10  12
ENDBRANCH   7  10
ENDBRANCH   1   7
BRANCH   4  21
ATOM     21  O   UNL     1       1.220   9.488  19.861  0.00  0.00    +0.000 OA
BRANCH  21  22
ATOM     22  C   UNL     1       1.690   8.219  19.698  0.00  0.00    +0.000 A 
ATOM     23  C   UNL     1       2.206   7.911  18.438  0.00  0.00    +0.000 A 
ATOM     24  C   UNL     1       2.552   6.595  18.118  0.00  0.00    +0.000 A 
ATOM     25  C   UNL     1       2.383   5.583  19.065  0.00  0.00    +0.000 A 
ATOM     26  C   UNL     1       1.911   5.898  20.333  0.00  0.00    +0.000 A 
ATOM     27  C   UNL     1       1.658   7.226  20.674  0.00  0.00    +0.000 A 
BRANCH  25  28
ATOM     28  O   UNL     1       2.665   4.262  18.849  0.00  0.00    +0.000 OA
BRANCH  28  29
ATOM     29  C   UNL     1       3.918   3.856  19.400  0.00  0.00    +0.000 C 
BRANCH  29  30
ATOM     30  C   UNL     1       5.067   4.311  18.529  0.00  0.00    +0.000 A 
ATOM     31  C   UNL     1       6.048   5.142  19.086  0.00  0.00    +0.000 A 
ATOM     32  C   UNL     1       7.103   5.623  18.313  0.00  0.00    +0.000 A 
ATOM     33  C   UNL     1       7.179   5.291  16.961  0.00  0.00    +0.000 A 
ATOM     34  C   UNL     1       6.211   4.459  16.387  0.00  0.00    +0.000 A 
ATOM     35  C   UNL     1       5.152   3.978  17.168  0.00  0.00    +0.000 A 
BRANCH  34  36
ATOM     36  C   UNL     1       6.293   4.120  15.006  0.00  0.00    +0.000 C 
ATOM     37  N   UNL     1       6.356   3.825  13.876  0.00  0.00    +0.000 NA
ENDBRANCH  34  36
ENDBRANCH  29  30
ENDBRANCH  28  29
ENDBRANCH  25  28
ENDBRANCH  21  22
ENDBRANCH   4  21
TORSDOF 9
ENDMDL
MODEL 2
REMARK VINA RESULT:      -8.1      4.332     11.144
REMARK  Name = 
REMARK  10 active torsions:
REMARK  status: ('A' for Active; 'I' for Inactive)
REMARK    1  A    between atoms: C_1  and  C_2
REMARK    2  A    between atoms: C_2  and  C_3
REMARK    3  A    between atoms: C_3  and  S_4
REMARK    4  A    between atoms: S_4  and  N_7
REMARK    5  A    between atoms: C_10  and  O_11
REMARK    6  A    between atoms: O_11  and  C_12
REMARK    7  A    between atoms: C_15  and  O_16
REMARK    8  A    between atoms: O_16  and  C_17
REMARK    9  A    between atoms: C_17  and  C_18
REMARK   10  A    between atoms: C_22  and  C_23
REMARK                            x       y       z     vdW  Elec       q    Type
REMARK                         _______ _______ _______ _____ _____    ______ ____
ROOT
ATOM      1  N   UNL     1       2.718   3.450  18.898  0.00  0.00    +0.000 NA
ATOM      2  C   UNL     1       3.431   3.607  20.187  0.00  0.00    +0.000 C 
ATOM      3  C   UNL     1       2.429   3.827  21.307  0.00  0.00    +0.000 C 
ATOM      4  C   UNL     1       1.599   5.093  21.081  0.00  0.00    +0.000 C 
ATOM      5  C   UNL     1       0.823   4.846  19.775  0.00  0.00    +0.000 C 
ATOM      6  C   UNL     1       1.765   4.567  18.601  0.00  0.00    +0.000 C 
ENDROOT
BRANCH   1   7
ATOM      7  S   UNL     1       3.808   3.081  17.608  0.00  0.00    +0.000 S 
ATOM      8  O   UNL     1       3.246   3.589  16.376  0.00  0.00    +0.000 OA
ATOM      9  O   UNL     1       4.219   1.702  17.746  0.00  0.00    +0.000 OA
BRANCH   7  10
ATOM     10  C   UNL     1       5.145   4.133  18.087  0.00  0.00    +0.000 C 
BRANCH  10  12
ATOM     11  C   UNL     1       7.540   4.525  17.552  0.00  0.00    +0.000 C 
ATOM     12  C   UNL     1       6.127   4.416  16.968  0.00  0.00    +0.000 C 
ATOM     13  N   UNL     1       6.127   3.471  15.873  0.00  0.00    +0.000 N 
ATOM     14  C   UNL     1       6.107   4.105  14.649  0.00  0.00    +0.000 C 
ATOM     15  O   UNL     1       6.223   3.549  13.573  0.00  0.00    +0.000 OA
ATOM     16  N   UNL     1       5.942   5.433  14.859  0.00  0.00    +0.000 N 
ATOM     17  C   UNL     1       5.858   5.713  16.190  0.00  0.00    +0.000 C 
ATOM     18  O   UNL     1       5.710   6.823  16.678  0.00  0.00    +0.000 OA
ATOM     19  H   UNL     1       6.228   2.465  15.927  0.00  0.00    +0.000 HD
ATOM     20  H   UNL     1       5.846   6.111  14.123  0.00  0.00    +0.000 HD
ENDBRANCH  10  12
ENDBRANCH   7  10
ENDBRANCH   1   7
BRANCH   4  21
ATOM     21  O   UNL     1       2.207   6.403  21.017  0.00  0.00    +0.000 OA
BRANCH  21  22
ATOM     22  C   UNL     1       1.578   7.479  20.467  0.00  0.00    +0.000 A 
ATOM     23  C   UNL     1       2.069   7.915  19.234  0.00  0.00    +0.000 A 
ATOM     24  C   UNL     1       1.609   9.109  18.672  0.00  0.00    +0.000 A 
ATOM     25  C   UNL     1       0.649   9.868  19.343  0.00  0.00    +0.000 A 
ATOM     26  C   UNL     1       0.129   9.412  20.548  0.00  0.00    +0.000 A 
ATOM     27  C   UNL     1       0.524   8.174  21.055  0.00  0.00    +0.000 A 
BRANCH  25  28
ATOM     28  O   UNL     1       0.149  11.061  18.896  0.00  0.00    +0.000 OA
BRANCH  28  29
ATOM     29  C   UNL     1      -0.986  11.508  19.637  0.00  0.00    +0.000 C 
BRANCH  29  30
ATOM     30  C   UNL     1      -2.221  11.550  18.765  0.00  0.00    +0.000 A 
ATOM     31  C   UNL     1      -3.420  12.025  19.315  0.00  0.00    +0.000 A 
ATOM     32  C   UNL     1      -4.594  12.043  18.565  0.00  0.00    +0.000 A 
ATOM     33  C   UNL     1      -4.587  11.565  17.256  0.00  0.00    +0.000 A 
ATOM     34  C   UNL     1      -3.400  11.090  16.687  0.00  0.00    +0.000 A 
ATOM     35  C   UNL     1      -2.222  11.073  17.445  0.00  0.00    +0.000 A 
BRANCH  34  36
ATOM     36  C   UNL     1      -3.397  10.605  15.348  0.00  0.00    +0.000 C 
ATOM     37  N   UNL     1      -3.402  10.191  14.254  0.00  0.00    +0.000 NA
ENDBRANCH  34  36
ENDBRANCH  29  30
ENDBRANCH  28  29
ENDBRANCH  25  28
ENDBRANCH  21  22
ENDBRANCH   4  21
TORSDOF 9
ENDMDL
MODEL 3
REMARK VINA RESULT:      -7.8      3.442     11.796
REMARK  Name = 
REMARK  10 active torsions:
REMARK  status: ('A' for Active; 'I' for Inactive)
REMARK    1  A    between atoms: C_1  and  C_2
REMARK    2  A    between atoms: C_2  and  C_3
REMARK    3  A    between atoms: C_3  and  S_4
REMARK    4  A    between atoms: S_4  and  N_7
REMARK    5  A    between atoms: C_10  and  O_11
REMARK    6  A    between atoms: O_11  and  C_12
REMARK    7  A    between atoms: C_15  and  O_16
REMARK    8  A    between atoms: O_16  and  C_17
REMARK    9  A    between atoms: C_17  and  C_18
REMARK   10  A    between atoms: C_22  and  C_23
REMARK                            x       y       z     vdW  Elec       q    Type
REMARK                         _______ _______ _______ _____ _____    ______ ____
ROOT
ATOM      1  N   UNL     1       2.311   7.708  19.238  0.00  0.00    +0.000 NA
ATOM      2  C   UNL     1       1.657   8.366  18.084  0.00  0.00    +0.000 C 
ATOM      3  C   UNL     1       1.537   9.858  18.341  0.00  0.00    +0.000 C 
ATOM      4  C   UNL     1       0.689  10.150  19.582  0.00  0.00    +0.000 C 
ATOM      5  C   UNL     1       1.452   9.514  20.758  0.00  0.00    +0.000 C 
ATOM      6  C   UNL     1       1.657   8.010  20.551  0.00  0.00    +0.000 C 
ENDROOT
BRANCH   1   7
ATOM      7  S   UNL     1       2.577   6.025  18.945  0.00  0.00    +0.000 S 
ATOM      8  O   UNL     1       1.900   5.661  17.721  0.00  0.00    +0.000 OA
ATOM      9  O   UNL     1       2.351   5.311  20.182  0.00  0.00    +0.000 OA
BRANCH   7  10
ATOM     10  C   UNL     1       4.315   6.087  18.625  0.00  0.00    +0.000 C 
BRANCH  10  12
ATOM     11  C   UNL     1       4.222   3.605  18.601  0.00  0.00    +0.000 C 
ATOM     12  C   UNL     1       4.855   4.842  17.954  0.00  0.00    +0.000 C 
ATOM     13  N   UNL     1       4.690   4.775  16.518  0.00  0.00    +0.000 N 
ATOM     14  C   UNL     1       5.854   4.394  15.885  0.00  0.00    +0.000 C 
ATOM     15  O   UNL     1       5.954   4.145  14.699  0.00  0.00    +0.000 OA
ATOM     16  N   UNL     1       6.844   4.342  16.809  0.00  0.00    +0.000 N 
ATOM     17  C   UNL     1       6.379   4.671  18.047  0.00  0.00    +0.000 C 
ATOM     18  O   UNL     1       7.042   4.709  19.071  0.00  0.00    +0.000 OA
ATOM     19  H   UNL     1       3.832   4.885  15.990  0.00  0.00    +0.000 HD
ATOM     20  H   UNL     1       7.804   4.135  16.592  0.00  0.00    +0.000 HD
ENDBRANCH  10  12
ENDBRANCH   7  10
ENDBRANCH   1   7
BRANCH   4  21
ATOM     21  O   UNL     1      -0.700   9.762  19.667  0.00  0.00    +0.000 OA
BRANCH  21  22
ATOM     22  C   UNL     1      -1.668  10.318  18.886  0.00  0.00    +0.000 A 
ATOM     23  C   UNL     1      -2.170  11.550  19.311  0.00  0.00    +0.000 A 
ATOM     24  C   UNL     1      -3.279  12.118  18.677  0.00  0.00    +0.000 A 
ATOM     25  C   UNL     1      -3.887  11.452  17.612  0.00  0.00    +0.000 A 
ATOM     26  C   UNL     1      -3.360  10.248  17.161  0.00  0.00    +0.000 A 
ATOM     27  C   UNL     1      -2.197   9.736  17.736  0.00  0.00    +0.000 A 
BRANCH  25  28
ATOM     28  O   UNL     1      -4.989  11.904  16.939  0.00  0.00    +0.000 OA
BRANCH  28  29
ATOM     29  C   UNL     1      -5.912  12.602  17.775  0.00  0.00    +0.000 C 
BRANCH  29  30
ATOM     30  C   UNL     1      -6.453  11.697  18.859  0.00  0.00    +0.000 A 
ATOM     31  C   UNL     1      -6.701  10.352  18.553  0.00  0.00    +0.000 A 
ATOM     32  C   UNL     1      -7.240   9.488  19.505  0.00  0.00    +0.000 A 
ATOM     33  C   UNL     1      -7.556   9.967  20.774  0.00  0.00    +0.000 A 
ATOM     34  C   UNL     1      -7.313  11.307  21.101  0.00  0.00    +0.000 A 
ATOM     35  C   UNL     1      -6.772  12.171  20.141  0.00  0.00    +0.000 A 
BRANCH  34  36
ATOM     36  C   UNL     1      -7.636  11.792  22.400  0.00  0.00    +0.000 C 
ATOM     37  N   UNL     1      -7.911  12.203  23.460  0.00  0.00    +0.000 NA
ENDBRANCH  34  36
ENDBRANCH  29  30
ENDBRANCH  28  29
ENDBRANCH  25  28
ENDBRANCH  21  22
ENDBRANCH   4  21
TORSDOF 9
ENDMDL
MODEL 4
REMARK VINA RESULT:      -7.7      1.658      2.306
REMARK  Name = 
REMARK  10 active torsions:
REMARK  status: ('A' for Active; 'I' for Inactive)
REMARK    1  A    between atoms: C_1  and  C_2
REMARK    2  A    between atoms: C_2  and  C_3
REMARK    3  A    between atoms: C_3  and  S_4
REMARK    4  A    between atoms: S_4  and  N_7
REMARK    5  A    between atoms: C_10  and  O_11
REMARK    6  A    between atoms: O_11  and  C_12
REMARK    7  A    between atoms: C_15  and  O_16
REMARK    8  A    between atoms: O_16  and  C_17
REMARK    9  A    between atoms: C_17  and  C_18
REMARK   10  A    between atoms: C_22  and  C_23
REMARK                            x       y       z     vdW  Elec       q    Type
REMARK                         _______ _______ _______ _____ _____    ______ ____
ROOT
ATOM      1  N   UNL     1      -0.203  12.383  20.214  0.00  0.00    +0.000 NA
ATOM      2  C   UNL     1      -0.080  11.446  19.075  0.00  0.00    +0.000 C 
ATOM      3  C   UNL     1      -0.724  10.117  19.427  0.00  0.00    +0.000 C 
ATOM      4  C   UNL     1      -0.049   9.466  20.637  0.00  0.00    +0.000 C 
ATOM      5  C   UNL     1      -0.274  10.441  21.806  0.00  0.00    +0.000 C 
ATOM      6  C   UNL     1       0.308  11.826  21.507  0.00  0.00    +0.000 C 
ENDROOT
BRANCH   1   7
ATOM      7  S   UNL     1       0.412  13.950  19.821  0.00  0.00    +0.000 S 
ATOM      8  O   UNL     1      -0.204  14.387  18.589  0.00  0.00    +0.000 OA
ATOM      9  O   UNL     1       1.848  13.925  19.989  0.00  0.00    +0.000 OA
BRANCH   7  10
ATOM     10  C   UNL     1      -0.309  14.856  21.157  0.00  0.00    +0.000 C 
BRANCH  10  12
ATOM     11  C   UNL     1      -2.166  16.435  20.676  0.00  0.00    +0.000 C 
ATOM     12  C   UNL     1      -1.814  14.993  21.056  0.00  0.00    +0.000 C 
ATOM     13  N   UNL     1      -2.473  14.079  20.149  0.00  0.00    +0.000 N 
ATOM     14  C   UNL     1      -3.580  13.493  20.724  0.00  0.00    +0.000 C 
ATOM     15  O   UNL     1      -4.376  12.783  20.141  0.00  0.00    +0.000 OA
ATOM     16  N   UNL     1      -3.621  13.851  22.030  0.00  0.00    +0.000 N 
ATOM     17  C   UNL     1      -2.577  14.666  22.349  0.00  0.00    +0.000 C 
ATOM     18  O   UNL     1      -2.357  15.146  23.450  0.00  0.00    +0.000 OA
ATOM     19  H   UNL     1      -2.258  13.920  19.171  0.00  0.00    +0.000 HD
ATOM     20  H   UNL     1      -4.308  13.515  22.683  0.00  0.00    +0.000 HD
ENDBRANCH  10  12
ENDBRANCH   7  10
ENDBRANCH   1   7
BRANCH   4  21
ATOM     21  O   UNL     1       1.344   9.080  20.618  0.00  0.00    +0.000 OA
BRANCH  21  22
ATOM     22  C   UNL     1       1.771   7.894  20.101  0.00  0.00    +0.000 A 
ATOM     23  C   UNL     1       2.303   7.940  18.811  0.00  0.00    +0.000 A 
ATOM     24  C   UNL     1       2.608   6.759  18.129  0.00  0.00    +0.000 A 
ATOM     25  C   UNL     1       2.383   5.525  18.742  0.00  0.00    +0.000 A 
ATOM     26  C   UNL     1       1.895   5.480  20.042  0.00  0.00    +0.000 A 
ATOM     27  C   UNL     1       1.683   6.664  20.749  0.00  0.00    +0.000 A 
BRANCH  25  28
ATOM     28  O   UNL     1       2.622   4.311  18.157  0.00  0.00    +0.000 OA
BRANCH  28  29
ATOM     29  C   UNL     1       3.792   3.665  18.658  0.00  0.00    +0.000 C 
BRANCH  29  30
ATOM     30  C   UNL     1       5.003   4.012  17.823  0.00  0.00    +0.000 A 
ATOM     31  C   UNL     1       6.096   4.634  18.443  0.00  0.00    +0.000 A 
ATOM     32  C   UNL     1       7.218   5.011  17.707  0.00  0.00    +0.000 A 
ATOM     33  C   UNL     1       7.252   4.787  16.332  0.00  0.00    +0.000 A 
ATOM     34  C   UNL     1       6.173   4.164  15.694  0.00  0.00    +0.000 A 
ATOM     35  C   UNL     1       5.047   3.787  16.438  0.00  0.00    +0.000 A 
BRANCH  34  36
ATOM     36  C   UNL     1       6.213   3.934  14.290  0.00  0.00    +0.000 C 
ATOM     37  N   UNL     1       6.245   3.728  13.139  0.00  0.00    +0.000 NA
ENDBRANCH  34  36
ENDBRANCH  29  30
ENDBRANCH  28  29
ENDBRANCH  25  28
ENDBRANCH  21  22
ENDBRANCH   4  21
TORSDOF 9
ENDMDL
MODEL 5
REMARK VINA RESULT:      -7.7      1.273      1.726
REMARK  Name = 
REMARK  10 active torsions:
REMARK  status: ('A' for Active; 'I' for Inactive)
REMARK    1  A    between atoms: C_1  and  C_2
REMARK    2  A    between atoms: C_2  and  C_3
REMARK    3  A    between atoms: C_3  and  S_4
REMARK    4  A    between atoms: S_4  and  N_7
REMARK    5  A    between atoms: C_10  and  O_11
REMARK    6  A    between atoms: O_11  and  C_12
REMARK    7  A    between atoms: C_15  and  O_16
REMARK    8  A    between atoms: O_16  and  C_17
REMARK    9  A    between atoms: C_17  and  C_18
REMARK   10  A    between atoms: C_22  and  C_23
REMARK                            x       y       z     vdW  Elec       q    Type
REMARK                         _______ _______ _______ _____ _____    ______ ____
ROOT
ATOM      1  N   UNL     1      -0.419  12.754  20.557  0.00  0.00    +0.000 NA
ATOM      2  C   UNL     1       0.641  12.812  19.524  0.00  0.00    +0.000 C 
ATOM      3  C   UNL     1       0.331  11.828  18.410  0.00  0.00    +0.000 C 
ATOM      4  C   UNL     1       0.270  10.389  18.930  0.00  0.00    +0.000 C 
ATOM      5  C   UNL     1      -0.893  10.366  19.937  0.00  0.00    +0.000 C 
ATOM      6  C   UNL     1      -0.678  11.371  21.072  0.00  0.00    +0.000 C 
ENDROOT
BRANCH   1   7
ATOM      7  S   UNL     1      -0.173  13.940  21.791  0.00  0.00    +0.000 S 
ATOM      8  O   UNL     1      -0.731  15.193  21.337  0.00  0.00    +0.000 OA
ATOM      9  O   UNL     1       1.193  13.836  22.250  0.00  0.00    +0.000 OA
BRANCH   7  10
ATOM     10  C   UNL     1      -1.249  13.263  23.020  0.00  0.00    +0.000 C 
BRANCH  10  12
ATOM     11  C   UNL     1      -3.040  14.833  23.726  0.00  0.00    +0.000 C 
ATOM     12  C   UNL     1      -2.703  13.637  22.828  0.00  0.00    +0.000 C 
ATOM     13  N   UNL     1      -3.109  13.923  21.469  0.00  0.00    +0.000 N 
ATOM     14  C   UNL     1      -4.281  13.279  21.137  0.00  0.00    +0.000 C 
ATOM     15  O   UNL     1      -4.899  13.444  20.103  0.00  0.00    +0.000 OA
ATOM     16  N   UNL     1      -4.614  12.450  22.155  0.00  0.00    +0.000 N 
ATOM     17  C   UNL     1      -3.704  12.522  23.166  0.00  0.00    +0.000 C 
ATOM     18  O   UNL     1      -3.746  11.890  24.210  0.00  0.00    +0.000 OA
ATOM     19  H   UNL     1      -2.685  14.581  20.825  0.00  0.00    +0.000 HD
ATOM     20  H   UNL     1      -5.405  11.829  22.137  0.00  0.00    +0.000 HD
ENDBRANCH  10  12
ENDBRANCH   7  10
ENDBRANCH   1   7
BRANCH   4  21
ATOM     21  O   UNL     1       1.416   9.745  19.531  0.00  0.00    +0.000 OA
BRANCH  21  22
ATOM     22  C   UNL     1       1.714   8.432  19.324  0.00  0.00    +0.000 A 
ATOM     23  C   UNL     1       1.599   7.592  20.434  0.00  0.00    +0.000 A 
ATOM     24  C   UNL     1       2.045   6.269  20.369  0.00  0.00    +0.000 A 
ATOM     25  C   UNL     1       2.605   5.783  19.186  0.00  0.00    +0.000 A 
ATOM     26  C   UNL     1       2.679   6.605  18.069  0.00  0.00    +0.000 A 
ATOM     27  C   UNL     1       2.146   7.893  18.114  0.00  0.00    +0.000 A 
BRANCH  25  28
ATOM     28  O   UNL     1       3.095   4.516  19.022  0.00  0.00    +0.000 OA
BRANCH  28  29
ATOM     29  C   UNL     1       4.446   4.372  19.460  0.00  0.00    +0.000 C 
BRANCH  29  30
ATOM     30  C   UNL     1       5.414   4.806  18.382  0.00  0.00    +0.000 A 
ATOM     31  C   UNL     1       6.348   5.809  18.678  0.00  0.00    +0.000 A 
ATOM     32  C   UNL     1       7.233   6.273  17.707  0.00  0.00    +0.000 A 
ATOM     33  C   UNL     1       7.180   5.751  16.416  0.00  0.00    +0.000 A 
ATOM     34  C   UNL     1       6.257   4.747  16.101  0.00  0.00    +0.000 A 
ATOM     35  C   UNL     1       5.369   4.284  17.080  0.00  0.00    +0.000 A 
BRANCH  34  36
ATOM     36  C   UNL     1       6.207   4.215  14.781  0.00  0.00    +0.000 C 
ATOM     37  N   UNL     1       6.185   3.774  13.697  0.00  0.00    +0.000 NA
ENDBRANCH  34  36
ENDBRANCH  29  30
ENDBRANCH  28  29
ENDBRANCH  25  28
ENDBRANCH  21  22
ENDBRANCH   4  21
TORSDOF 9
ENDMDL
MODEL 6
REMARK VINA RESULT:      -7.7      1.783      2.667
REMARK  Name = 
REMARK  10 active torsions:
REMARK  status: ('A' for Active; 'I' for Inactive)
REMARK    1  A    between atoms: C_1  and  C_2
REMARK    2  A    between atoms: C_2  and  C_3
REMARK    3  A    between atoms: C_3  and  S_4
REMARK    4  A    between atoms: S_4  and  N_7
REMARK    5  A    between atoms: C_10  and  O_11
REMARK    6  A    between atoms: O_11  and  C_12
REMARK    7  A    between atoms: C_15  and  O_16
REMARK    8  A    between atoms: O_16  and  C_17
REMARK    9  A    between atoms: C_17  and  C_18
REMARK   10  A    between atoms: C_22  and  C_23
REMARK                            x       y       z     vdW  Elec       q    Type
REMARK                         _______ _______ _______ _____ _____    ______ ____
ROOT
ATOM      1  N   UNL     1      -0.192  11.341  20.379  0.00  0.00    +0.000 NA
ATOM      2  C   UNL     1      -0.333  10.148  19.514  0.00  0.00    +0.000 C 
ATOM      3  C   UNL     1      -0.736   8.948  20.352  0.00  0.00    +0.000 C 
ATOM      4  C   UNL     1       0.314   8.625  21.418  0.00  0.00    +0.000 C 
ATOM      5  C   UNL     1       0.364   9.862  22.332  0.00  0.00    +0.000 C 
ATOM      6  C   UNL     1       0.720  11.129  21.549  0.00  0.00    +0.000 C 
ENDROOT
BRANCH   1   7
ATOM      7  S   UNL     1       0.154  12.761  19.455  0.00  0.00    +0.000 S 
ATOM      8  O   UNL     1      -1.008  13.080  18.656  0.00  0.00    +0.000 OA
ATOM      9  O   UNL     1       1.465  12.609  18.867  0.00  0.00    +0.000 OA
BRANCH   7  10
ATOM     10  C   UNL     1       0.250  13.921  20.787  0.00  0.00    +0.000 C 
BRANCH  10  12
ATOM     11  C   UNL     1      -1.570  15.608  20.912  0.00  0.00    +0.000 C 
ATOM     12  C   UNL     1      -1.091  14.240  21.413  0.00  0.00    +0.000 C 
ATOM     13  N   UNL     1      -2.135  13.259  21.210  0.00  0.00    +0.000 N 
ATOM     14  C   UNL     1      -2.796  12.964  22.382  0.00  0.00    +0.000 C 
ATOM     15  O   UNL     1      -3.788  12.265  22.467  0.00  0.00    +0.000 OA
ATOM     16  N   UNL     1      -2.156  13.586  23.401  0.00  0.00    +0.000 N 
ATOM     17  C   UNL     1      -1.086  14.297  22.948  0.00  0.00    +0.000 C 
ATOM     18  O   UNL     1      -0.326  14.959  23.637  0.00  0.00    +0.000 OA
ATOM     19  H   UNL     1      -2.454  12.872  20.329  0.00  0.00    +0.000 HD
ATOM     20  H   UNL     1      -2.415  13.490  24.368  0.00  0.00    +0.000 HD
ENDBRANCH  10  12
ENDBRANCH   7  10
ENDBRANCH   1   7
BRANCH   4  21
ATOM     21  O   UNL     1       1.666   8.252  21.069  0.00  0.00    +0.000 OA
BRANCH  21  22
ATOM     22  C   UNL     1       1.950   7.214  20.234  0.00  0.00    +0.000 A 
ATOM     23  C   UNL     1       2.380   7.555  18.950  0.00  0.00    +0.000 A 
ATOM     24  C   UNL     1       2.530   6.570  17.969  0.00  0.00    +0.000 A 
ATOM     25  C   UNL     1       2.252   5.237  18.276  0.00  0.00    +0.000 A 
ATOM     26  C   UNL     1       1.868   4.892  19.566  0.00  0.00    +0.000 A 
ATOM     27  C   UNL     1       1.813   5.867  20.562  0.00  0.00    +0.000 A 
BRANCH  25  28
ATOM     28  O   UNL     1       2.342   4.200  17.388  0.00  0.00    +0.000 OA
BRANCH  28  29
ATOM     29  C   UNL     1       3.372   3.267  17.713  0.00  0.00    +0.000 C 
BRANCH  29  30
ATOM     30  C   UNL     1       4.740   3.890  17.550  0.00  0.00    +0.000 A 
ATOM     31  C   UNL     1       5.450   4.271  18.697  0.00  0.00    +0.000 A 
ATOM     32  C   UNL     1       6.695   4.888  18.597  0.00  0.00    +0.000 A 
ATOM     33  C   UNL     1       7.239   5.151  17.341  0.00  0.00    +0.000 A 
ATOM     34  C   UNL     1       6.548   4.775  16.183  0.00  0.00    +0.000 A 
ATOM     35  C   UNL     1       5.296   4.155  16.289  0.00  0.00    +0.000 A 
BRANCH  34  36
ATOM     36  C   UNL     1       7.109   5.043  14.902  0.00  0.00    +0.000 C 
ATOM     37  N   UNL     1       7.578   5.247  13.850  0.00  0.00    +0.000 NA
ENDBRANCH  34  36
ENDBRANCH  29  30
ENDBRANCH  28  29
ENDBRANCH  25  28
ENDBRANCH  21  22
ENDBRANCH   4  21
TORSDOF 9
ENDMDL
MODEL 7
REMARK VINA RESULT:      -7.6      1.875      2.601
REMARK  Name = 
REMARK  10 active torsions:
REMARK  status: ('A' for Active; 'I' for Inactive)
REMARK    1  A    between atoms: C_1  and  C_2
REMARK    2  A    between atoms: C_2  and  C_3
REMARK    3  A    between atoms: C_3  and  S_4
REMARK    4  A    between atoms: S_4  and  N_7
REMARK    5  A    between atoms: C_10  and  O_11
REMARK    6  A    between atoms: O_11  and  C_12
REMARK    7  A    between atoms: C_15  and  O_16
REMARK    8  A    between atoms: O_16  and  C_17
REMARK    9  A    between atoms: C_17  and  C_18
REMARK   10  A    between atoms: C_22  and  C_23
REMARK                            x       y       z     vdW  Elec       q    Type
REMARK                         _______ _______ _______ _____ _____    ______ ____
ROOT
ATOM      1  N   UNL     1       0.076  11.484  20.945  0.00  0.00    +0.000 NA
ATOM      2  C   UNL     1       0.109  10.602  19.757  0.00  0.00    +0.000 C 
ATOM      3  C   UNL     1      -0.622   9.305  20.057  0.00  0.00    +0.000 C 
ATOM      4  C   UNL     1       0.030   8.546  21.216  0.00  0.00    +0.000 C 
ATOM      5  C   UNL     1      -0.101   9.472  22.438  0.00  0.00    +0.000 C 
ATOM      6  C   UNL     1       0.573  10.826  22.195  0.00  0.00    +0.000 C 
ENDROOT
BRANCH   1   7
ATOM      7  S   UNL     1       0.795  13.023  20.617  0.00  0.00    +0.000 S 
ATOM      8  O   UNL     1       0.573  13.342  19.224  0.00  0.00    +0.000 OA
ATOM      9  O   UNL     1       2.117  13.036  21.200  0.00  0.00    +0.000 OA
BRANCH   7  10
ATOM     10  C   UNL     1      -0.281  14.027  21.597  0.00  0.00    +0.000 C 
BRANCH  10  12
ATOM     11  C   UNL     1      -2.068  15.560  20.807  0.00  0.00    +0.000 C 
ATOM     12  C   UNL     1      -1.698  14.096  21.069  0.00  0.00    +0.000 C 
ATOM     13  N   UNL     1      -1.971  13.309  19.885  0.00  0.00    +0.000 N 
ATOM     14  C   UNL     1      -3.132  12.578  20.013  0.00  0.00    +0.000 C 
ATOM     15  O   UNL     1      -3.650  11.930  19.123  0.00  0.00    +0.000 OA
ATOM     16  N   UNL     1      -3.584  12.713  21.283  0.00  0.00    +0.000 N 
ATOM     17  C   UNL     1      -2.765  13.521  22.013  0.00  0.00    +0.000 C 
ATOM     18  O   UNL     1      -2.921  13.824  23.185  0.00  0.00    +0.000 OA
ATOM     19  H   UNL     1      -1.469  13.325  19.006  0.00  0.00    +0.000 HD
ATOM     20  H   UNL     1      -4.393  12.237  21.645  0.00  0.00    +0.000 HD
ENDBRANCH  10  12
ENDBRANCH   7  10
ENDBRANCH   1   7
BRANCH   4  21
ATOM     21  O   UNL     1       1.390   8.064  21.144  0.00  0.00    +0.000 OA
BRANCH  21  22
ATOM     22  C   UNL     1       1.765   7.038  20.329  0.00  0.00    +0.000 A 
ATOM     23  C   UNL     1       2.291   7.399  19.087  0.00  0.00    +0.000 A 
ATOM     24  C   UNL     1       2.543   6.425  18.116  0.00  0.00    +0.000 A 
ATOM     25  C   UNL     1       2.270   5.084  18.390  0.00  0.00    +0.000 A 
ATOM     26  C   UNL     1       1.787   4.721  19.642  0.00  0.00    +0.000 A 
ATOM     27  C   UNL     1       1.629   5.686  20.636  0.00  0.00    +0.000 A 
BRANCH  25  28
ATOM     28  O   UNL     1       2.455   4.057  17.506  0.00  0.00    +0.000 OA
BRANCH  28  29
ATOM     29  C   UNL     1       3.543   3.202  17.855  0.00  0.00    +0.000 C 
BRANCH  29  30
ATOM     30  C   UNL     1       4.868   3.907  17.669  0.00  0.00    +0.000 A 
ATOM     31  C   UNL     1       5.542   4.386  18.801  0.00  0.00    +0.000 A 
ATOM     32  C   UNL     1       6.745   5.079  18.678  0.00  0.00    +0.000 A 
ATOM     33  C   UNL     1       7.279   5.320  17.414  0.00  0.00    +0.000 A 
ATOM     34  C   UNL     1       6.623   4.847  16.271  0.00  0.00    +0.000 A 
ATOM     35  C   UNL     1       5.414   4.151  16.399  0.00  0.00    +0.000 A 
BRANCH  34  36
ATOM     36  C   UNL     1       7.174   5.093  14.981  0.00  0.00    +0.000 C 
ATOM     37  N   UNL     1       7.611   5.303  13.917  0.00  0.00    +0.000 NA
ENDBRANCH  34  36
ENDBRANCH  29  30
ENDBRANCH  28  29
ENDBRANCH  25  28
ENDBRANCH  21  22
ENDBRANCH   4  21
TORSDOF 9
ENDMDL
MODEL 8
REMARK VINA RESULT:      -7.6      2.617      4.662
REMARK  Name = 
REMARK  10 active torsions:
REMARK  status: ('A' for Active; 'I' for Inactive)
REMARK    1  A    between atoms: C_1  and  C_2
REMARK    2  A    between atoms: C_2  and  C_3
REMARK    3  A    between atoms: C_3  and  S_4
REMARK    4  A    between atoms: S_4  and  N_7
REMARK    5  A    between atoms: C_10  and  O_11
REMARK    6  A    between atoms: O_11  and  C_12
REMARK    7  A    between atoms: C_15  and  O_16
REMARK    8  A    between atoms: O_16  and  C_17
REMARK    9  A    between atoms: C_17  and  C_18
REMARK   10  A    between atoms: C_22  and  C_23
REMARK                            x       y       z     vdW  Elec       q    Type
REMARK                         _______ _______ _______ _____ _____    ______ ____
ROOT
ATOM      1  N   UNL     1      -0.673  13.231  20.238  0.00  0.00    +0.000 NA
ATOM      2  C   UNL     1      -1.091  12.716  18.914  0.00  0.00    +0.000 C 
ATOM      3  C   UNL     1      -1.629  11.303  19.056  0.00  0.00    +0.000 C 
ATOM      4  C   UNL     1      -0.567  10.349  19.609  0.00  0.00    +0.000 C 
ATOM      5  C   UNL     1      -0.228  10.883  21.012  0.00  0.00    +0.000 C 
ATOM      6  C   UNL     1       0.279  12.327  20.959  0.00  0.00    +0.000 C 
ENDROOT
BRANCH   1   7
ATOM      7  S   UNL     1      -0.162  14.880  20.149  0.00  0.00    +0.000 S 
ATOM      8  O   UNL     1      -0.667  15.578  21.310  0.00  0.00    +0.000 OA
ATOM      9  O   UNL     1      -0.407  15.356  18.807  0.00  0.00    +0.000 OA
BRANCH   7  10
ATOM     10  C   UNL     1       1.575  14.626  20.363  0.00  0.00    +0.000 C 
BRANCH  10  12
ATOM     11  C   UNL     1       2.463  13.551  18.307  0.00  0.00    +0.000 C 
ATOM     12  C   UNL     1       2.383  14.858  19.104  0.00  0.00    +0.000 C 
ATOM     13  N   UNL     1       1.919  15.923  18.241  0.00  0.00    +0.000 N 
ATOM     14  C   UNL     1       2.950  16.745  17.842  0.00  0.00    +0.000 C 
ATOM     15  O   UNL     1       2.853  17.639  17.023  0.00  0.00    +0.000 OA
ATOM     16  N   UNL     1       4.071  16.380  18.510  0.00  0.00    +0.000 N 
ATOM     17  C   UNL     1       3.825  15.330  19.344  0.00  0.00    +0.000 C 
ATOM     18  O   UNL     1       4.644  14.788  20.069  0.00  0.00    +0.000 OA
ATOM     19  H   UNL     1       0.988  16.047  17.862  0.00  0.00    +0.000 HD
ATOM     20  H   UNL     1       4.952  16.857  18.432  0.00  0.00    +0.000 HD
ENDBRANCH  10  12
ENDBRANCH   7  10
ENDBRANCH   1   7
BRANCH   4  21
ATOM     21  O   UNL     1       0.666  10.086  18.903  0.00  0.00    +0.000 OA
BRANCH  21  22
ATOM     22  C   UNL     1       1.419   8.973  19.129  0.00  0.00    +0.000 A 
ATOM     23  C   UNL     1       2.224   8.548  18.069  0.00  0.00    +0.000 A 
ATOM     24  C   UNL     1       2.899   7.327  18.140  0.00  0.00    +0.000 A 
ATOM     25  C   UNL     1       2.772   6.528  19.277  0.00  0.00    +0.000 A 
ATOM     26  C   UNL     1       2.007   6.971  20.349  0.00  0.00    +0.000 A 
ATOM     27  C   UNL     1       1.414   8.233  20.309  0.00  0.00    +0.000 A 
BRANCH  25  28
ATOM     28  O   UNL     1       3.367   5.306  19.440  0.00  0.00    +0.000 OA
BRANCH  28  29
ATOM     29  C   UNL     1       3.329   4.500  18.263  0.00  0.00    +0.000 C 
BRANCH  29  30
ATOM     30  C   UNL     1       4.684   4.452  17.594  0.00  0.00    +0.000 A 
ATOM     31  C   UNL     1       5.825   4.727  18.359  0.00  0.00    +0.000 A 
ATOM     32  C   UNL     1       7.092   4.737  17.779  0.00  0.00    +0.000 A 
ATOM     33  C   UNL     1       7.231   4.490  16.415  0.00  0.00    +0.000 A 
ATOM     34  C   UNL     1       6.104   4.210  15.633  0.00  0.00    +0.000 A 
ATOM     35  C   UNL     1       4.832   4.201  16.220  0.00  0.00    +0.000 A 
BRANCH  34  36
ATOM     36  C   UNL     1       6.250   3.956  14.239  0.00  0.00    +0.000 C 
ATOM     37  N   UNL     1       6.354   3.754  13.092  0.00  0.00    +0.000 NA
ENDBRANCH  34  36
ENDBRANCH  29  30
ENDBRANCH  28  29
ENDBRANCH  25  28
ENDBRANCH  21  22
ENDBRANCH   4  21
TORSDOF 9
ENDMDL
MODEL 9
REMARK VINA RESULT:      -7.5      1.186      1.320
REMARK  Name = 
REMARK  10 active torsions:
REMARK  status: ('A' for Active; 'I' for Inactive)
REMARK    1  A    between atoms: C_1  and  C_2
REMARK    2  A    between atoms: C_2  and  C_3
REMARK    3  A    between atoms: C_3  and  S_4
REMARK    4  A    between atoms: S_4  and  N_7
REMARK    5  A    between atoms: C_10  and  O_11
REMARK    6  A    between atoms: O_11  and  C_12
REMARK    7  A    between atoms: C_15  and  O_16
REMARK    8  A    between atoms: O_16  and  C_17
REMARK    9  A    between atoms: C_17  and  C_18
REMARK   10  A    between atoms: C_22  and  C_23
REMARK                            x       y       z     vdW  Elec       q    Type
REMARK                         _______ _______ _______ _____ _____    ______ ____
ROOT
ATOM      1  N   UNL     1      -0.399  12.476  20.629  0.00  0.00    +0.000 NA
ATOM      2  C   UNL     1       1.076  12.339  20.634  0.00  0.00    +0.000 C 
ATOM      3  C   UNL     1       1.536  11.679  19.346  0.00  0.00    +0.000 C 
ATOM      4  C   UNL     1       0.941  10.277  19.187  0.00  0.00    +0.000 C 
ATOM      5  C   UNL     1      -0.582  10.485  19.109  0.00  0.00    +0.000 C 
ATOM      6  C   UNL     1      -1.119  11.192  20.357  0.00  0.00    +0.000 C 
ENDROOT
BRANCH   1   7
ATOM      7  S   UNL     1      -0.964  13.328  22.023  0.00  0.00    +0.000 S 
ATOM      8  O   UNL     1      -0.400  14.659  22.006  0.00  0.00    +0.000 OA
ATOM      9  O   UNL     1      -0.828  12.458  23.169  0.00  0.00    +0.000 OA
BRANCH   7  10
ATOM     10  C   UNL     1      -2.673  13.441  21.584  0.00  0.00    +0.000 C 
BRANCH  10  12
ATOM     11  C   UNL     1      -4.641  13.062  23.053  0.00  0.00    +0.000 C 
ATOM     12  C   UNL     1      -3.539  14.054  22.665  0.00  0.00    +0.000 C 
ATOM     13  N   UNL     1      -2.847  14.499  23.855  0.00  0.00    +0.000 N 
ATOM     14  C   UNL     1      -3.240  15.763  24.235  0.00  0.00    +0.000 C 
ATOM     15  O   UNL     1      -2.903  16.319  25.263  0.00  0.00    +0.000 OA
ATOM     16  N   UNL     1      -4.058  16.262  23.277  0.00  0.00    +0.000 N 
ATOM     17  C   UNL     1      -4.232  15.366  22.265  0.00  0.00    +0.000 C 
ATOM     18  O   UNL     1      -4.917  15.539  21.269  0.00  0.00    +0.000 OA
ATOM     19  H   UNL     1      -2.216  13.961  24.438  0.00  0.00    +0.000 HD
ATOM     20  H   UNL     1      -4.442  17.191  23.294  0.00  0.00    +0.000 HD
ENDBRANCH  10  12
ENDBRANCH   7  10
ENDBRANCH   1   7
BRANCH   4  21
ATOM     21  O   UNL     1       1.217   9.219  20.132  0.00  0.00    +0.000 OA
BRANCH  21  22
ATOM     22  C   UNL     1       1.748   8.020  19.759  0.00  0.00    +0.000 A 
ATOM     23  C   UNL     1       2.251   7.947  18.459  0.00  0.00    +0.000 A 
ATOM     24  C   UNL     1       2.657   6.721  17.926  0.00  0.00    +0.000 A 
ATOM     25  C   UNL     1       2.563   5.562  18.699  0.00  0.00    +0.000 A 
ATOM     26  C   UNL     1       2.104   5.643  20.008  0.00  0.00    +0.000 A 
ATOM     27  C   UNL     1       1.791   6.883  20.562  0.00  0.00    +0.000 A 
BRANCH  25  28
ATOM     28  O   UNL     1       2.908   4.310  18.268  0.00  0.00    +0.000 OA
BRANCH  28  29
ATOM     29  C   UNL     1       4.218   3.915  18.677  0.00  0.00    +0.000 C 
BRANCH  29  30
ATOM     30  C   UNL     1       5.252   4.324  17.652  0.00  0.00    +0.000 A 
ATOM     31  C   UNL     1       6.262   5.218  18.032  0.00  0.00    +0.000 A 
ATOM     32  C   UNL     1       7.213   5.658  17.113  0.00  0.00    +0.000 A 
ATOM     33  C   UNL     1       7.152   5.222  15.791  0.00  0.00    +0.000 A 
ATOM     34  C   UNL     1       6.152   4.327  15.392  0.00  0.00    +0.000 A 
ATOM     35  C   UNL     1       5.199   3.887  16.319  0.00  0.00    +0.000 A 
BRANCH  34  36
ATOM     36  C   UNL     1       6.095   3.881  14.040  0.00  0.00    +0.000 C 
ATOM     37  N   UNL     1       6.033   3.525  12.928  0.00  0.00    +0.000 NA
ENDBRANCH  34  36
ENDBRANCH  29  30
ENDBRANCH  28  29
ENDBRANCH  25  28
ENDBRANCH  21  22
ENDBRANCH   4  21
TORSDOF 9
ENDMDL
