MODEL 1
REMARK VINA RESULT:      -8.4      0.000      0.000
REMARK  Name = 
REMARK  5 active torsions:
REMARK  status: ('A' for Active; 'I' for Inactive)
REMARK    1  A    between atoms: C_1  and  C_2
REMARK    2  A    between atoms: C_11  and  C_13
REMARK    3  A    between atoms: C_13  and  N_14
REMARK    4  A    between atoms: N_21  and  C_22
REMARK    5  A    between atoms: N_25  and  C_26
REMARK                            x       y       z     vdW  Elec       q    Type
REMARK                         _______ _______ _______ _____ _____    ______ ____
ROOT
ATOM      1  C   UNL     1       2.081   8.358  18.260  0.00  0.00    +0.000 C 
ENDROOT
BRANCH   1   2
ATOM      2  N   UNL     1       2.525   6.926  18.244  0.00  0.00    +0.000 N 
ATOM      3  C   UNL     1       3.470   6.686  17.264  0.00  0.00    +0.000 A 
ATOM      4  N   UNL     1       4.630   6.543  17.846  0.00  0.00    +0.000 NA
ATOM      5  C   UNL     1       4.256   5.812  18.913  0.00  0.00    +0.000 A 
ATOM      6  C   UNL     1       2.940   6.025  19.262  0.00  0.00    +0.000 A 
ATOM      7  C   UNL     1       2.264   5.032  20.102  0.00  0.00    +0.000 A 
ATOM      8  O   UNL     1       1.110   5.141  20.502  0.00  0.00    +0.000 OA
ATOM      9  N   UNL     1       3.066   3.866  20.362  0.00  0.00    +0.000 N 
ATOM     10  C   UNL     1       2.514   2.693  21.035  0.00  0.00    +0.000 C 
ATOM     11  C   UNL     1       4.322   3.605  19.774  0.00  0.00    +0.000 A 
ATOM     12  O   UNL     1       4.798   2.470  19.733  0.00  0.00    +0.000 OA
ATOM     13  N   UNL     1       4.974   4.684  19.201  0.00  0.00    +0.000 N 
ATOM     14  C   UNL     1       6.147   4.444  18.369  0.00  0.00    +0.000 C 
ENDBRANCH   1   2
BRANCH   1  25
ATOM     15  C   UNL     1      -0.953   9.889  17.665  0.00  0.00    +0.000 C 
ATOM     16  C   UNL     1      -0.051  10.649  18.636  0.00  0.00    +0.000 C 
ATOM     17  C   UNL     1      -0.876  11.808  19.252  0.00  0.00    +0.000 C 
ATOM     18  C   UNL     1      -0.990  11.388  20.691  0.00  0.00    +0.000 A 
ATOM     19  C   UNL     1      -1.743  12.050  21.666  0.00  0.00    +0.000 A 
ATOM     20  C   UNL     1      -1.720  11.560  22.960  0.00  0.00    +0.000 A 
ATOM     21  C   UNL     1      -0.939  10.421  23.255  0.00  0.00    +0.000 A 
ATOM     22  C   UNL     1      -0.188   9.772  22.259  0.00  0.00    +0.000 A 
ATOM     23  C   UNL     1      -0.209  10.259  20.947  0.00  0.00    +0.000 A 
ATOM     24  N   UNL     1       0.450   9.802  19.751  0.00  0.00    +0.000 N 
ATOM     25  C   UNL     1       1.416   8.789  19.668  0.00  0.00    +0.000 C 
ATOM     26  O   UNL     1       1.776   8.160  20.675  0.00  0.00    +0.000 OA
ENDBRANCH   1  25
TORSDOF 2
ENDMDL
MODEL 2
REMARK VINA RESULT:      -7.9      2.198      3.445
REMARK  Name = 
REMARK  5 active torsions:
REMARK  status: ('A' for Active; 'I' for Inactive)
REMARK    1  A    between atoms: C_1  and  C_2
REMARK    2  A    between atoms: C_11  and  C_13
REMARK    3  A    between atoms: C_13  and  N_14
REMARK    4  A    between atoms: N_21  and  C_22
REMARK    5  A    between atoms: N_25  and  C_26
REMARK                            x       y       z     vdW  Elec       q    Type
REMARK                         _______ _______ _______ _____ _____    ______ ____
ROOT
ATOM      1  C   UNL     1       1.416   8.440  17.896  0.00  0.00    +0.000 C 
ENDROOT
BRANCH   1   2
ATOM      2  N   UNL     1       2.490   7.589  18.503  0.00  0.00    +0.000 N 
ATOM      3  C   UNL     1       2.225   7.281  19.826  0.00  0.00    +0.000 A 
ATOM      4  N   UNL     1       1.860   6.028  19.884  0.00  0.00    +0.000 NA
ATOM      5  C   UNL     1       2.738   5.500  19.011  0.00  0.00    +0.000 A 
ATOM      6  C   UNL     1       3.161   6.414  18.069  0.00  0.00    +0.000 A 
ATOM      7  C   UNL     1       4.395   6.142  17.328  0.00  0.00    +0.000 A 
ATOM      8  O   UNL     1       4.840   6.866  16.444  0.00  0.00    +0.000 OA
ATOM      9  N   UNL     1       5.087   4.966  17.785  0.00  0.00    +0.000 N 
ATOM     10  C   UNL     1       6.417   4.620  17.290  0.00  0.00    +0.000 C 
ATOM     11  C   UNL     1       4.721   4.205  18.916  0.00  0.00    +0.000 A 
ATOM     12  O   UNL     1       5.516   3.449  19.476  0.00  0.00    +0.000 OA
ATOM     13  N   UNL     1       3.435   4.388  19.396  0.00  0.00    +0.000 N 
ATOM     14  C   UNL     1       3.075   3.826  20.693  0.00  0.00    +0.000 C 
ENDBRANCH   1   2
BRANCH   1  25
ATOM     15  C   UNL     1      -0.321   9.792  20.553  0.00  0.00    +0.000 C 
ATOM     16  C   UNL     1      -0.442  10.593  19.258  0.00  0.00    +0.000 C 
ATOM     17  C   UNL     1      -1.153  11.931  19.584  0.00  0.00    +0.000 C 
ATOM     18  C   UNL     1      -0.061  12.938  19.351  0.00  0.00    +0.000 A 
ATOM     19  C   UNL     1      -0.160  14.308  19.612  0.00  0.00    +0.000 A 
ATOM     20  C   UNL     1       0.924  15.114  19.311  0.00  0.00    +0.000 A 
ATOM     21  C   UNL     1       2.083  14.535  18.748  0.00  0.00    +0.000 A 
ATOM     22  C   UNL     1       2.160  13.154  18.493  0.00  0.00    +0.000 A 
ATOM     23  C   UNL     1       1.070  12.331  18.798  0.00  0.00    +0.000 A 
ATOM     24  N   UNL     1       0.875  10.913  18.645  0.00  0.00    +0.000 N 
ATOM     25  C   UNL     1       1.740  10.020  17.996  0.00  0.00    +0.000 C 
ATOM     26  O   UNL     1       2.808  10.406  17.500  0.00  0.00    +0.000 OA
ENDBRANCH   1  25
TORSDOF 2
ENDMDL
MODEL 3
REMARK VINA RESULT:      -7.9      2.357      8.178
REMARK  Name = 
REMARK  5 active torsions:
REMARK  status: ('A' for Active; 'I' for Inactive)
REMARK    1  A    between atoms: C_1  and  C_2
REMARK    2  A    between atoms: C_11  and  C_13
REMARK    3  A    between atoms: C_13  and  N_14
REMARK    4  A    between atoms: N_21  and  C_22
REMARK    5  A    between atoms: N_25  and  C_26
REMARK                            x       y       z     vdW  Elec       q    Type
REMARK                         _______ _______ _______ _____ _____    ______ ____
ROOT
ATOM      1  C   UNL     1       1.910   7.581  19.298  0.00  0.00    +0.000 C 
ENDROOT
BRANCH   1   2
ATOM      2  N   UNL     1       1.446   9.006  19.271  0.00  0.00    +0.000 N 
ATOM      3  C   UNL     1       1.207   9.452  17.983  0.00  0.00    +0.000 A 
ATOM      4  N   UNL     1      -0.086   9.525  17.814  0.00  0.00    +0.000 NA
ATOM      5  C   UNL     1      -0.438  10.038  19.007  0.00  0.00    +0.000 A 
ATOM      6  C   UNL     1       0.461   9.722  20.004  0.00  0.00    +0.000 A 
ATOM      7  C   UNL     1       0.464  10.524  21.231  0.00  0.00    +0.000 A 
ATOM      8  O   UNL     1       1.193  10.306  22.192  0.00  0.00    +0.000 OA
ATOM      9  N   UNL     1      -0.430  11.651  21.177  0.00  0.00    +0.000 N 
ATOM     10  C   UNL     1      -0.447  12.663  22.229  0.00  0.00    +0.000 C 
ATOM     11  C   UNL     1      -1.148  12.055  20.032  0.00  0.00    +0.000 A 
ATOM     12  O   UNL     1      -1.602  13.194  19.917  0.00  0.00    +0.000 OA
ATOM     13  N   UNL     1      -1.276  11.120  19.018  0.00  0.00    +0.000 N 
ATOM     14  C   UNL     1      -1.787  11.545  17.720  0.00  0.00    +0.000 C 
ENDBRANCH   1   2
BRANCH   1  25
ATOM     15  C   UNL     1       1.456   4.404  18.032  0.00  0.00    +0.000 C 
ATOM     16  C   UNL     1       2.894   4.710  18.448  0.00  0.00    +0.000 C 
ATOM     17  C   UNL     1       3.793   3.543  17.965  0.00  0.00    +0.000 C 
ATOM     18  C   UNL     1       4.635   4.206  16.910  0.00  0.00    +0.000 A 
ATOM     19  C   UNL     1       5.551   3.550  16.081  0.00  0.00    +0.000 A 
ATOM     20  C   UNL     1       6.280   4.306  15.180  0.00  0.00    +0.000 A 
ATOM     21  C   UNL     1       6.085   5.704  15.131  0.00  0.00    +0.000 A 
ATOM     22  C   UNL     1       5.159   6.342  15.975  0.00  0.00    +0.000 A 
ATOM     23  C   UNL     1       4.415   5.585  16.887  0.00  0.00    +0.000 A 
ATOM     24  N   UNL     1       3.418   5.968  17.853  0.00  0.00    +0.000 N 
ATOM     25  C   UNL     1       3.054   7.277  18.199  0.00  0.00    +0.000 C 
ATOM     26  O   UNL     1       3.579   8.256  17.649  0.00  0.00    +0.000 OA
ENDBRANCH   1  25
TORSDOF 2
ENDMDL
MODEL 4
REMARK VINA RESULT:      -7.9      2.124      8.013
REMARK  Name = 
REMARK  5 active torsions:
REMARK  status: ('A' for Active; 'I' for Inactive)
REMARK    1  A    between atoms: C_1  and  C_2
REMARK    2  A    between atoms: C_11  and  C_13
REMARK    3  A    between atoms: C_13  and  N_14
REMARK    4  A    between atoms: N_21  and  C_22
REMARK    5  A    between atoms: N_25  and  C_26
REMARK                            x       y       z     vdW  Elec       q    Type
REMARK                         _______ _______ _______ _____ _____    ______ ____
ROOT
ATOM      1  C   UNL     1       1.155   7.630  21.257  0.00  0.00    +0.000 C 
ENDROOT
BRANCH   1   2
ATOM      2  N   UNL     1       0.142   8.728  21.131  0.00  0.00    +0.000 N 
ATOM      3  C   UNL     1      -0.394   9.084  22.356  0.00  0.00    +0.000 A 
ATOM      4  N   UNL     1       0.112  10.237  22.699  0.00  0.00    +0.000 NA
ATOM      5  C   UNL     1       0.082  10.859  21.506  0.00  0.00    +0.000 A 
ATOM      6  C   UNL     1       0.139   9.975  20.449  0.00  0.00    +0.000 A 
ATOM      7  C   UNL     1      -0.299  10.429  19.126  0.00  0.00    +0.000 A 
ATOM      8  O   UNL     1      -0.254   9.740  18.113  0.00  0.00    +0.000 OA
ATOM      9  N   UNL     1      -0.860  11.755  19.135  0.00  0.00    +0.000 N 
ATOM     10  C   UNL     1      -1.505  12.320  17.954  0.00  0.00    +0.000 C 
ATOM     11  C   UNL     1      -1.107  12.515  20.298  0.00  0.00    +0.000 A 
ATOM     12  O   UNL     1      -1.898  13.460  20.301  0.00  0.00    +0.000 OA
ATOM     13  N   UNL     1      -0.453  12.117  21.451  0.00  0.00    +0.000 N 
ATOM     14  C   UNL     1      -0.847  12.699  22.729  0.00  0.00    +0.000 C 
ENDBRANCH   1   2
BRANCH   1  25
ATOM     15  C   UNL     1       1.200   4.349  20.193  0.00  0.00    +0.000 C 
ATOM     16  C   UNL     1       2.584   4.989  20.298  0.00  0.00    +0.000 C 
ATOM     17  C   UNL     1       3.614   4.015  19.672  0.00  0.00    +0.000 C 
ATOM     18  C   UNL     1       4.063   4.768  18.450  0.00  0.00    +0.000 A 
ATOM     19  C   UNL     1       4.925   4.270  17.468  0.00  0.00    +0.000 A 
ATOM     20  C   UNL     1       5.275   5.100  16.418  0.00  0.00    +0.000 A 
ATOM     21  C   UNL     1       4.760   6.415  16.373  0.00  0.00    +0.000 A 
ATOM     22  C   UNL     1       3.895   6.895  17.373  0.00  0.00    +0.000 A 
ATOM     23  C   UNL     1       3.533   6.061  18.437  0.00  0.00    +0.000 A 
ATOM     24  N   UNL     1       2.682   6.285  19.576  0.00  0.00    +0.000 N 
ATOM     25  C   UNL     1       2.104   7.505  19.955  0.00  0.00    +0.000 C 
ATOM     26  O   UNL     1       2.274   8.533  19.284  0.00  0.00    +0.000 OA
ENDBRANCH   1  25
TORSDOF 2
ENDMDL
MODEL 5
REMARK VINA RESULT:      -7.8      2.162      8.176
REMARK  Name = 
REMARK  5 active torsions:
REMARK  status: ('A' for Active; 'I' for Inactive)
REMARK    1  A    between atoms: C_1  and  C_2
REMARK    2  A    between atoms: C_11  and  C_13
REMARK    3  A    between atoms: C_13  and  N_14
REMARK    4  A    between atoms: N_21  and  C_22
REMARK    5  A    between atoms: N_25  and  C_26
REMARK                            x       y       z     vdW  Elec       q    Type
REMARK                         _______ _______ _______ _____ _____    ______ ____
ROOT
ATOM      1  C   UNL     1       1.454   7.579  21.021  0.00  0.00    +0.000 C 
ENDROOT
BRANCH   1   2
ATOM      2  N   UNL     1       0.509   8.729  20.844  0.00  0.00    +0.000 N 
ATOM      3  C   UNL     1      -0.630   8.591  21.617  0.00  0.00    +0.000 A 
ATOM      4  N   UNL     1      -0.546   9.429  22.614  0.00  0.00    +0.000 NA
ATOM      5  C   UNL     1      -0.040  10.495  21.967  0.00  0.00    +0.000 A 
ATOM      6  C   UNL     1       0.683  10.139  20.849  0.00  0.00    +0.000 A 
ATOM      7  C   UNL     1       0.938  11.153  19.821  0.00  0.00    +0.000 A 
ATOM      8  O   UNL     1       1.600  10.955  18.809  0.00  0.00    +0.000 OA
ATOM      9  N   UNL     1       0.271  12.403  20.077  0.00  0.00    +0.000 N 
ATOM     10  C   UNL     1       0.261  13.480  19.091  0.00  0.00    +0.000 C 
ATOM     11  C   UNL     1      -0.650  12.625  21.123  0.00  0.00    +0.000 A 
ATOM     12  O   UNL     1      -1.452  13.559  21.096  0.00  0.00    +0.000 OA
ATOM     13  N   UNL     1      -0.641  11.709  22.161  0.00  0.00    +0.000 N 
ATOM     14  C   UNL     1      -1.721  11.736  23.142  0.00  0.00    +0.000 C 
ENDBRANCH   1   2
BRANCH   1  25
ATOM     15  C   UNL     1       1.310   4.221  20.239  0.00  0.00    +0.000 C 
ATOM     16  C   UNL     1       2.725   4.800  20.246  0.00  0.00    +0.000 C 
ATOM     17  C   UNL     1       3.686   3.727  19.672  0.00  0.00    +0.000 C 
ATOM     18  C   UNL     1       4.126   4.353  18.378  0.00  0.00    +0.000 A 
ATOM     19  C   UNL     1       4.929   3.734  17.415  0.00  0.00    +0.000 A 
ATOM     20  C   UNL     1       5.279   4.455  16.288  0.00  0.00    +0.000 A 
ATOM     21  C   UNL     1       4.825   5.785  16.148  0.00  0.00    +0.000 A 
ATOM     22  C   UNL     1       4.018   6.389  17.129  0.00  0.00    +0.000 A 
ATOM     23  C   UNL     1       3.657   5.665  18.271  0.00  0.00    +0.000 A 
ATOM     24  N   UNL     1       2.857   6.025  19.413  0.00  0.00    +0.000 N 
ATOM     25  C   UNL     1       2.350   7.299  19.706  0.00  0.00    +0.000 C 
ATOM     26  O   UNL     1       2.544   8.258  18.944  0.00  0.00    +0.000 OA
ENDBRANCH   1  25
TORSDOF 2
ENDMDL
MODEL 6
REMARK VINA RESULT:      -7.8      2.554      8.044
REMARK  Name = 
REMARK  5 active torsions:
REMARK  status: ('A' for Active; 'I' for Inactive)
REMARK    1  A    between atoms: C_1  and  C_2
REMARK    2  A    between atoms: C_11  and  C_13
REMARK    3  A    between atoms: C_13  and  N_14
REMARK    4  A    between atoms: N_21  and  C_22
REMARK    5  A    between atoms: N_25  and  C_26
REMARK                            x       y       z     vdW  Elec       q    Type
REMARK                         _______ _______ _______ _____ _____    ______ ____
ROOT
ATOM      1  C   UNL     1       3.304   4.383  19.244  0.00  0.00    +0.000 C 
ENDROOT
BRANCH   1   2
ATOM      2  N   UNL     1       2.298   5.495  19.252  0.00  0.00    +0.000 N 
ATOM      3  C   UNL     1       1.268   5.258  20.144  0.00  0.00    +0.000 A 
ATOM      4  N   UNL     1       1.437   6.042  21.175  0.00  0.00    +0.000 NA
ATOM      5  C   UNL     1       1.818   7.166  20.540  0.00  0.00    +0.000 A 
ATOM      6  C   UNL     1       2.414   6.909  19.324  0.00  0.00    +0.000 A 
ATOM      7  C   UNL     1       2.501   7.991  18.338  0.00  0.00    +0.000 A 
ATOM      8  O   UNL     1       3.043   7.882  17.244  0.00  0.00    +0.000 OA
ATOM      9  N   UNL     1       1.820   9.191  18.748  0.00  0.00    +0.000 N 
ATOM     10  C   UNL     1       1.647  10.320  17.839  0.00  0.00    +0.000 C 
ATOM     11  C   UNL     1       1.024   9.308  19.907  0.00  0.00    +0.000 A 
ATOM     12  O   UNL     1       0.187  10.203  20.033  0.00  0.00    +0.000 OA
ATOM     13  N   UNL     1       1.195   8.336  20.878  0.00  0.00    +0.000 N 
ATOM     14  C   UNL     1       0.242   8.257  21.980  0.00  0.00    +0.000 C 
ENDBRANCH   1   2
BRANCH   1  25
ATOM     15  C   UNL     1       6.626   5.312  19.178  0.00  0.00    +0.000 C 
ATOM     16  C   UNL     1       5.809   5.834  17.997  0.00  0.00    +0.000 C 
ATOM     17  C   UNL     1       6.789   6.465  16.975  0.00  0.00    +0.000 C 
ATOM     18  C   UNL     1       6.682   5.523  15.807  0.00  0.00    +0.000 A 
ATOM     19  C   UNL     1       7.458   5.589  14.646  0.00  0.00    +0.000 A 
ATOM     20  C   UNL     1       7.216   4.669  13.641  0.00  0.00    +0.000 A 
ATOM     21  C   UNL     1       6.197   3.706  13.814  0.00  0.00    +0.000 A 
ATOM     22  C   UNL     1       5.428   3.660  14.990  0.00  0.00    +0.000 A 
ATOM     23  C   UNL     1       5.668   4.584  16.013  0.00  0.00    +0.000 A 
ATOM     24  N   UNL     1       5.046   4.765  17.298  0.00  0.00    +0.000 N 
ATOM     25  C   UNL     1       3.907   4.098  17.773  0.00  0.00    +0.000 C 
ATOM     26  O   UNL     1       3.336   3.236  17.089  0.00  0.00    +0.000 OA
ENDBRANCH   1  25
TORSDOF 2
ENDMDL
MODEL 7
REMARK VINA RESULT:      -7.7      2.375      7.913
REMARK  Name = 
REMARK  5 active torsions:
REMARK  status: ('A' for Active; 'I' for Inactive)
REMARK    1  A    between atoms: C_1  and  C_2
REMARK    2  A    between atoms: C_11  and  C_13
REMARK    3  A    between atoms: C_13  and  N_14
REMARK    4  A    between atoms: N_21  and  C_22
REMARK    5  A    between atoms: N_25  and  C_26
REMARK                            x       y       z     vdW  Elec       q    Type
REMARK                         _______ _______ _______ _____ _____    ______ ____
ROOT
ATOM      1  C   UNL     1       1.696   8.860  19.448  0.00  0.00    +0.000 C 
ENDROOT
BRANCH   1   2
ATOM      2  N   UNL     1       0.582   9.700  19.994  0.00  0.00    +0.000 N 
ATOM      3  C   UNL     1       0.918  10.292  21.198  0.00  0.00    +0.000 A 
ATOM      4  N   UNL     1       1.131  11.562  20.979  0.00  0.00    +0.000 NA
ATOM      5  C   UNL     1       0.124  11.811  20.121  0.00  0.00    +0.000 A 
ATOM      6  C   UNL     1      -0.262  10.689  19.420  0.00  0.00    +0.000 A 
ATOM      7  C   UNL     1      -1.579  10.678  18.777  0.00  0.00    +0.000 A 
ATOM      8  O   UNL     1      -2.006   9.749  18.099  0.00  0.00    +0.000 OA
ATOM      9  N   UNL     1      -2.368  11.844  19.075  0.00  0.00    +0.000 N 
ATOM     10  C   UNL     1      -3.768  11.944  18.669  0.00  0.00    +0.000 C 
ATOM     11  C   UNL     1      -2.003  12.849  19.996  0.00  0.00    +0.000 A 
ATOM     12  O   UNL     1      -2.834  13.616  20.485  0.00  0.00    +0.000 OA
ATOM     13  N   UNL     1      -0.669  12.900  20.361  0.00  0.00    +0.000 N 
ATOM     14  C   UNL     1      -0.271  13.744  21.482  0.00  0.00    +0.000 C 
ENDBRANCH   1   2
BRANCH   1  25
ATOM     15  C   UNL     1       3.969   6.912  17.732  0.00  0.00    +0.000 C 
ATOM     16  C   UNL     1       2.633   6.221  18.000  0.00  0.00    +0.000 C 
ATOM     17  C   UNL     1       2.774   4.730  17.600  0.00  0.00    +0.000 C 
ATOM     18  C   UNL     1       2.672   4.032  18.928  0.00  0.00    +0.000 A 
ATOM     19  C   UNL     1       2.846   2.660  19.133  0.00  0.00    +0.000 A 
ATOM     20  C   UNL     1       2.684   2.160  20.413  0.00  0.00    +0.000 A 
ATOM     21  C   UNL     1       2.344   3.042  21.463  0.00  0.00    +0.000 A 
ATOM     22  C   UNL     1       2.173   4.419  21.234  0.00  0.00    +0.000 A 
ATOM     23  C   UNL     1       2.338   4.933  19.943  0.00  0.00    +0.000 A 
ATOM     24  N   UNL     1       2.226   6.274  19.430  0.00  0.00    +0.000 N 
ATOM     25  C   UNL     1       1.770   7.398  20.133  0.00  0.00    +0.000 C 
ATOM     26  O   UNL     1       1.433   7.318  21.323  0.00  0.00    +0.000 OA
ENDBRANCH   1  25
TORSDOF 2
ENDMDL
MODEL 8
REMARK VINA RESULT:      -7.7      2.485      7.976
REMARK  Name = 
REMARK  5 active torsions:
REMARK  status: ('A' for Active; 'I' for Inactive)
REMARK    1  A    between atoms: C_1  and  C_2
REMARK    2  A    between atoms: C_11  and  C_13
REMARK    3  A    between atoms: C_13  and  N_14
REMARK    4  A    between atoms: N_21  and  C_22
REMARK    5  A    between atoms: N_25  and  C_26
REMARK                            x       y       z     vdW  Elec       q    Type
REMARK                         _______ _______ _______ _____ _____    ______ ____
ROOT
ATOM      1  C   UNL     1       1.363   9.160  19.829  0.00  0.00    +0.000 C 
ENDROOT
BRANCH   1   2
ATOM      2  N   UNL     1      -0.051   9.641  19.960  0.00  0.00    +0.000 N 
ATOM      3  C   UNL     1      -0.363   9.993  21.261  0.00  0.00    +0.000 A 
ATOM      4  N   UNL     1      -0.415  11.297  21.326  0.00  0.00    +0.000 NA
ATOM      5  C   UNL     1      -1.045  11.552  20.165  0.00  0.00    +0.000 A 
ATOM      6  C   UNL     1      -0.835  10.569  19.222  0.00  0.00    +0.000 A 
ATOM      7  C   UNL     1      -1.757  10.471  18.087  0.00  0.00    +0.000 A 
ATOM      8  O   UNL     1      -1.640   9.661  17.174  0.00  0.00    +0.000 OA
ATOM      9  N   UNL     1      -2.870  11.380  18.177  0.00  0.00    +0.000 N 
ATOM     10  C   UNL     1      -3.984  11.319  17.235  0.00  0.00    +0.000 C 
ATOM     11  C   UNL     1      -3.153  12.196  19.292  0.00  0.00    +0.000 A 
ATOM     12  O   UNL     1      -4.274  12.671  19.482  0.00  0.00    +0.000 OA
ATOM     13  N   UNL     1      -2.120  12.399  20.191  0.00  0.00    +0.000 N 
ATOM     14  C   UNL     1      -2.410  13.022  21.478  0.00  0.00    +0.000 C 
ENDBRANCH   1   2
BRANCH   1  25
ATOM     15  C   UNL     1       3.554   7.443  17.790  0.00  0.00    +0.000 C 
ATOM     16  C   UNL     1       2.283   6.667  18.133  0.00  0.00    +0.000 C 
ATOM     17  C   UNL     1       2.456   5.213  17.625  0.00  0.00    +0.000 C 
ATOM     18  C   UNL     1       2.512   4.432  18.908  0.00  0.00    +0.000 A 
ATOM     19  C   UNL     1       2.769   3.060  19.006  0.00  0.00    +0.000 A 
ATOM     20  C   UNL     1       2.752   2.476  20.260  0.00  0.00    +0.000 A 
ATOM     21  C   UNL     1       2.471   3.273  21.392  0.00  0.00    +0.000 A 
ATOM     22  C   UNL     1       2.214   4.651  21.270  0.00  0.00    +0.000 A 
ATOM     23  C   UNL     1       2.233   5.250  20.006  0.00  0.00    +0.000 A 
ATOM     24  N   UNL     1       2.010   6.612  19.594  0.00  0.00    +0.000 N 
ATOM     25  C   UNL     1       1.569   7.666  20.407  0.00  0.00    +0.000 C 
ATOM     26  O   UNL     1       1.350   7.496  21.616  0.00  0.00    +0.000 OA
ENDBRANCH   1  25
TORSDOF 2
ENDMDL
MODEL 9
REMARK VINA RESULT:      -7.6      2.669      8.493
REMARK  Name = 
REMARK  5 active torsions:
REMARK  status: ('A' for Active; 'I' for Inactive)
REMARK    1  A    between atoms: C_1  and  C_2
REMARK    2  A    between atoms: C_11  and  C_13
REMARK    3  A    between atoms: C_13  and  N_14
REMARK    4  A    between atoms: N_21  and  C_22
REMARK    5  A    between atoms: N_25  and  C_26
REMARK                            x       y       z     vdW  Elec       q    Type
REMARK                         _______ _______ _______ _____ _____    ______ ____
ROOT
ATOM      1  C   UNL     1       1.341   8.732  19.389  0.00  0.00    +0.000 C 
ENDROOT
BRANCH   1   2
ATOM      2  N   UNL     1       0.772  10.069  19.020  0.00  0.00    +0.000 N 
ATOM      3  C   UNL     1      -0.598  10.120  19.200  0.00  0.00    +0.000 A 
ATOM      4  N   UNL     1      -0.841  10.840  20.261  0.00  0.00    +0.000 NA
ATOM      5  C   UNL     1       0.064  11.819  20.078  0.00  0.00    +0.000 A 
ATOM      6  C   UNL     1       1.146  11.404  19.332  0.00  0.00    +0.000 A 
ATOM      7  C   UNL     1       1.993  12.417  18.694  0.00  0.00    +0.000 A 
ATOM      8  O   UNL     1       3.000  12.160  18.043  0.00  0.00    +0.000 OA
ATOM      9  N   UNL     1       1.490  13.757  18.845  0.00  0.00    +0.000 N 
ATOM     10  C   UNL     1       2.096  14.884  18.142  0.00  0.00    +0.000 C 
ATOM     11  C   UNL     1       0.245  14.089  19.419  0.00  0.00    +0.000 A 
ATOM     12  O   UNL     1      -0.300  15.174  19.209  0.00  0.00    +0.000 OA
ATOM     13  N   UNL     1      -0.360  13.115  20.195  0.00  0.00    +0.000 N 
ATOM     14  C   UNL     1      -1.746  13.298  20.612  0.00  0.00    +0.000 C 
ENDBRANCH   1   2
BRANCH   1  25
ATOM     15  C   UNL     1       1.735   5.329  19.795  0.00  0.00    +0.000 C 
ATOM     16  C   UNL     1       3.049   6.100  19.688  0.00  0.00    +0.000 C 
ATOM     17  C   UNL     1       4.203   5.071  19.574  0.00  0.00    +0.000 C 
ATOM     18  C   UNL     1       4.697   5.300  18.172  0.00  0.00    +0.000 A 
ATOM     19  C   UNL     1       5.677   4.538  17.528  0.00  0.00    +0.000 A 
ATOM     20  C   UNL     1       6.051   4.896  16.245  0.00  0.00    +0.000 A 
ATOM     21  C   UNL     1       5.441   6.013  15.632  0.00  0.00    +0.000 A 
ATOM     22  C   UNL     1       4.457   6.765  16.299  0.00  0.00    +0.000 A 
ATOM     23  C   UNL     1       4.071   6.408  17.595  0.00  0.00    +0.000 A 
ATOM     24  N   UNL     1       3.109   6.988  18.496  0.00  0.00    +0.000 N 
ATOM     25  C   UNL     1       2.406   8.186  18.305  0.00  0.00    +0.000 C 
ATOM     26  O   UNL     1       2.554   8.860  17.274  0.00  0.00    +0.000 OA
ENDBRANCH   1  25
TORSDOF 2
ENDMDL
