MODEL 1
REMARK VINA RESULT:      -5.0      0.000      0.000
REMARK  Name = 
REMARK  2 active torsions:
REMARK  status: ('A' for Active; 'I' for Inactive)
REMARK    1  A    between atoms: C_2  and  C_3
REMARK    2  A    between atoms: C_2  and  C_7
REMARK                            x       y       z     vdW  Elec       q    Type
REMARK                         _______ _______ _______ _____ _____    ______ ____
ROOT
ATOM      1  F   UNL     1       3.092   2.126  20.000  0.00  0.00    +0.000 F 
ATOM      2  C   UNL     1       2.318   3.194  19.636  0.00  0.00    +0.000 C 
ENDROOT
BRANCH   2   3
ATOM      3  C   UNL     1       1.528   2.883  18.391  0.00  0.00    +0.000 C 
ATOM      4  F   UNL     1       1.148   4.012  17.749  0.00  0.00    +0.000 F 
ATOM      5  F   UNL     1       2.143   2.115  17.480  0.00  0.00    +0.000 F 
ATOM      6  F   UNL     1       0.380   2.238  18.733  0.00  0.00    +0.000 F 
ENDBRANCH   2   3
BRANCH   2   7
ATOM      7  C   UNL     1       1.488   3.661  20.794  0.00  0.00    +0.000 C 
ATOM      8  F   UNL     1       0.929   2.628  21.467  0.00  0.00    +0.000 F 
ATOM      9  F   UNL     1       2.278   4.301  21.702  0.00  0.00    +0.000 F 
ATOM     10  F   UNL     1       0.487   4.520  20.501  0.00  0.00    +0.000 F 
ENDBRANCH   2   7
TORSDOF 2
ENDMDL
MODEL 2
REMARK VINA RESULT:      -5.0      0.558      3.175
REMARK  Name = 
REMARK  2 active torsions:
REMARK  status: ('A' for Active; 'I' for Inactive)
REMARK    1  A    between atoms: C_2  and  C_3
REMARK    2  A    between atoms: C_2  and  C_7
REMARK                            x       y       z     vdW  Elec       q    Type
REMARK                         _______ _______ _______ _____ _____    ______ ____
ROOT
ATOM      1  F   UNL     1       3.449   3.651  19.572  0.00  0.00    +0.000 F 
ATOM      2  C   UNL     1       2.322   2.908  19.798  0.00  0.00    +0.000 C 
ENDROOT
BRANCH   2   3
ATOM      3  C   UNL     1       1.527   3.479  20.944  0.00  0.00    +0.000 C 
ATOM      4  F   UNL     1       0.663   4.431  20.522  0.00  0.00    +0.000 F 
ATOM      5  F   UNL     1       0.807   2.600  21.657  0.00  0.00    +0.000 F 
ATOM      6  F   UNL     1       2.369   4.093  21.819  0.00  0.00    +0.000 F 
ENDBRANCH   2   3
BRANCH   2   7
ATOM      7  C   UNL     1       1.542   2.737  18.530  0.00  0.00    +0.000 C 
ATOM      8  F   UNL     1       0.315   2.211  18.755  0.00  0.00    +0.000 F 
ATOM      9  F   UNL     1       1.317   3.953  17.956  0.00  0.00    +0.000 F 
ATOM     10  F   UNL     1       2.120   1.976  17.574  0.00  0.00    +0.000 F 
ENDBRANCH   2   7
TORSDOF 2
ENDMDL
MODEL 3
REMARK VINA RESULT:      -5.0      0.928      2.097
REMARK  Name = 
REMARK  2 active torsions:
REMARK  status: ('A' for Active; 'I' for Inactive)
REMARK    1  A    between atoms: C_2  and  C_3
REMARK    2  A    between atoms: C_2  and  C_7
REMARK                            x       y       z     vdW  Elec       q    Type
REMARK                         _______ _______ _______ _____ _____    ______ ____
ROOT
ATOM      1  F   UNL     1       0.308   2.270  18.663  0.00  0.00    +0.000 F 
ATOM      2  C   UNL     1       1.502   2.842  19.008  0.00  0.00    +0.000 C 
ENDROOT
BRANCH   2   3
ATOM      3  C   UNL     1       1.990   3.761  17.919  0.00  0.00    +0.000 C 
ATOM      4  F   UNL     1       0.976   4.481  17.386  0.00  0.00    +0.000 F 
ATOM      5  F   UNL     1       2.938   4.642  18.272  0.00  0.00    +0.000 F 
ATOM      6  F   UNL     1       2.507   3.022  16.900  0.00  0.00    +0.000 F 
ENDBRANCH   2   3
BRANCH   2   7
ATOM      7  C   UNL     1       1.407   3.482  20.360  0.00  0.00    +0.000 C 
ATOM      8  F   UNL     1       0.607   4.575  20.350  0.00  0.00    +0.000 F 
ATOM      9  F   UNL     1       0.829   2.618  21.243  0.00  0.00    +0.000 F 
ATOM     10  F   UNL     1       2.575   3.863  20.923  0.00  0.00    +0.000 F 
ENDBRANCH   2   7
TORSDOF 2
ENDMDL
MODEL 4
REMARK VINA RESULT:      -4.9      0.929      1.732
REMARK  Name = 
REMARK  2 active torsions:
REMARK  status: ('A' for Active; 'I' for Inactive)
REMARK    1  A    between atoms: C_2  and  C_3
REMARK    2  A    between atoms: C_2  and  C_7
REMARK                            x       y       z     vdW  Elec       q    Type
REMARK                         _______ _______ _______ _____ _____    ______ ____
ROOT
ATOM      1  F   UNL     1       0.321   2.218  18.640  0.00  0.00    +0.000 F 
ATOM      2  C   UNL     1       1.501   2.817  18.989  0.00  0.00    +0.000 C 
ENDROOT
BRANCH   2   3
ATOM      3  C   UNL     1       1.972   3.748  17.902  0.00  0.00    +0.000 C 
ATOM      4  F   UNL     1       0.947   4.463  17.383  0.00  0.00    +0.000 F 
ATOM      5  F   UNL     1       2.916   4.633  18.253  0.00  0.00    +0.000 F 
ATOM      6  F   UNL     1       2.484   3.020  16.873  0.00  0.00    +0.000 F 
ENDBRANCH   2   3
BRANCH   2   7
ATOM      7  C   UNL     1       1.387   3.454  20.341  0.00  0.00    +0.000 C 
ATOM      8  F   UNL     1       0.793   2.634  21.241  0.00  0.00    +0.000 F 
ATOM      9  F   UNL     1       2.631   3.704  20.843  0.00  0.00    +0.000 F 
ATOM     10  F   UNL     1       0.723   4.629  20.392  0.00  0.00    +0.000 F 
ENDBRANCH   2   7
TORSDOF 2
ENDMDL
MODEL 5
REMARK VINA RESULT:      -4.9      1.316      3.410
REMARK  Name = 
REMARK  2 active torsions:
REMARK  status: ('A' for Active; 'I' for Inactive)
REMARK    1  A    between atoms: C_2  and  C_3
REMARK    2  A    between atoms: C_2  and  C_7
REMARK                            x       y       z     vdW  Elec       q    Type
REMARK                         _______ _______ _______ _____ _____    ______ ____
ROOT
ATOM      1  F   UNL     1       1.211   4.543  17.470  0.00  0.00    +0.000 F 
ATOM      2  C   UNL     1       1.962   3.857  18.387  0.00  0.00    +0.000 C 
ENDROOT
BRANCH   2   3
ATOM      3  C   UNL     1       1.079   3.066  19.317  0.00  0.00    +0.000 C 
ATOM      4  F   UNL     1       0.395   3.875  20.159  0.00  0.00    +0.000 F 
ATOM      5  F   UNL     1       0.172   2.269  18.733  0.00  0.00    +0.000 F 
ATOM      6  F   UNL     1       1.850   2.267  20.103  0.00  0.00    +0.000 F 
ENDBRANCH   2   3
BRANCH   2   7
ATOM      7  C   UNL     1       3.018   3.045  17.699  0.00  0.00    +0.000 C 
ATOM      8  F   UNL     1       3.453   3.637  16.561  0.00  0.00    +0.000 F 
ATOM      9  F   UNL     1       4.118   2.943  18.499  0.00  0.00    +0.000 F 
ATOM     10  F   UNL     1       2.677   1.780  17.371  0.00  0.00    +0.000 F 
ENDBRANCH   2   7
TORSDOF 2
ENDMDL
MODEL 6
REMARK VINA RESULT:      -4.9      0.697      3.264
REMARK  Name = 
REMARK  2 active torsions:
REMARK  status: ('A' for Active; 'I' for Inactive)
REMARK    1  A    between atoms: C_2  and  C_3
REMARK    2  A    between atoms: C_2  and  C_7
REMARK                            x       y       z     vdW  Elec       q    Type
REMARK                         _______ _______ _______ _____ _____    ______ ____
ROOT
ATOM      1  F   UNL     1       3.253   4.183  19.276  0.00  0.00    +0.000 F 
ATOM      2  C   UNL     1       2.338   3.225  19.618  0.00  0.00    +0.000 C 
ENDROOT
BRANCH   2   3
ATOM      3  C   UNL     1       1.555   3.643  20.836  0.00  0.00    +0.000 C 
ATOM      4  F   UNL     1       0.924   2.590  21.405  0.00  0.00    +0.000 F 
ATOM      5  F   UNL     1       2.257   4.240  21.811  0.00  0.00    +0.000 F 
ATOM      6  F   UNL     1       0.579   4.516  20.469  0.00  0.00    +0.000 F 
ENDBRANCH   2   3
BRANCH   2   7
ATOM      7  C   UNL     1       1.492   2.859  18.436  0.00  0.00    +0.000 C 
ATOM      8  F   UNL     1       0.326   2.278  18.805  0.00  0.00    +0.000 F 
ATOM      9  F   UNL     1       1.137   3.986  17.754  0.00  0.00    +0.000 F 
ATOM     10  F   UNL     1       2.062   2.038  17.526  0.00  0.00    +0.000 F 
ENDBRANCH   2   7
TORSDOF 2
ENDMDL
MODEL 7
REMARK VINA RESULT:      -4.9      0.293      1.713
REMARK  Name = 
REMARK  2 active torsions:
REMARK  status: ('A' for Active; 'I' for Inactive)
REMARK    1  A    between atoms: C_2  and  C_3
REMARK    2  A    between atoms: C_2  and  C_7
REMARK                            x       y       z     vdW  Elec       q    Type
REMARK                         _______ _______ _______ _____ _____    ______ ____
ROOT
ATOM      1  F   UNL     1       3.407   2.600  19.656  0.00  0.00    +0.000 F 
ATOM      2  C   UNL     1       2.352   3.461  19.516  0.00  0.00    +0.000 C 
ENDROOT
BRANCH   2   3
ATOM      3  C   UNL     1       1.505   3.081  18.328  0.00  0.00    +0.000 C 
ATOM      4  F   UNL     1       0.424   2.358  18.701  0.00  0.00    +0.000 F 
ATOM      5  F   UNL     1       1.046   4.097  17.583  0.00  0.00    +0.000 F 
ATOM      6  F   UNL     1       2.226   2.283  17.495  0.00  0.00    +0.000 F 
ENDBRANCH   2   3
BRANCH   2   7
ATOM      7  C   UNL     1       1.594   3.577  20.803  0.00  0.00    +0.000 C 
ATOM      8  F   UNL     1       2.313   4.208  21.762  0.00  0.00    +0.000 F 
ATOM      9  F   UNL     1       0.481   4.345  20.619  0.00  0.00    +0.000 F 
ATOM     10  F   UNL     1       1.160   2.418  21.345  0.00  0.00    +0.000 F 
ENDBRANCH   2   7
TORSDOF 2
ENDMDL
MODEL 8
REMARK VINA RESULT:      -4.8      1.271      3.178
REMARK  Name = 
REMARK  2 active torsions:
REMARK  status: ('A' for Active; 'I' for Inactive)
REMARK    1  A    between atoms: C_2  and  C_3
REMARK    2  A    between atoms: C_2  and  C_7
REMARK                            x       y       z     vdW  Elec       q    Type
REMARK                         _______ _______ _______ _____ _____    ______ ____
ROOT
ATOM      1  F   UNL     1       2.848   4.732  19.851  0.00  0.00    +0.000 F 
ATOM      2  C   UNL     1       2.372   3.666  19.137  0.00  0.00    +0.000 C 
ENDROOT
BRANCH   2   3
ATOM      3  C   UNL     1       1.102   3.134  19.750  0.00  0.00    +0.000 C 
ATOM      4  F   UNL     1       0.346   4.130  20.266  0.00  0.00    +0.000 F 
ATOM      5  F   UNL     1       0.303   2.432  18.934  0.00  0.00    +0.000 F 
ATOM      6  F   UNL     1       1.411   2.315  20.792  0.00  0.00    +0.000 F 
ENDBRANCH   2   3
BRANCH   2   7
ATOM      7  C   UNL     1       2.257   4.016  17.684  0.00  0.00    +0.000 C 
ATOM      8  F   UNL     1       3.249   4.844  17.281  0.00  0.00    +0.000 F 
ATOM      9  F   UNL     1       2.391   2.892  16.924  0.00  0.00    +0.000 F 
ATOM     10  F   UNL     1       1.095   4.589  17.300  0.00  0.00    +0.000 F 
ENDBRANCH   2   7
TORSDOF 2
ENDMDL
MODEL 9
REMARK VINA RESULT:      -4.8      1.340      2.334
REMARK  Name = 
REMARK  2 active torsions:
REMARK  status: ('A' for Active; 'I' for Inactive)
REMARK    1  A    between atoms: C_2  and  C_3
REMARK    2  A    between atoms: C_2  and  C_7
REMARK                            x       y       z     vdW  Elec       q    Type
REMARK                         _______ _______ _______ _____ _____    ______ ____
ROOT
ATOM      1  F   UNL     1       2.671   2.163  18.062  0.00  0.00    +0.000 F 
ATOM      2  C   UNL     1       2.315   3.253  18.809  0.00  0.00    +0.000 C 
ENDROOT
BRANCH   2   3
ATOM      3  C   UNL     1       2.218   4.485  17.946  0.00  0.00    +0.000 C 
ATOM      4  F   UNL     1       1.057   4.515  17.253  0.00  0.00    +0.000 F 
ATOM      5  F   UNL     1       2.312   5.661  18.584  0.00  0.00    +0.000 F 
ATOM      6  F   UNL     1       3.213   4.466  17.017  0.00  0.00    +0.000 F 
ENDBRANCH   2   3
BRANCH   2   7
ATOM      7  C   UNL     1       1.081   2.962  19.610  0.00  0.00    +0.000 C 
ATOM      8  F   UNL     1       0.153   2.292  18.887  0.00  0.00    +0.000 F 
ATOM      9  F   UNL     1       1.390   2.143  20.655  0.00  0.00    +0.000 F 
ATOM     10  F   UNL     1       0.455   4.032  20.148  0.00  0.00    +0.000 F 
ENDBRANCH   2   7
TORSDOF 2
ENDMDL
