MODEL 1
REMARK VINA RESULT:      -8.5      0.000      0.000
REMARK  Name = 
REMARK  3 active torsions:
REMARK  status: ('A' for Active; 'I' for Inactive)
REMARK    1  A    between atoms: C_2  and  C_13
REMARK    2  A    between atoms: N_3  and  C_4
REMARK    3  A    between atoms: N_17  and  C_18
REMARK                            x       y       z     vdW  Elec       q    Type
REMARK                         _______ _______ _______ _____ _____    ______ ____
ROOT
ATOM      1  C   UNL     1       7.736   6.761  17.739  0.00  0.00    +0.000 C 
ATOM      2  C   UNL     1       7.501   6.295  16.309  0.00  0.00    +0.000 C 
ATOM      3  C   UNL     1       6.263   5.444  16.347  0.00  0.00    +0.000 C 
ATOM      4  O   UNL     1       5.837   4.890  15.343  0.00  0.00    +0.000 OA
ATOM      5  N   UNL     1       5.790   5.386  17.652  0.00  0.00    +0.000 N 
ATOM      6  C   UNL     1       6.612   6.153  18.563  0.00  0.00    +0.000 C 
ENDROOT
BRANCH   5   7
ATOM      7  C   UNL     1       4.655   4.649  18.104  0.00  0.00    +0.000 A 
ATOM      8  C   UNL     1       4.027   3.695  17.290  0.00  0.00    +0.000 A 
ATOM      9  C   UNL     1       2.947   2.937  17.756  0.00  0.00    +0.000 A 
ATOM     10  C   UNL     1       2.469   3.127  19.046  0.00  0.00    +0.000 A 
ATOM     11  C   UNL     1       3.070   4.077  19.870  0.00  0.00    +0.000 A 
ATOM     12  C   UNL     1       4.137   4.847  19.395  0.00  0.00    +0.000 A 
ATOM     13  O   UNL     1       2.670   4.312  21.161  0.00  0.00    +0.000 OA
ATOM     14  C   UNL     1       1.840   3.254  21.654  0.00  0.00    +0.000 C 
ATOM     15  C   UNL     1       0.798   2.851  20.623  0.00  0.00    +0.000 C 
ATOM     16  O   UNL     1       1.419   2.340  19.439  0.00  0.00    +0.000 OA
ENDBRANCH   5   7
BRANCH   1  18
ATOM     17  O   UNL     1       7.006   9.014  17.302  0.00  0.00    +0.000 OA
ATOM     18  C   UNL     1       7.813   8.279  17.859  0.00  0.00    +0.000 C 
ATOM     19  N   UNL     1       8.835   8.689  18.703  0.00  0.00    +0.000 N 
ATOM     20  H   UNL     1       9.427   7.967  19.096  0.00  0.00    +0.000 HD
BRANCH  19  21
ATOM     21  C   UNL     1       9.173  10.010  19.071  0.00  0.00    +0.000 A 
ATOM     22  C   UNL     1       9.156  10.489  20.397  0.00  0.00    +0.000 A 
ATOM     23  C   UNL     1       9.472  11.823  20.687  0.00  0.00    +0.000 A 
ATOM     24  C   UNL     1       9.787  12.653  19.636  0.00  0.00    +0.000 A 
ATOM     25  C   UNL     1       9.820  12.191  18.343  0.00  0.00    +0.000 A 
ATOM     26  C   UNL     1       9.531  10.879  18.031  0.00  0.00    +0.000 A 
ATOM     27  O   UNL     1      10.145  13.166  17.452  0.00  0.00    +0.000 OA
ATOM     28  C   UNL     1      10.215  14.314  18.324  0.00  0.00    +0.000 C 
ATOM     29  O   UNL     1      10.083  13.976  19.721  0.00  0.00    +0.000 OA
ENDBRANCH  19  21
ENDBRANCH   1  18
TORSDOF 3
ENDMDL
MODEL 2
REMARK VINA RESULT:      -8.5      0.784      1.414
REMARK  Name = 
REMARK  3 active torsions:
REMARK  status: ('A' for Active; 'I' for Inactive)
REMARK    1  A    between atoms: C_2  and  C_13
REMARK    2  A    between atoms: N_3  and  C_4
REMARK    3  A    between atoms: N_17  and  C_18
REMARK                            x       y       z     vdW  Elec       q    Type
REMARK                         _______ _______ _______ _____ _____    ______ ____
ROOT
ATOM      1  C   UNL     1       7.686   6.403  18.098  0.00  0.00    +0.000 C 
ATOM      2  C   UNL     1       7.785   5.606  16.805  0.00  0.00    +0.000 C 
ATOM      3  C   UNL     1       6.527   4.788  16.724  0.00  0.00    +0.000 C 
ATOM      4  O   UNL     1       6.331   4.008  15.801  0.00  0.00    +0.000 OA
ATOM      5  N   UNL     1       5.744   5.045  17.842  0.00  0.00    +0.000 N 
ATOM      6  C   UNL     1       6.359   6.009  18.727  0.00  0.00    +0.000 C 
ENDROOT
BRANCH   5   7
ATOM      7  C   UNL     1       4.489   4.436  18.148  0.00  0.00    +0.000 A 
ATOM      8  C   UNL     1       3.694   3.852  17.153  0.00  0.00    +0.000 A 
ATOM      9  C   UNL     1       2.490   3.211  17.465  0.00  0.00    +0.000 A 
ATOM     10  C   UNL     1       2.056   3.149  18.782  0.00  0.00    +0.000 A 
ATOM     11  C   UNL     1       2.826   3.731  19.788  0.00  0.00    +0.000 A 
ATOM     12  C   UNL     1       4.019   4.388  19.471  0.00  0.00    +0.000 A 
ATOM     13  O   UNL     1       2.478   3.696  21.115  0.00  0.00    +0.000 OA
ATOM     14  C   UNL     1       1.463   2.717  21.366  0.00  0.00    +0.000 C 
ATOM     15  C   UNL     1       0.364   2.788  20.318  0.00  0.00    +0.000 C 
ATOM     16  O   UNL     1       0.877   2.492  19.016  0.00  0.00    +0.000 OA
ENDBRANCH   5   7
BRANCH   1  18
ATOM     17  O   UNL     1       7.178   8.494  17.017  0.00  0.00    +0.000 OA
ATOM     18  C   UNL     1       7.822   7.906  17.878  0.00  0.00    +0.000 C 
ATOM     19  N   UNL     1       8.684   8.496  18.790  0.00  0.00    +0.000 N 
ATOM     20  H   UNL     1       9.150   7.882  19.449  0.00  0.00    +0.000 HD
BRANCH  19  21
ATOM     21  C   UNL     1       9.018   9.863  18.903  0.00  0.00    +0.000 A 
ATOM     22  C   UNL     1       9.148  10.737  17.805  0.00  0.00    +0.000 A 
ATOM     23  C   UNL     1       9.516  12.077  17.988  0.00  0.00    +0.000 A 
ATOM     24  C   UNL     1       9.757  12.509  19.271  0.00  0.00    +0.000 A 
ATOM     25  C   UNL     1       9.620  11.668  20.348  0.00  0.00    +0.000 A 
ATOM     26  C   UNL     1       9.242  10.350  20.199  0.00  0.00    +0.000 A 
ATOM     27  O   UNL     1       9.910  12.282  21.526  0.00  0.00    +0.000 OA
ATOM     28  C   UNL     1      10.342  13.576  21.055  0.00  0.00    +0.000 C 
ATOM     29  O   UNL     1      10.156  13.756  19.635  0.00  0.00    +0.000 OA
ENDBRANCH  19  21
ENDBRANCH   1  18
TORSDOF 3
ENDMDL
MODEL 3
REMARK VINA RESULT:      -8.4      6.926      9.840
REMARK  Name = 
REMARK  3 active torsions:
REMARK  status: ('A' for Active; 'I' for Inactive)
REMARK    1  A    between atoms: C_2  and  C_13
REMARK    2  A    between atoms: N_3  and  C_4
REMARK    3  A    between atoms: N_17  and  C_18
REMARK                            x       y       z     vdW  Elec       q    Type
REMARK                         _______ _______ _______ _____ _____    ______ ____
ROOT
ATOM      1  C   UNL     1       2.021   9.174  18.641  0.00  0.00    +0.000 C 
ATOM      2  C   UNL     1       1.506   9.099  20.071  0.00  0.00    +0.000 C 
ATOM      3  C   UNL     1       0.067   9.529  20.017  0.00  0.00    +0.000 C 
ATOM      4  O   UNL     1      -0.615   9.607  21.031  0.00  0.00    +0.000 OA
ATOM      5  N   UNL     1      -0.267   9.841  18.705  0.00  0.00    +0.000 N 
ATOM      6  C   UNL     1       0.847   9.655  17.802  0.00  0.00    +0.000 C 
ENDROOT
BRANCH   5   7
ATOM      7  C   UNL     1      -1.531  10.322  18.250  0.00  0.00    +0.000 A 
ATOM      8  C   UNL     1      -2.103   9.866  17.054  0.00  0.00    +0.000 A 
ATOM      9  C   UNL     1      -3.367  10.302  16.638  0.00  0.00    +0.000 A 
ATOM     10  C   UNL     1      -4.078  11.210  17.410  0.00  0.00    +0.000 A 
ATOM     11  C   UNL     1      -3.525  11.685  18.599  0.00  0.00    +0.000 A 
ATOM     12  C   UNL     1      -2.254  11.263  19.002  0.00  0.00    +0.000 A 
ATOM     13  O   UNL     1      -4.171  12.568  19.427  0.00  0.00    +0.000 OA
ATOM     14  C   UNL     1      -5.567  12.651  19.120  0.00  0.00    +0.000 C 
ATOM     15  C   UNL     1      -5.791  12.751  17.619  0.00  0.00    +0.000 C 
ATOM     16  O   UNL     1      -5.314  11.580  16.950  0.00  0.00    +0.000 OA
ENDBRANCH   5   7
BRANCH   1  18
ATOM     17  O   UNL     1       3.466   7.808  17.283  0.00  0.00    +0.000 OA
ATOM     18  C   UNL     1       2.605   7.853  18.153  0.00  0.00    +0.000 C 
ATOM     19  N   UNL     1       2.098   6.765  18.849  0.00  0.00    +0.000 N 
ATOM     20  H   UNL     1       1.387   6.953  19.546  0.00  0.00    +0.000 HD
BRANCH  19  21
ATOM     21  C   UNL     1       2.437   5.403  18.688  0.00  0.00    +0.000 A 
ATOM     22  C   UNL     1       1.759   4.518  17.827  0.00  0.00    +0.000 A 
ATOM     23  C   UNL     1       2.128   3.168  17.742  0.00  0.00    +0.000 A 
ATOM     24  C   UNL     1       3.164   2.733  18.535  0.00  0.00    +0.000 A 
ATOM     25  C   UNL     1       3.840   3.592  19.367  0.00  0.00    +0.000 A 
ATOM     26  C   UNL     1       3.509   4.929  19.457  0.00  0.00    +0.000 A 
ATOM     27  O   UNL     1       4.822   2.969  20.070  0.00  0.00    +0.000 OA
ATOM     28  C   UNL     1       4.621   1.601  19.657  0.00  0.00    +0.000 C 
ATOM     29  O   UNL     1       3.635   1.461  18.613  0.00  0.00    +0.000 OA
ENDBRANCH  19  21
ENDBRANCH   1  18
TORSDOF 3
ENDMDL
MODEL 4
REMARK VINA RESULT:      -8.3      7.575     10.148
REMARK  Name = 
REMARK  3 active torsions:
REMARK  status: ('A' for Active; 'I' for Inactive)
REMARK    1  A    between atoms: C_2  and  C_13
REMARK    2  A    between atoms: N_3  and  C_4
REMARK    3  A    between atoms: N_17  and  C_18
REMARK                            x       y       z     vdW  Elec       q    Type
REMARK                         _______ _______ _______ _____ _____    ______ ____
ROOT
ATOM      1  C   UNL     1       1.320   9.792  18.124  0.00  0.00    +0.000 C 
ATOM      2  C   UNL     1       1.483  11.053  18.961  0.00  0.00    +0.000 C 
ATOM      3  C   UNL     1       0.129  11.704  18.999  0.00  0.00    +0.000 C 
ATOM      4  O   UNL     1      -0.051  12.769  19.575  0.00  0.00    +0.000 OA
ATOM      5  N   UNL     1      -0.767  10.937  18.266  0.00  0.00    +0.000 N 
ATOM      6  C   UNL     1      -0.141   9.761  17.701  0.00  0.00    +0.000 C 
ENDROOT
BRANCH   5   7
ATOM      7  C   UNL     1      -2.142  11.239  18.035  0.00  0.00    +0.000 A 
ATOM      8  C   UNL     1      -2.731  11.068  16.774  0.00  0.00    +0.000 A 
ATOM      9  C   UNL     1      -4.092  11.316  16.566  0.00  0.00    +0.000 A 
ATOM     10  C   UNL     1      -4.889  11.749  17.616  0.00  0.00    +0.000 A 
ATOM     11  C   UNL     1      -4.324  11.936  18.877  0.00  0.00    +0.000 A 
ATOM     12  C   UNL     1      -2.959  11.706  19.078  0.00  0.00    +0.000 A 
ATOM     13  O   UNL     1      -5.046  12.344  19.971  0.00  0.00    +0.000 OA
ATOM     14  C   UNL     1      -6.455  12.203  19.752  0.00  0.00    +0.000 C 
ATOM     15  C   UNL     1      -6.848  12.718  18.376  0.00  0.00    +0.000 C 
ATOM     16  O   UNL     1      -6.215  11.957  17.343  0.00  0.00    +0.000 OA
ENDBRANCH   5   7
BRANCH   1  18
ATOM     17  O   UNL     1       1.561   8.387  20.065  0.00  0.00    +0.000 OA
ATOM     18  C   UNL     1       1.756   8.532  18.864  0.00  0.00    +0.000 C 
ATOM     19  N   UNL     1       2.316   7.590  18.013  0.00  0.00    +0.000 N 
ATOM     20  H   UNL     1       2.415   7.848  17.038  0.00  0.00    +0.000 HD
BRANCH  19  21
ATOM     21  C   UNL     1       2.794   6.303  18.346  0.00  0.00    +0.000 A 
ATOM     22  C   UNL     1       3.952   6.066  19.113  0.00  0.00    +0.000 A 
ATOM     23  C   UNL     1       4.390   4.760  19.376  0.00  0.00    +0.000 A 
ATOM     24  C   UNL     1       3.660   3.719  18.854  0.00  0.00    +0.000 A 
ATOM     25  C   UNL     1       2.522   3.941  18.117  0.00  0.00    +0.000 A 
ATOM     26  C   UNL     1       2.059   5.214  17.856  0.00  0.00    +0.000 A 
ATOM     27  O   UNL     1       1.950   2.785  17.684  0.00  0.00    +0.000 OA
ATOM     28  C   UNL     1       2.915   1.818  18.151  0.00  0.00    +0.000 C 
ATOM     29  O   UNL     1       3.949   2.397  18.974  0.00  0.00    +0.000 OA
ENDBRANCH  19  21
ENDBRANCH   1  18
TORSDOF 3
ENDMDL
MODEL 5
REMARK VINA RESULT:      -8.3      4.978      7.468
REMARK  Name = 
REMARK  3 active torsions:
REMARK  status: ('A' for Active; 'I' for Inactive)
REMARK    1  A    between atoms: C_2  and  C_13
REMARK    2  A    between atoms: N_3  and  C_4
REMARK    3  A    between atoms: N_17  and  C_18
REMARK                            x       y       z     vdW  Elec       q    Type
REMARK                         _______ _______ _______ _____ _____    ______ ____
ROOT
ATOM      1  C   UNL     1       2.154   4.325  19.069  0.00  0.00    +0.000 C 
ATOM      2  C   UNL     1       3.197   3.516  19.828  0.00  0.00    +0.000 C 
ATOM      3  C   UNL     1       4.459   3.600  19.017  0.00  0.00    +0.000 C 
ATOM      4  O   UNL     1       5.477   3.012  19.357  0.00  0.00    +0.000 OA
ATOM      5  N   UNL     1       4.222   4.368  17.883  0.00  0.00    +0.000 N 
ATOM      6  C   UNL     1       2.859   4.851  17.829  0.00  0.00    +0.000 C 
ENDROOT
BRANCH   5   7
ATOM      7  C   UNL     1       5.161   4.651  16.847  0.00  0.00    +0.000 A 
ATOM      8  C   UNL     1       6.315   5.410  17.089  0.00  0.00    +0.000 A 
ATOM      9  C   UNL     1       7.260   5.641  16.083  0.00  0.00    +0.000 A 
ATOM     10  C   UNL     1       7.062   5.122  14.811  0.00  0.00    +0.000 A 
ATOM     11  C   UNL     1       5.917   4.372  14.544  0.00  0.00    +0.000 A 
ATOM     12  C   UNL     1       4.965   4.160  15.546  0.00  0.00    +0.000 A 
ATOM     13  O   UNL     1       5.657   3.809  13.320  0.00  0.00    +0.000 OA
ATOM     14  C   UNL     1       6.829   3.778  12.497  0.00  0.00    +0.000 C 
ATOM     15  C   UNL     1       7.572   5.104  12.554  0.00  0.00    +0.000 C 
ATOM     16  O   UNL     1       8.035   5.375  13.881  0.00  0.00    +0.000 OA
ENDBRANCH   5   7
BRANCH   1  18
ATOM     17  O   UNL     1       0.768   5.179  20.843  0.00  0.00    +0.000 OA
ATOM     18  C   UNL     1       1.531   5.428  19.918  0.00  0.00    +0.000 C 
ATOM     19  N   UNL     1       1.982   6.689  19.555  0.00  0.00    +0.000 N 
ATOM     20  H   UNL     1       2.615   6.744  18.766  0.00  0.00    +0.000 HD
BRANCH  19  21
ATOM     21  C   UNL     1       1.645   7.928  20.143  0.00  0.00    +0.000 A 
ATOM     22  C   UNL     1       1.535   8.139  21.532  0.00  0.00    +0.000 A 
ATOM     23  C   UNL     1       1.163   9.389  22.046  0.00  0.00    +0.000 A 
ATOM     24  C   UNL     1       0.898  10.400  21.152  0.00  0.00    +0.000 A 
ATOM     25  C   UNL     1       1.016  10.207  19.797  0.00  0.00    +0.000 A 
ATOM     26  C   UNL     1       1.397   8.993  19.264  0.00  0.00    +0.000 A 
ATOM     27  O   UNL     1       0.704  11.322  19.085  0.00  0.00    +0.000 OA
ATOM     28  C   UNL     1       0.280  12.207  20.145  0.00  0.00    +0.000 C 
ATOM     29  O   UNL     1       0.492  11.658  21.463  0.00  0.00    +0.000 OA
ENDBRANCH  19  21
ENDBRANCH   1  18
TORSDOF 3
ENDMDL
MODEL 6
REMARK VINA RESULT:      -8.3      2.955     10.709
REMARK  Name = 
REMARK  3 active torsions:
REMARK  status: ('A' for Active; 'I' for Inactive)
REMARK    1  A    between atoms: C_2  and  C_13
REMARK    2  A    between atoms: N_3  and  C_4
REMARK    3  A    between atoms: N_17  and  C_18
REMARK                            x       y       z     vdW  Elec       q    Type
REMARK                         _______ _______ _______ _____ _____    ______ ____
ROOT
ATOM      1  C   UNL     1       9.663  10.111  19.156  0.00  0.00    +0.000 C 
ATOM      2  C   UNL     1       9.280  10.685  20.513  0.00  0.00    +0.000 C 
ATOM      3  C   UNL     1       9.492  12.170  20.410  0.00  0.00    +0.000 C 
ATOM      4  O   UNL     1       9.301  12.910  21.366  0.00  0.00    +0.000 OA
ATOM      5  N   UNL     1       9.958  12.476  19.138  0.00  0.00    +0.000 N 
ATOM      6  C   UNL     1      10.091  11.298  18.309  0.00  0.00    +0.000 C 
ENDROOT
BRANCH   5   7
ATOM      7  C   UNL     1      10.311  13.775  18.661  0.00  0.00    +0.000 A 
ATOM      8  C   UNL     1      11.400  13.969  17.800  0.00  0.00    +0.000 A 
ATOM      9  C   UNL     1      11.711  15.237  17.293  0.00  0.00    +0.000 A 
ATOM     10  C   UNL     1      10.939  16.335  17.646  0.00  0.00    +0.000 A 
ATOM     11  C   UNL     1       9.857  16.167  18.510  0.00  0.00    +0.000 A 
ATOM     12  C   UNL     1       9.561  14.904  19.030  0.00  0.00    +0.000 A 
ATOM     13  O   UNL     1       9.035  17.198  18.893  0.00  0.00    +0.000 OA
ATOM     14  C   UNL     1       9.197  18.341  18.045  0.00  0.00    +0.000 C 
ATOM     15  C   UNL     1      10.669  18.629  17.791  0.00  0.00    +0.000 C 
ATOM     16  O   UNL     1      11.292  17.541  17.101  0.00  0.00    +0.000 OA
ENDBRANCH   5   7
BRANCH   1  18
ATOM     17  O   UNL     1       7.693   9.811  17.804  0.00  0.00    +0.000 OA
ATOM     18  C   UNL     1       8.541   9.295  18.523  0.00  0.00    +0.000 C 
ATOM     19  N   UNL     1       8.650   7.941  18.805  0.00  0.00    +0.000 N 
ATOM     20  H   UNL     1       9.407   7.657  19.417  0.00  0.00    +0.000 HD
BRANCH  19  21
ATOM     21  C   UNL     1       7.813   6.896  18.358  0.00  0.00    +0.000 A 
ATOM     22  C   UNL     1       7.426   5.800  19.154  0.00  0.00    +0.000 A 
ATOM     23  C   UNL     1       6.619   4.778  18.634  0.00  0.00    +0.000 A 
ATOM     24  C   UNL     1       6.225   4.875  17.321  0.00  0.00    +0.000 A 
ATOM     25  C   UNL     1       6.585   5.947  16.541  0.00  0.00    +0.000 A 
ATOM     26  C   UNL     1       7.365   6.974  17.031  0.00  0.00    +0.000 A 
ATOM     27  O   UNL     1       6.104   5.852  15.273  0.00  0.00    +0.000 OA
ATOM     28  C   UNL     1       5.484   4.549  15.319  0.00  0.00    +0.000 C 
ATOM     29  O   UNL     1       5.476   3.969  16.640  0.00  0.00    +0.000 OA
ENDBRANCH  19  21
ENDBRANCH   1  18
TORSDOF 3
ENDMDL
MODEL 7
REMARK VINA RESULT:      -8.2      7.101      9.254
REMARK  Name = 
REMARK  3 active torsions:
REMARK  status: ('A' for Active; 'I' for Inactive)
REMARK    1  A    between atoms: C_2  and  C_13
REMARK    2  A    between atoms: N_3  and  C_4
REMARK    3  A    between atoms: N_17  and  C_18
REMARK                            x       y       z     vdW  Elec       q    Type
REMARK                         _______ _______ _______ _____ _____    ______ ____
ROOT
ATOM      1  C   UNL     1       1.148  10.132  19.546  0.00  0.00    +0.000 C 
ATOM      2  C   UNL     1       1.807  10.042  18.176  0.00  0.00    +0.000 C 
ATOM      3  C   UNL     1       2.276   8.621  18.034  0.00  0.00    +0.000 C 
ATOM      4  O   UNL     1       2.884   8.246  17.040  0.00  0.00    +0.000 OA
ATOM      5  N   UNL     1       1.951   7.916  19.185  0.00  0.00    +0.000 N 
ATOM      6  C   UNL     1       1.265   8.743  20.154  0.00  0.00    +0.000 C 
ENDROOT
BRANCH   5   7
ATOM      7  C   UNL     1       2.259   6.547  19.450  0.00  0.00    +0.000 A 
ATOM      8  C   UNL     1       1.927   5.942  20.670  0.00  0.00    +0.000 A 
ATOM      9  C   UNL     1       2.184   4.587  20.905  0.00  0.00    +0.000 A 
ATOM     10  C   UNL     1       2.787   3.813  19.923  0.00  0.00    +0.000 A 
ATOM     11  C   UNL     1       3.135   4.395  18.705  0.00  0.00    +0.000 A 
ATOM     12  C   UNL     1       2.895   5.755  18.480  0.00  0.00    +0.000 A 
ATOM     13  O   UNL     1       3.716   3.696  17.677  0.00  0.00    +0.000 OA
ATOM     14  C   UNL     1       3.588   2.282  17.866  0.00  0.00    +0.000 C 
ATOM     15  C   UNL     1       3.914   1.891  19.299  0.00  0.00    +0.000 C 
ATOM     16  O   UNL     1       2.994   2.491  20.216  0.00  0.00    +0.000 OA
ENDBRANCH   5   7
BRANCH   1  18
ATOM     17  O   UNL     1      -0.823  11.198  20.427  0.00  0.00    +0.000 OA
ATOM     18  C   UNL     1      -0.289  10.637  19.478  0.00  0.00    +0.000 C 
ATOM     19  N   UNL     1      -0.857  10.442  18.227  0.00  0.00    +0.000 N 
ATOM     20  H   UNL     1      -0.294   9.961  17.534  0.00  0.00    +0.000 HD
BRANCH  19  21
ATOM     21  C   UNL     1      -2.149  10.815  17.798  0.00  0.00    +0.000 A 
ATOM     22  C   UNL     1      -2.638  10.607  16.493  0.00  0.00    +0.000 A 
ATOM     23  C   UNL     1      -3.922  11.034  16.126  0.00  0.00    +0.000 A 
ATOM     24  C   UNL     1      -4.684  11.673  17.075  0.00  0.00    +0.000 A 
ATOM     25  C   UNL     1      -4.221  11.868  18.354  0.00  0.00    +0.000 A 
ATOM     26  C   UNL     1      -2.969  11.443  18.748  0.00  0.00    +0.000 A 
ATOM     27  O   UNL     1      -5.118  12.523  19.137  0.00  0.00    +0.000 OA
ATOM     28  C   UNL     1      -6.158  12.804  18.176  0.00  0.00    +0.000 C 
ATOM     29  O   UNL     1      -5.929  12.184  16.893  0.00  0.00    +0.000 OA
ENDBRANCH  19  21
ENDBRANCH   1  18
TORSDOF 3
ENDMDL
MODEL 8
REMARK VINA RESULT:      -8.2      6.885      9.058
REMARK  Name = 
REMARK  3 active torsions:
REMARK  status: ('A' for Active; 'I' for Inactive)
REMARK    1  A    between atoms: C_2  and  C_13
REMARK    2  A    between atoms: N_3  and  C_4
REMARK    3  A    between atoms: N_17  and  C_18
REMARK                            x       y       z     vdW  Elec       q    Type
REMARK                         _______ _______ _______ _____ _____    ______ ____
ROOT
ATOM      1  C   UNL     1       1.272   9.686  19.338  0.00  0.00    +0.000 C 
ATOM      2  C   UNL     1       1.926   9.841  17.972  0.00  0.00    +0.000 C 
ATOM      3  C   UNL     1       2.572   8.518  17.669  0.00  0.00    +0.000 C 
ATOM      4  O   UNL     1       3.215   8.342  16.642  0.00  0.00    +0.000 OA
ATOM      5  N   UNL     1       2.348   7.648  18.728  0.00  0.00    +0.000 N 
ATOM      6  C   UNL     1       1.571   8.262  19.782  0.00  0.00    +0.000 C 
ENDROOT
BRANCH   5   7
ATOM      7  C   UNL     1       2.831   6.309  18.834  0.00  0.00    +0.000 A 
ATOM      8  C   UNL     1       4.107   6.026  19.342  0.00  0.00    +0.000 A 
ATOM      9  C   UNL     1       4.556   4.709  19.492  0.00  0.00    +0.000 A 
ATOM     10  C   UNL     1       3.737   3.649  19.129  0.00  0.00    +0.000 A 
ATOM     11  C   UNL     1       2.468   3.906  18.612  0.00  0.00    +0.000 A 
ATOM     12  C   UNL     1       2.029   5.223  18.444  0.00  0.00    +0.000 A 
ATOM     13  O   UNL     1       1.591   2.915  18.247  0.00  0.00    +0.000 OA
ATOM     14  C   UNL     1       1.981   1.646  18.783  0.00  0.00    +0.000 C 
ATOM     15  C   UNL     1       3.473   1.412  18.602  0.00  0.00    +0.000 C 
ATOM     16  O   UNL     1       4.236   2.388  19.319  0.00  0.00    +0.000 OA
ENDBRANCH   5   7
BRANCH   1  18
ATOM     17  O   UNL     1      -0.889  10.024  20.343  0.00  0.00    +0.000 OA
ATOM     18  C   UNL     1      -0.218  10.008  19.319  0.00  0.00    +0.000 C 
ATOM     19  N   UNL     1      -0.670  10.331  18.048  0.00  0.00    +0.000 N 
ATOM     20  H   UNL     1       0.001  10.275  17.290  0.00  0.00    +0.000 HD
BRANCH  19  21
ATOM     21  C   UNL     1      -1.975  10.713  17.667  0.00  0.00    +0.000 A 
ATOM     22  C   UNL     1      -2.515  10.505  16.382  0.00  0.00    +0.000 A 
ATOM     23  C   UNL     1      -3.809  10.941  16.062  0.00  0.00    +0.000 A 
ATOM     24  C   UNL     1      -4.530  11.587  17.038  0.00  0.00    +0.000 A 
ATOM     25  C   UNL     1      -4.017  11.781  18.298  0.00  0.00    +0.000 A 
ATOM     26  C   UNL     1      -2.754  11.348  18.645  0.00  0.00    +0.000 A 
ATOM     27  O   UNL     1      -4.880  12.444  19.113  0.00  0.00    +0.000 OA
ATOM     28  C   UNL     1      -5.953  12.731  18.191  0.00  0.00    +0.000 C 
ATOM     29  O   UNL     1      -5.778  12.107  16.902  0.00  0.00    +0.000 OA
ENDBRANCH  19  21
ENDBRANCH   1  18
TORSDOF 3
ENDMDL
MODEL 9
REMARK VINA RESULT:      -8.2      7.245      9.982
REMARK  Name = 
REMARK  3 active torsions:
REMARK  status: ('A' for Active; 'I' for Inactive)
REMARK    1  A    between atoms: C_2  and  C_13
REMARK    2  A    between atoms: N_3  and  C_4
REMARK    3  A    between atoms: N_17  and  C_18
REMARK                            x       y       z     vdW  Elec       q    Type
REMARK                         _______ _______ _______ _____ _____    ______ ____
ROOT
ATOM      1  C   UNL     1       1.653   9.745  18.702  0.00  0.00    +0.000 C 
ATOM      2  C   UNL     1       1.258   9.678  20.170  0.00  0.00    +0.000 C 
ATOM      3  C   UNL     1      -0.206  10.016  20.222  0.00  0.00    +0.000 C 
ATOM      4  O   UNL     1      -0.809  10.080  21.285  0.00  0.00    +0.000 OA
ATOM      5  N   UNL     1      -0.661  10.268  18.934  0.00  0.00    +0.000 N 
ATOM      6  C   UNL     1       0.389  10.127  17.949  0.00  0.00    +0.000 C 
ENDROOT
BRANCH   5   7
ATOM      7  C   UNL     1      -1.986  10.656  18.571  0.00  0.00    +0.000 A 
ATOM      8  C   UNL     1      -2.686  10.005  17.545  0.00  0.00    +0.000 A 
ATOM      9  C   UNL     1      -4.003  10.355  17.228  0.00  0.00    +0.000 A 
ATOM     10  C   UNL     1      -4.642  11.369  17.928  0.00  0.00    +0.000 A 
ATOM     11  C   UNL     1      -3.963  12.037  18.945  0.00  0.00    +0.000 A 
ATOM     12  C   UNL     1      -2.639  11.699  19.247  0.00  0.00    +0.000 A 
ATOM     13  O   UNL     1      -4.529  13.036  19.696  0.00  0.00    +0.000 OA
ATOM     14  C   UNL     1      -5.954  13.054  19.557  0.00  0.00    +0.000 C 
ATOM     15  C   UNL     1      -6.363  12.906  18.101  0.00  0.00    +0.000 C 
ATOM     16  O   UNL     1      -5.936  11.646  17.573  0.00  0.00    +0.000 OA
ENDBRANCH   5   7
BRANCH   1  18
ATOM     17  O   UNL     1       2.800   8.368  17.093  0.00  0.00    +0.000 OA
ATOM     18  C   UNL     1       2.281   8.449  18.200  0.00  0.00    +0.000 C 
ATOM     19  N   UNL     1       2.247   7.443  19.155  0.00  0.00    +0.000 N 
ATOM     20  H   UNL     1       1.783   7.654  20.032  0.00  0.00    +0.000 HD
BRANCH  19  21
ATOM     21  C   UNL     1       2.763   6.134  19.049  0.00  0.00    +0.000 A 
ATOM     22  C   UNL     1       4.057   5.759  19.464  0.00  0.00    +0.000 A 
ATOM     23  C   UNL     1       4.518   4.446  19.296  0.00  0.00    +0.000 A 
ATOM     24  C   UNL     1       3.672   3.537  18.705  0.00  0.00    +0.000 A 
ATOM     25  C   UNL     1       2.405   3.890  18.310  0.00  0.00    +0.000 A 
ATOM     26  C   UNL     1       1.919   5.170  18.478  0.00  0.00    +0.000 A 
ATOM     27  O   UNL     1       1.731   2.854  17.742  0.00  0.00    +0.000 OA
ATOM     28  C   UNL     1       2.758   1.839  17.735  0.00  0.00    +0.000 C 
ATOM     29  O   UNL     1       3.957   2.238  18.431  0.00  0.00    +0.000 OA
ENDBRANCH  19  21
ENDBRANCH   1  18
TORSDOF 3
ENDMDL
