MODEL 1
REMARK VINA RESULT:      -6.4      0.000      0.000
REMARK  Name = 
REMARK  2 active torsions:
REMARK  status: ('A' for Active; 'I' for Inactive)
REMARK    1  A    between atoms: C_1  and  C_2
REMARK    2  A    between atoms: C_2  and  C_4
REMARK                            x       y       z     vdW  Elec       q    Type
REMARK                         _______ _______ _______ _____ _____    ______ ____
ROOT
ATOM      1  C   UNL     1       2.676   4.706  18.060  0.00  0.00    +0.000 A 
ATOM      2  C   UNL     1       2.761   6.115  18.194  0.00  0.00    +0.000 A 
ATOM      3  C   UNL     1       3.811   6.834  17.610  0.00  0.00    +0.000 A 
ATOM      4  C   UNL     1       4.742   6.106  16.908  0.00  0.00    +0.000 A 
ATOM      5  N   UNL     1       5.864   6.504  16.244  0.00  0.00    +0.000 N 
ATOM      6  C   UNL     1       6.457   5.382  15.712  0.00  0.00    +0.000 A 
ATOM      7  O   UNL     1       7.489   5.384  15.058  0.00  0.00    +0.000 OA
ATOM      8  O   UNL     1       5.724   4.228  16.018  0.00  0.00    +0.000 OA
ATOM      9  C   UNL     1       4.672   4.737  16.764  0.00  0.00    +0.000 A 
ATOM     10  C   UNL     1       3.650   4.006  17.327  0.00  0.00    +0.000 A 
ATOM     11  H   UNL     1       6.236   7.433  16.141  0.00  0.00    +0.000 HD
ENDROOT
BRANCH   1  13
ATOM     12  C   UNL     1       1.195   4.196  20.118  0.00  0.00    +0.000 C 
ATOM     13  C   UNL     1       1.570   3.921  18.686  0.00  0.00    +0.000 C 
ATOM     14  O   UNL     1       0.984   3.062  18.029  0.00  0.00    +0.000 OA
ENDBRANCH   1  13
TORSDOF 1
ENDMDL
MODEL 2
REMARK VINA RESULT:      -6.3      2.125      2.466
REMARK  Name = 
REMARK  2 active torsions:
REMARK  status: ('A' for Active; 'I' for Inactive)
REMARK    1  A    between atoms: C_1  and  C_2
REMARK    2  A    between atoms: C_2  and  C_4
REMARK                            x       y       z     vdW  Elec       q    Type
REMARK                         _______ _______ _______ _____ _____    ______ ____
ROOT
ATOM      1  C   UNL     1       2.657   3.771  19.402  0.00  0.00    +0.000 A 
ATOM      2  C   UNL     1       2.321   3.462  18.060  0.00  0.00    +0.000 A 
ATOM      3  C   UNL     1       3.289   3.491  17.048  0.00  0.00    +0.000 A 
ATOM      4  C   UNL     1       4.566   3.831  17.424  0.00  0.00    +0.000 A 
ATOM      5  N   UNL     1       5.706   3.956  16.688  0.00  0.00    +0.000 N 
ATOM      6  C   UNL     1       6.719   4.326  17.542  0.00  0.00    +0.000 A 
ATOM      7  O   UNL     1       7.877   4.527  17.204  0.00  0.00    +0.000 OA
ATOM      8  O   UNL     1       6.254   4.446  18.859  0.00  0.00    +0.000 OA
ATOM      9  C   UNL     1       4.911   4.130  18.725  0.00  0.00    +0.000 A 
ATOM     10  C   UNL     1       3.980   4.108  19.739  0.00  0.00    +0.000 A 
ATOM     11  H   UNL     1       5.833   3.820  15.699  0.00  0.00    +0.000 HD
ENDROOT
BRANCH   1  13
ATOM     12  C   UNL     1       1.701   2.675  21.541  0.00  0.00    +0.000 C 
ATOM     13  C   UNL     1       1.637   3.756  20.493  0.00  0.00    +0.000 C 
ATOM     14  O   UNL     1       0.761   4.618  20.522  0.00  0.00    +0.000 OA
ENDBRANCH   1  13
TORSDOF 1
ENDMDL
MODEL 3
REMARK VINA RESULT:      -6.2      2.914      5.597
REMARK  Name = 
REMARK  2 active torsions:
REMARK  status: ('A' for Active; 'I' for Inactive)
REMARK    1  A    between atoms: C_1  and  C_2
REMARK    2  A    between atoms: C_2  and  C_4
REMARK                            x       y       z     vdW  Elec       q    Type
REMARK                         _______ _______ _______ _____ _____    ______ ____
ROOT
ATOM      1  C   UNL     1       4.012   4.044  18.009  0.00  0.00    +0.000 A 
ATOM      2  C   UNL     1       2.724   4.311  17.480  0.00  0.00    +0.000 A 
ATOM      3  C   UNL     1       1.569   4.057  18.229  0.00  0.00    +0.000 A 
ATOM      4  C   UNL     1       1.752   3.541  19.490  0.00  0.00    +0.000 A 
ATOM      5  N   UNL     1       0.846   3.184  20.444  0.00  0.00    +0.000 N 
ATOM      6  C   UNL     1       1.545   2.715  21.532  0.00  0.00    +0.000 A 
ATOM      7  O   UNL     1       1.035   2.307  22.565  0.00  0.00    +0.000 OA
ATOM      8  O   UNL     1       2.927   2.762  21.305  0.00  0.00    +0.000 OA
ATOM      9  C   UNL     1       2.997   3.280  20.022  0.00  0.00    +0.000 A 
ATOM     10  C   UNL     1       4.149   3.522  19.307  0.00  0.00    +0.000 A 
ATOM     11  H   UNL     1      -0.159   3.230  20.405  0.00  0.00    +0.000 HD
ENDROOT
BRANCH   1  13
ATOM     12  C   UNL     1       5.175   4.340  15.718  0.00  0.00    +0.000 C 
ATOM     13  C   UNL     1       5.256   4.298  17.221  0.00  0.00    +0.000 C 
ATOM     14  O   UNL     1       6.324   4.467  17.805  0.00  0.00    +0.000 OA
ENDBRANCH   1  13
TORSDOF 1
ENDMDL
MODEL 4
REMARK VINA RESULT:      -6.2      2.278      5.088
REMARK  Name = 
REMARK  2 active torsions:
REMARK  status: ('A' for Active; 'I' for Inactive)
REMARK    1  A    between atoms: C_1  and  C_2
REMARK    2  A    between atoms: C_2  and  C_4
REMARK                            x       y       z     vdW  Elec       q    Type
REMARK                         _______ _______ _______ _____ _____    ______ ____
ROOT
ATOM      1  C   UNL     1       5.551   4.380  17.269  0.00  0.00    +0.000 A 
ATOM      2  C   UNL     1       5.425   5.030  18.523  0.00  0.00    +0.000 A 
ATOM      3  C   UNL     1       4.271   4.880  19.301  0.00  0.00    +0.000 A 
ATOM      4  C   UNL     1       3.281   4.076  18.789  0.00  0.00    +0.000 A 
ATOM      5  N   UNL     1       2.058   3.743  19.291  0.00  0.00    +0.000 N 
ATOM      6  C   UNL     1       1.445   2.911  18.384  0.00  0.00    +0.000 A 
ATOM      7  O   UNL     1       0.329   2.429  18.523  0.00  0.00    +0.000 OA
ATOM      8  O   UNL     1       2.264   2.682  17.270  0.00  0.00    +0.000 OA
ATOM      9  C   UNL     1       3.389   3.432  17.575  0.00  0.00    +0.000 A 
ATOM     10  C   UNL     1       4.513   3.563  16.790  0.00  0.00    +0.000 A 
ATOM     11  H   UNL     1       1.634   4.032  20.157  0.00  0.00    +0.000 HD
ENDROOT
BRANCH   1  13
ATOM     12  C   UNL     1       6.605   4.838  14.952  0.00  0.00    +0.000 C 
ATOM     13  C   UNL     1       6.770   4.537  16.419  0.00  0.00    +0.000 C 
ATOM     14  O   UNL     1       7.885   4.417  16.923  0.00  0.00    +0.000 OA
ENDBRANCH   1  13
TORSDOF 1
ENDMDL
MODEL 5
REMARK VINA RESULT:      -6.2      1.798      4.947
REMARK  Name = 
REMARK  2 active torsions:
REMARK  status: ('A' for Active; 'I' for Inactive)
REMARK    1  A    between atoms: C_1  and  C_2
REMARK    2  A    between atoms: C_2  and  C_4
REMARK                            x       y       z     vdW  Elec       q    Type
REMARK                         _______ _______ _______ _____ _____    ______ ____
ROOT
ATOM      1  C   UNL     1       5.182   5.150  16.450  0.00  0.00    +0.000 A 
ATOM      2  C   UNL     1       4.617   6.270  17.112  0.00  0.00    +0.000 A 
ATOM      3  C   UNL     1       3.439   6.148  17.858  0.00  0.00    +0.000 A 
ATOM      4  C   UNL     1       2.867   4.900  17.913  0.00  0.00    +0.000 A 
ATOM      5  N   UNL     1       1.735   4.466  18.536  0.00  0.00    +0.000 N 
ATOM      6  C   UNL     1       1.601   3.123  18.276  0.00  0.00    +0.000 A 
ATOM      7  O   UNL     1       0.686   2.422  18.684  0.00  0.00    +0.000 OA
ATOM      8  O   UNL     1       2.651   2.653  17.476  0.00  0.00    +0.000 OA
ATOM      9  C   UNL     1       3.405   3.799  17.279  0.00  0.00    +0.000 A 
ATOM     10  C   UNL     1       4.563   3.891  16.540  0.00  0.00    +0.000 A 
ATOM     11  H   UNL     1       1.082   4.995  19.090  0.00  0.00    +0.000 HD
ENDROOT
BRANCH   1  13
ATOM     12  C   UNL     1       6.549   4.471  14.363  0.00  0.00    +0.000 C 
ATOM     13  C   UNL     1       6.432   5.261  15.640  0.00  0.00    +0.000 C 
ATOM     14  O   UNL     1       7.345   5.989  16.024  0.00  0.00    +0.000 OA
ENDBRANCH   1  13
TORSDOF 1
ENDMDL
MODEL 6
REMARK VINA RESULT:      -6.2      2.743      5.052
REMARK  Name = 
REMARK  2 active torsions:
REMARK  status: ('A' for Active; 'I' for Inactive)
REMARK    1  A    between atoms: C_1  and  C_2
REMARK    2  A    between atoms: C_2  and  C_4
REMARK                            x       y       z     vdW  Elec       q    Type
REMARK                         _______ _______ _______ _____ _____    ______ ____
ROOT
ATOM      1  C   UNL     1       5.952   5.032  18.422  0.00  0.00    +0.000 A 
ATOM      2  C   UNL     1       5.918   4.717  17.040  0.00  0.00    +0.000 A 
ATOM      3  C   UNL     1       4.808   4.082  16.471  0.00  0.00    +0.000 A 
ATOM      4  C   UNL     1       3.765   3.786  17.316  0.00  0.00    +0.000 A 
ATOM      5  N   UNL     1       2.571   3.175  17.075  0.00  0.00    +0.000 N 
ATOM      6  C   UNL     1       1.882   3.114  18.264  0.00  0.00    +0.000 A 
ATOM      7  O   UNL     1       0.773   2.620  18.402  0.00  0.00    +0.000 OA
ATOM      8  O   UNL     1       2.619   3.692  19.306  0.00  0.00    +0.000 OA
ATOM      9  C   UNL     1       3.779   4.090  18.661  0.00  0.00    +0.000 A 
ATOM     10  C   UNL     1       4.858   4.714  19.245  0.00  0.00    +0.000 A 
ATOM     11  H   UNL     1       2.216   2.811  16.206  0.00  0.00    +0.000 HD
ENDROOT
BRANCH   1  13
ATOM     12  C   UNL     1       7.843   6.792  18.295  0.00  0.00    +0.000 C 
ATOM     13  C   UNL     1       7.133   5.699  19.049  0.00  0.00    +0.000 C 
ATOM     14  O   UNL     1       7.509   5.348  20.166  0.00  0.00    +0.000 OA
ENDBRANCH   1  13
TORSDOF 1
ENDMDL
MODEL 7
REMARK VINA RESULT:      -6.2      1.655      4.897
REMARK  Name = 
REMARK  2 active torsions:
REMARK  status: ('A' for Active; 'I' for Inactive)
REMARK    1  A    between atoms: C_1  and  C_2
REMARK    2  A    between atoms: C_2  and  C_4
REMARK                            x       y       z     vdW  Elec       q    Type
REMARK                         _______ _______ _______ _____ _____    ______ ____
ROOT
ATOM      1  C   UNL     1       5.382   5.226  16.011  0.00  0.00    +0.000 A 
ATOM      2  C   UNL     1       5.160   6.549  16.471  0.00  0.00    +0.000 A 
ATOM      3  C   UNL     1       4.163   6.827  17.414  0.00  0.00    +0.000 A 
ATOM      4  C   UNL     1       3.422   5.760  17.864  0.00  0.00    +0.000 A 
ATOM      5  N   UNL     1       2.394   5.705  18.757  0.00  0.00    +0.000 N 
ATOM      6  C   UNL     1       1.992   4.393  18.853  0.00  0.00    +0.000 A 
ATOM      7  O   UNL     1       1.084   3.994  19.568  0.00  0.00    +0.000 OA
ATOM      8  O   UNL     1       2.759   3.565  18.023  0.00  0.00    +0.000 OA
ATOM      9  C   UNL     1       3.628   4.467  17.431  0.00  0.00    +0.000 A 
ATOM     10  C   UNL     1       4.602   4.166  16.505  0.00  0.00    +0.000 A 
ATOM     11  H   UNL     1       1.968   6.458  19.271  0.00  0.00    +0.000 HD
ENDROOT
BRANCH   1  13
ATOM     12  C   UNL     1       6.111   3.947  13.885  0.00  0.00    +0.000 C 
ATOM     13  C   UNL     1       6.433   4.911  14.997  0.00  0.00    +0.000 C 
ATOM     14  O   UNL     1       7.541   5.436  15.083  0.00  0.00    +0.000 OA
ENDBRANCH   1  13
TORSDOF 1
ENDMDL
MODEL 8
REMARK VINA RESULT:      -6.2      2.564      5.257
REMARK  Name = 
REMARK  2 active torsions:
REMARK  status: ('A' for Active; 'I' for Inactive)
REMARK    1  A    between atoms: C_1  and  C_2
REMARK    2  A    between atoms: C_2  and  C_4
REMARK                            x       y       z     vdW  Elec       q    Type
REMARK                         _______ _______ _______ _____ _____    ______ ____
ROOT
ATOM      1  C   UNL     1       5.895   4.621  18.003  0.00  0.00    +0.000 A 
ATOM      2  C   UNL     1       5.217   4.119  16.863  0.00  0.00    +0.000 A 
ATOM      3  C   UNL     1       3.847   3.835  16.906  0.00  0.00    +0.000 A 
ATOM      4  C   UNL     1       3.204   4.067  18.098  0.00  0.00    +0.000 A 
ATOM      5  N   UNL     1       1.901   3.886  18.455  0.00  0.00    +0.000 N 
ATOM      6  C   UNL     1       1.770   4.265  19.771  0.00  0.00    +0.000 A 
ATOM      7  O   UNL     1       0.727   4.225  20.407  0.00  0.00    +0.000 OA
ATOM      8  O   UNL     1       2.992   4.707  20.295  0.00  0.00    +0.000 OA
ATOM      9  C   UNL     1       3.846   4.559  19.214  0.00  0.00    +0.000 A 
ATOM     10  C   UNL     1       5.193   4.848  19.200  0.00  0.00    +0.000 A 
ATOM     11  H   UNL     1       1.140   3.536  17.898  0.00  0.00    +0.000 HD
ENDROOT
BRANCH   1  13
ATOM     12  C   UNL     1       7.890   6.036  18.843  0.00  0.00    +0.000 C 
ATOM     13  C   UNL     1       7.359   4.920  17.981  0.00  0.00    +0.000 C 
ATOM     14  O   UNL     1       8.106   4.259  17.264  0.00  0.00    +0.000 OA
ENDBRANCH   1  13
TORSDOF 1
ENDMDL
MODEL 9
REMARK VINA RESULT:      -6.2      2.419      5.257
REMARK  Name = 
REMARK  2 active torsions:
REMARK  status: ('A' for Active; 'I' for Inactive)
REMARK    1  A    between atoms: C_1  and  C_2
REMARK    2  A    between atoms: C_2  and  C_4
REMARK                            x       y       z     vdW  Elec       q    Type
REMARK                         _______ _______ _______ _____ _____    ______ ____
ROOT
ATOM      1  C   UNL     1       6.532   4.533  15.634  0.00  0.00    +0.000 A 
ATOM      2  C   UNL     1       7.464   4.818  16.664  0.00  0.00    +0.000 A 
ATOM      3  C   UNL     1       7.107   4.705  18.013  0.00  0.00    +0.000 A 
ATOM      4  C   UNL     1       5.820   4.306  18.280  0.00  0.00    +0.000 A 
ATOM      5  N   UNL     1       5.177   4.114  19.466  0.00  0.00    +0.000 N 
ATOM      6  C   UNL     1       3.889   3.719  19.187  0.00  0.00    +0.000 A 
ATOM      7  O   UNL     1       3.039   3.467  20.029  0.00  0.00    +0.000 OA
ATOM      8  O   UNL     1       3.671   3.642  17.805  0.00  0.00    +0.000 OA
ATOM      9  C   UNL     1       4.901   4.020  17.292  0.00  0.00    +0.000 A 
ATOM     10  C   UNL     1       5.226   4.123  15.958  0.00  0.00    +0.000 A 
ATOM     11  H   UNL     1       5.533   4.233  20.400  0.00  0.00    +0.000 HD
ENDROOT
BRANCH   1  13
ATOM     12  C   UNL     1       6.188   3.785  13.183  0.00  0.00    +0.000 C 
ATOM     13  C   UNL     1       6.890   4.659  14.189  0.00  0.00    +0.000 C 
ATOM     14  O   UNL     1       7.748   5.467  13.842  0.00  0.00    +0.000 OA
ENDBRANCH   1  13
TORSDOF 1
ENDMDL
