MODEL 1
REMARK VINA RESULT:      -9.5      0.000      0.000
REMARK  Name = 
REMARK  6 active torsions:
REMARK  status: ('A' for Active; 'I' for Inactive)
REMARK    1  A    between atoms: C_2  and  C_28
REMARK    2  A    between atoms: N_3  and  C_4
REMARK    3  A    between atoms: C_4  and  C_5
REMARK    4  A    between atoms: C_5  and  C_6
REMARK    5  A    between atoms: C_9  and  C_10
REMARK    6  A    between atoms: C_15  and  C_16
REMARK                            x       y       z     vdW  Elec       q    Type
REMARK                         _______ _______ _______ _____ _____    ______ ____
ROOT
ATOM      1  C   UNL     1      -0.032  11.809  21.358  0.00  0.00    +0.000 A 
ATOM      2  C   UNL     1      -0.579  10.897  22.238  0.00  0.00    +0.000 A 
ATOM      3  S   UNL     1      -0.140   9.309  21.795  0.00  0.00    +0.000 S 
ATOM      4  C   UNL     1       0.782   9.933  20.476  0.00  0.00    +0.000 A 
ATOM      5  N   UNL     1       0.750  11.246  20.360  0.00  0.00    +0.000 NA
ENDROOT
BRANCH   4   6
ATOM      6  C   UNL     1       1.502   9.029  19.562  0.00  0.00    +0.000 A 
ATOM      7  C   UNL     1       2.084   9.477  18.373  0.00  0.00    +0.000 A 
ATOM      8  C   UNL     1       2.745   8.587  17.531  0.00  0.00    +0.000 A 
ATOM      9  C   UNL     1       2.812   7.234  17.860  0.00  0.00    +0.000 A 
ATOM     10  F   UNL     1       3.442   6.423  16.999  0.00  0.00    +0.000 F 
ATOM     11  C   UNL     1       2.227   6.721  19.028  0.00  0.00    +0.000 A 
ATOM     12  C   UNL     1       1.583   7.654  19.871  0.00  0.00    +0.000 A 
BRANCH  11  13
ATOM     13  C   UNL     1       2.234   5.213  19.328  0.00  0.00    +0.000 C 
ATOM     14  C   UNL     1       3.646   4.700  19.741  0.00  0.00    +0.000 C 
ATOM     15  C   UNL     1       3.628   3.179  20.004  0.00  0.00    +0.000 C 
ATOM     16  C   UNL     1       2.644   2.864  21.140  0.00  0.00    +0.000 C 
ATOM     17  C   UNL     1       1.235   3.319  20.746  0.00  0.00    +0.000 C 
ATOM     18  C   UNL     1       0.784   2.604  19.466  0.00  0.00    +0.000 C 
ATOM     19  C   UNL     1       1.768   2.906  18.326  0.00  0.00    +0.000 C 
ATOM     20  C   UNL     1       3.175   2.441  18.733  0.00  0.00    +0.000 C 
ATOM     21  C   UNL     1       1.790   4.421  18.061  0.00  0.00    +0.000 C 
ATOM     22  C   UNL     1       1.256   4.830  20.484  0.00  0.00    +0.000 C 
ENDBRANCH  11  13
ENDBRANCH   4   6
BRANCH   1  23
ATOM     23  C   UNL     1      -0.205  13.291  21.416  0.00  0.00    +0.000 C 
BRANCH  23  24
ATOM     24  C   UNL     1      -1.302  13.808  20.487  0.00  0.00    +0.000 C 
BRANCH  24  27
ATOM     25  O   UNL     1      -3.548  12.157  20.030  0.00  0.00    +0.000 OA
ATOM     26  C   UNL     1      -2.634  12.163  19.217  0.00  0.00    +0.000 C 
ATOM     27  N   UNL     1      -1.494  12.933  19.346  0.00  0.00    +0.000 N 
ATOM     28  H   UNL     1      -0.880  13.049  18.550  0.00  0.00    +0.000 HD
BRANCH  26  29
ATOM     29  C   UNL     1      -2.708  11.332  17.987  0.00  0.00    +0.000 A 
ATOM     30  C   UNL     1      -3.773  11.518  17.098  0.00  0.00    +0.000 A 
ATOM     31  C   UNL     1      -3.863  10.728  15.951  0.00  0.00    +0.000 A 
ATOM     32  C   UNL     1      -2.898   9.754  15.695  0.00  0.00    +0.000 A 
ATOM     33  C   UNL     1      -1.839   9.564  16.582  0.00  0.00    +0.000 A 
ATOM     34  C   UNL     1      -1.744  10.351  17.729  0.00  0.00    +0.000 A 
ENDBRANCH  26  29
ENDBRANCH  24  27
ENDBRANCH  23  24
ENDBRANCH   1  23
TORSDOF 6
ENDMDL
MODEL 2
REMARK VINA RESULT:      -8.9      2.662      3.822
REMARK  Name = 
REMARK  6 active torsions:
REMARK  status: ('A' for Active; 'I' for Inactive)
REMARK    1  A    between atoms: C_2  and  C_28
REMARK    2  A    between atoms: N_3  and  C_4
REMARK    3  A    between atoms: C_4  and  C_5
REMARK    4  A    between atoms: C_5  and  C_6
REMARK    5  A    between atoms: C_9  and  C_10
REMARK    6  A    between atoms: C_15  and  C_16
REMARK                            x       y       z     vdW  Elec       q    Type
REMARK                         _______ _______ _______ _____ _____    ______ ____
ROOT
ATOM      1  C   UNL     1      -0.334  10.661  21.360  0.00  0.00    +0.000 A 
ATOM      2  C   UNL     1      -0.560  11.557  20.333  0.00  0.00    +0.000 A 
ATOM      3  S   UNL     1       0.263  11.062  18.924  0.00  0.00    +0.000 S 
ATOM      4  C   UNL     1       0.844   9.665  19.754  0.00  0.00    +0.000 A 
ATOM      5  N   UNL     1       0.463   9.580  21.014  0.00  0.00    +0.000 NA
ENDROOT
BRANCH   4   6
ATOM      6  C   UNL     1       1.718   8.691  19.076  0.00  0.00    +0.000 A 
ATOM      7  C   UNL     1       2.565   9.054  18.025  0.00  0.00    +0.000 A 
ATOM      8  C   UNL     1       3.365   8.100  17.402  0.00  0.00    +0.000 A 
ATOM      9  C   UNL     1       3.310   6.768  17.811  0.00  0.00    +0.000 A 
ATOM     10  F   UNL     1       4.088   5.893  17.158  0.00  0.00    +0.000 F 
ATOM     11  C   UNL     1       2.463   6.340  18.844  0.00  0.00    +0.000 A 
ATOM     12  C   UNL     1       1.681   7.337  19.469  0.00  0.00    +0.000 A 
BRANCH  11  13
ATOM     13  C   UNL     1       2.351   4.853  19.220  0.00  0.00    +0.000 C 
ATOM     14  C   UNL     1       1.820   3.984  18.041  0.00  0.00    +0.000 C 
ATOM     15  C   UNL     1       1.688   2.504  18.458  0.00  0.00    +0.000 C 
ATOM     16  C   UNL     1       3.061   1.964  18.883  0.00  0.00    +0.000 C 
ATOM     17  C   UNL     1       3.592   2.772  20.071  0.00  0.00    +0.000 C 
ATOM     18  C   UNL     1       2.619   2.681  21.254  0.00  0.00    +0.000 C 
ATOM     19  C   UNL     1       1.240   3.211  20.835  0.00  0.00    +0.000 C 
ATOM     20  C   UNL     1       0.718   2.389  19.646  0.00  0.00    +0.000 C 
ATOM     21  C   UNL     1       1.367   4.686  20.417  0.00  0.00    +0.000 C 
ATOM     22  C   UNL     1       3.721   4.243  19.654  0.00  0.00    +0.000 C 
ENDBRANCH  11  13
ENDBRANCH   4   6
BRANCH   1  23
ATOM     23  C   UNL     1      -0.879  10.765  22.746  0.00  0.00    +0.000 C 
BRANCH  23  24
ATOM     24  C   UNL     1      -1.382  12.166  23.093  0.00  0.00    +0.000 C 
BRANCH  24  27
ATOM     25  O   UNL     1      -3.176  13.455  21.334  0.00  0.00    +0.000 OA
ATOM     26  C   UNL     1      -3.616  12.861  22.308  0.00  0.00    +0.000 C 
ATOM     27  N   UNL     1      -2.826  12.199  23.228  0.00  0.00    +0.000 N 
ATOM     28  H   UNL     1      -3.255  11.561  23.886  0.00  0.00    +0.000 HD
BRANCH  26  29
ATOM     29  C   UNL     1      -5.080  12.792  22.557  0.00  0.00    +0.000 A 
ATOM     30  C   UNL     1      -5.563  12.970  23.859  0.00  0.00    +0.000 A 
ATOM     31  C   UNL     1      -6.933  12.885  24.107  0.00  0.00    +0.000 A 
ATOM     32  C   UNL     1      -7.817  12.617  23.062  0.00  0.00    +0.000 A 
ATOM     33  C   UNL     1      -7.338  12.433  21.765  0.00  0.00    +0.000 A 
ATOM     34  C   UNL     1      -5.970  12.518  21.513  0.00  0.00    +0.000 A 
ENDBRANCH  26  29
ENDBRANCH  24  27
ENDBRANCH  23  24
ENDBRANCH   1  23
TORSDOF 6
ENDMDL
MODEL 3
REMARK VINA RESULT:      -8.8      1.644      2.416
REMARK  Name = 
REMARK  6 active torsions:
REMARK  status: ('A' for Active; 'I' for Inactive)
REMARK    1  A    between atoms: C_2  and  C_28
REMARK    2  A    between atoms: N_3  and  C_4
REMARK    3  A    between atoms: C_4  and  C_5
REMARK    4  A    between atoms: C_5  and  C_6
REMARK    5  A    between atoms: C_9  and  C_10
REMARK    6  A    between atoms: C_15  and  C_16
REMARK                            x       y       z     vdW  Elec       q    Type
REMARK                         _______ _______ _______ _____ _____    ______ ____
ROOT
ATOM      1  C   UNL     1      -0.646  11.495  22.383  0.00  0.00    +0.000 A 
ATOM      2  C   UNL     1      -0.957  10.410  23.178  0.00  0.00    +0.000 A 
ATOM      3  S   UNL     1      -0.325   8.978  22.501  0.00  0.00    +0.000 S 
ATOM      4  C   UNL     1       0.356   9.892  21.205  0.00  0.00    +0.000 A 
ATOM      5  N   UNL     1       0.112  11.187  21.262  0.00  0.00    +0.000 NA
ENDROOT
BRANCH   4   6
ATOM      6  C   UNL     1       1.114   9.230  20.130  0.00  0.00    +0.000 A 
ATOM      7  C   UNL     1       1.562   9.918  18.998  0.00  0.00    +0.000 A 
ATOM      8  C   UNL     1       2.264   9.251  17.998  0.00  0.00    +0.000 A 
ATOM      9  C   UNL     1       2.507   7.882  18.110  0.00  0.00    +0.000 A 
ATOM     10  F   UNL     1       3.169   7.293  17.104  0.00  0.00    +0.000 F 
ATOM     11  C   UNL     1       2.064   7.134  19.210  0.00  0.00    +0.000 A 
ATOM     12  C   UNL     1       1.374   7.845  20.217  0.00  0.00    +0.000 A 
BRANCH  11  13
ATOM     13  C   UNL     1       2.264   5.611  19.272  0.00  0.00    +0.000 C 
ATOM     14  C   UNL     1       1.533   4.968  20.489  0.00  0.00    +0.000 C 
ATOM     15  C   UNL     1       1.779   3.446  20.543  0.00  0.00    +0.000 C 
ATOM     16  C   UNL     1       1.253   2.792  19.257  0.00  0.00    +0.000 C 
ATOM     17  C   UNL     1       1.985   3.373  18.043  0.00  0.00    +0.000 C 
ATOM     18  C   UNL     1       3.494   3.124  18.162  0.00  0.00    +0.000 C 
ATOM     19  C   UNL     1       4.028   3.767  19.451  0.00  0.00    +0.000 C 
ATOM     20  C   UNL     1       3.288   3.172  20.660  0.00  0.00    +0.000 C 
ATOM     21  C   UNL     1       3.783   5.285  19.401  0.00  0.00    +0.000 C 
ATOM     22  C   UNL     1       1.739   4.887  17.992  0.00  0.00    +0.000 C 
ENDBRANCH  11  13
ENDBRANCH   4   6
BRANCH   1  23
ATOM     23  C   UNL     1      -1.037  12.912  22.644  0.00  0.00    +0.000 C 
BRANCH  23  24
ATOM     24  C   UNL     1      -1.627  13.611  21.420  0.00  0.00    +0.000 C 
BRANCH  24  27
ATOM     25  O   UNL     1      -4.291  14.442  20.979  0.00  0.00    +0.000 OA
ATOM     26  C   UNL     1      -3.948  13.320  20.633  0.00  0.00    +0.000 C 
ATOM     27  N   UNL     1      -2.672  12.818  20.802  0.00  0.00    +0.000 N 
ATOM     28  H   UNL     1      -2.401  11.973  20.314  0.00  0.00    +0.000 HD
BRANCH  26  29
ATOM     29  C   UNL     1      -4.910  12.406  19.963  0.00  0.00    +0.000 A 
ATOM     30  C   UNL     1      -6.106  12.075  20.611  0.00  0.00    +0.000 A 
ATOM     31  C   UNL     1      -7.006  11.201  20.000  0.00  0.00    +0.000 A 
ATOM     32  C   UNL     1      -6.711  10.655  18.751  0.00  0.00    +0.000 A 
ATOM     33  C   UNL     1      -5.518  10.978  18.106  0.00  0.00    +0.000 A 
ATOM     34  C   UNL     1      -4.616  11.852  18.713  0.00  0.00    +0.000 A 
ENDBRANCH  26  29
ENDBRANCH  24  27
ENDBRANCH  23  24
ENDBRANCH   1  23
TORSDOF 6
ENDMDL
MODEL 4
REMARK VINA RESULT:      -8.8      2.524      3.375
REMARK  Name = 
REMARK  6 active torsions:
REMARK  status: ('A' for Active; 'I' for Inactive)
REMARK    1  A    between atoms: C_2  and  C_28
REMARK    2  A    between atoms: N_3  and  C_4
REMARK    3  A    between atoms: C_4  and  C_5
REMARK    4  A    between atoms: C_5  and  C_6
REMARK    5  A    between atoms: C_9  and  C_10
REMARK    6  A    between atoms: C_15  and  C_16
REMARK                            x       y       z     vdW  Elec       q    Type
REMARK                         _______ _______ _______ _____ _____    ______ ____
ROOT
ATOM      1  C   UNL     1      -0.273  10.689  21.709  0.00  0.00    +0.000 A 
ATOM      2  C   UNL     1      -0.169  11.798  20.894  0.00  0.00    +0.000 A 
ATOM      3  S   UNL     1       0.755  11.431  19.509  0.00  0.00    +0.000 S 
ATOM      4  C   UNL     1       0.933   9.805  20.060  0.00  0.00    +0.000 A 
ATOM      5  N   UNL     1       0.354   9.554  21.217  0.00  0.00    +0.000 NA
ENDROOT
BRANCH   4   6
ATOM      6  C   UNL     1       1.705   8.823  19.279  0.00  0.00    +0.000 A 
ATOM      7  C   UNL     1       2.413   9.176  18.126  0.00  0.00    +0.000 A 
ATOM      8  C   UNL     1       3.119   8.215  17.409  0.00  0.00    +0.000 A 
ATOM      9  C   UNL     1       3.107   6.884  17.826  0.00  0.00    +0.000 A 
ATOM     10  F   UNL     1       3.788   6.001  17.083  0.00  0.00    +0.000 F 
ATOM     11  C   UNL     1       2.397   6.465  18.961  0.00  0.00    +0.000 A 
ATOM     12  C   UNL     1       1.708   7.470  19.678  0.00  0.00    +0.000 A 
BRANCH  11  13
ATOM     13  C   UNL     1       2.322   4.980  19.353  0.00  0.00    +0.000 C 
ATOM     14  C   UNL     1       3.720   4.394  19.713  0.00  0.00    +0.000 C 
ATOM     15  C   UNL     1       3.618   2.896  20.071  0.00  0.00    +0.000 C 
ATOM     16  C   UNL     1       2.689   2.717  21.280  0.00  0.00    +0.000 C 
ATOM     17  C   UNL     1       1.291   3.246  20.942  0.00  0.00    +0.000 C 
ATOM     18  C   UNL     1       0.714   2.492  19.737  0.00  0.00    +0.000 C 
ATOM     19  C   UNL     1       1.642   2.658  18.525  0.00  0.00    +0.000 C 
ATOM     20  C   UNL     1       3.038   2.119  18.877  0.00  0.00    +0.000 C 
ATOM     21  C   UNL     1       1.748   4.150  18.166  0.00  0.00    +0.000 C 
ATOM     22  C   UNL     1       1.395   4.734  20.586  0.00  0.00    +0.000 C 
ENDBRANCH  11  13
ENDBRANCH   4   6
BRANCH   1  23
ATOM     23  C   UNL     1      -0.996  10.628  23.015  0.00  0.00    +0.000 C 
BRANCH  23  24
ATOM     24  C   UNL     1      -1.634  11.958  23.414  0.00  0.00    +0.000 C 
BRANCH  24  27
ATOM     25  O   UNL     1      -3.068  13.800  21.824  0.00  0.00    +0.000 OA
ATOM     26  C   UNL     1      -3.673  12.903  22.394  0.00  0.00    +0.000 C 
ATOM     27  N   UNL     1      -3.067  11.952  23.193  0.00  0.00    +0.000 N 
ATOM     28  H   UNL     1      -3.586  11.126  23.463  0.00  0.00    +0.000 HD
BRANCH  26  29
ATOM     29  C   UNL     1      -5.144  12.761  22.236  0.00  0.00    +0.000 A 
ATOM     30  C   UNL     1      -5.978  13.008  23.333  0.00  0.00    +0.000 A 
ATOM     31  C   UNL     1      -7.359  12.856  23.201  0.00  0.00    +0.000 A 
ATOM     32  C   UNL     1      -7.904  12.454  21.982  0.00  0.00    +0.000 A 
ATOM     33  C   UNL     1      -7.075  12.202  20.889  0.00  0.00    +0.000 A 
ATOM     34  C   UNL     1      -5.695  12.354  21.017  0.00  0.00    +0.000 A 
ENDBRANCH  26  29
ENDBRANCH  24  27
ENDBRANCH  23  24
ENDBRANCH   1  23
TORSDOF 6
ENDMDL
MODEL 5
REMARK VINA RESULT:      -8.8      1.371      2.268
REMARK  Name = 
REMARK  6 active torsions:
REMARK  status: ('A' for Active; 'I' for Inactive)
REMARK    1  A    between atoms: C_2  and  C_28
REMARK    2  A    between atoms: N_3  and  C_4
REMARK    3  A    between atoms: C_4  and  C_5
REMARK    4  A    between atoms: C_5  and  C_6
REMARK    5  A    between atoms: C_9  and  C_10
REMARK    6  A    between atoms: C_15  and  C_16
REMARK                            x       y       z     vdW  Elec       q    Type
REMARK                         _______ _______ _______ _____ _____    ______ ____
ROOT
ATOM      1  C   UNL     1      -0.167  11.489  21.621  0.00  0.00    +0.000 A 
ATOM      2  C   UNL     1      -0.661  10.535  22.488  0.00  0.00    +0.000 A 
ATOM      3  S   UNL     1      -0.156   8.979  22.008  0.00  0.00    +0.000 S 
ATOM      4  C   UNL     1       0.721   9.670  20.692  0.00  0.00    +0.000 A 
ATOM      5  N   UNL     1       0.628  10.982  20.603  0.00  0.00    +0.000 NA
ENDROOT
BRANCH   4   6
ATOM      6  C   UNL     1       1.471   8.818  19.753  0.00  0.00    +0.000 A 
ATOM      7  C   UNL     1       2.081   9.330  18.604  0.00  0.00    +0.000 A 
ATOM      8  C   UNL     1       2.770   8.488  17.735  0.00  0.00    +0.000 A 
ATOM      9  C   UNL     1       2.836   7.120  17.995  0.00  0.00    +0.000 A 
ATOM     10  F   UNL     1       3.494   6.358  17.111  0.00  0.00    +0.000 F 
ATOM     11  C   UNL     1       2.224   6.544  19.118  0.00  0.00    +0.000 A 
ATOM     12  C   UNL     1       1.552   7.430  19.991  0.00  0.00    +0.000 A 
BRANCH  11  13
ATOM     13  C   UNL     1       2.233   5.023  19.341  0.00  0.00    +0.000 C 
ATOM     14  C   UNL     1       1.705   4.242  18.100  0.00  0.00    +0.000 C 
ATOM     15  C   UNL     1       1.695   2.722  18.365  0.00  0.00    +0.000 C 
ATOM     16  C   UNL     1       3.121   2.242  18.673  0.00  0.00    +0.000 C 
ATOM     17  C   UNL     1       3.654   2.962  19.917  0.00  0.00    +0.000 C 
ATOM     18  C   UNL     1       2.748   2.680  21.123  0.00  0.00    +0.000 C 
ATOM     19  C   UNL     1       1.317   3.148  20.820  0.00  0.00    +0.000 C 
ATOM     20  C   UNL     1       0.795   2.415  19.574  0.00  0.00    +0.000 C 
ATOM     21  C   UNL     1       1.323   4.663  20.554  0.00  0.00    +0.000 C 
ATOM     22  C   UNL     1       3.661   4.473  19.651  0.00  0.00    +0.000 C 
ENDBRANCH  11  13
ENDBRANCH   4   6
BRANCH   1  23
ATOM     23  C   UNL     1      -0.406  12.960  21.711  0.00  0.00    +0.000 C 
BRANCH  23  24
ATOM     24  C   UNL     1      -0.997  13.555  20.434  0.00  0.00    +0.000 C 
BRANCH  24  27
ATOM     25  O   UNL     1      -3.688  14.226  20.972  0.00  0.00    +0.000 OA
ATOM     26  C   UNL     1      -3.441  13.229  20.308  0.00  0.00    +0.000 C 
ATOM     27  N   UNL     1      -2.162  12.815  19.988  0.00  0.00    +0.000 N 
ATOM     28  H   UNL     1      -2.032  12.111  19.272  0.00  0.00    +0.000 HD
BRANCH  26  29
ATOM     29  C   UNL     1      -4.539  12.389  19.764  0.00  0.00    +0.000 A 
ATOM     30  C   UNL     1      -5.702  12.207  20.521  0.00  0.00    +0.000 A 
ATOM     31  C   UNL     1      -6.730  11.402  20.029  0.00  0.00    +0.000 A 
ATOM     32  C   UNL     1      -6.596  10.777  18.789  0.00  0.00    +0.000 A 
ATOM     33  C   UNL     1      -5.436  10.953  18.035  0.00  0.00    +0.000 A 
ATOM     34  C   UNL     1      -4.407  11.757  18.523  0.00  0.00    +0.000 A 
ENDBRANCH  26  29
ENDBRANCH  24  27
ENDBRANCH  23  24
ENDBRANCH   1  23
TORSDOF 6
ENDMDL
MODEL 6
REMARK VINA RESULT:      -8.7      2.785      3.647
REMARK  Name = 
REMARK  6 active torsions:
REMARK  status: ('A' for Active; 'I' for Inactive)
REMARK    1  A    between atoms: C_2  and  C_28
REMARK    2  A    between atoms: N_3  and  C_4
REMARK    3  A    between atoms: C_4  and  C_5
REMARK    4  A    between atoms: C_5  and  C_6
REMARK    5  A    between atoms: C_9  and  C_10
REMARK    6  A    between atoms: C_15  and  C_16
REMARK                            x       y       z     vdW  Elec       q    Type
REMARK                         _______ _______ _______ _____ _____    ______ ____
ROOT
ATOM      1  C   UNL     1      -0.291  10.736  21.394  0.00  0.00    +0.000 A 
ATOM      2  C   UNL     1      -0.345  11.733  20.441  0.00  0.00    +0.000 A 
ATOM      3  S   UNL     1       0.535  11.275  19.054  0.00  0.00    +0.000 S 
ATOM      4  C   UNL     1       0.908   9.760  19.792  0.00  0.00    +0.000 A 
ATOM      5  N   UNL     1       0.421   9.610  21.008  0.00  0.00    +0.000 NA
ENDROOT
BRANCH   4   6
ATOM      6  C   UNL     1       1.733   8.761  19.092  0.00  0.00    +0.000 A 
ATOM      7  C   UNL     1       2.528   9.088  17.989  0.00  0.00    +0.000 A 
ATOM      8  C   UNL     1       3.283   8.111  17.347  0.00  0.00    +0.000 A 
ATOM      9  C   UNL     1       3.234   6.789  17.789  0.00  0.00    +0.000 A 
ATOM     10  F   UNL     1       3.966   5.890  17.116  0.00  0.00    +0.000 F 
ATOM     11  C   UNL     1       2.438   6.395  18.874  0.00  0.00    +0.000 A 
ATOM     12  C   UNL     1       1.702   7.415  19.517  0.00  0.00    +0.000 A 
BRANCH  11  13
ATOM     13  C   UNL     1       2.329   4.918  19.289  0.00  0.00    +0.000 C 
ATOM     14  C   UNL     1       3.707   4.315  19.692  0.00  0.00    +0.000 C 
ATOM     15  C   UNL     1       3.571   2.826  20.073  0.00  0.00    +0.000 C 
ATOM     16  C   UNL     1       2.609   2.683  21.261  0.00  0.00    +0.000 C 
ATOM     17  C   UNL     1       1.229   3.230  20.881  0.00  0.00    +0.000 C 
ATOM     18  C   UNL     1       0.668   2.465  19.675  0.00  0.00    +0.000 C 
ATOM     19  C   UNL     1       1.628   2.594  18.484  0.00  0.00    +0.000 C 
ATOM     20  C   UNL     1       3.006   2.038  18.878  0.00  0.00    +0.000 C 
ATOM     21  C   UNL     1       1.768   4.078  18.102  0.00  0.00    +0.000 C 
ATOM     22  C   UNL     1       1.369   4.710  20.503  0.00  0.00    +0.000 C 
ENDBRANCH  11  13
ENDBRANCH   4   6
BRANCH   1  23
ATOM     23  C   UNL     1      -0.932  10.780  22.742  0.00  0.00    +0.000 C 
BRANCH  23  24
ATOM     24  C   UNL     1      -1.550  12.138  23.073  0.00  0.00    +0.000 C 
BRANCH  24  27
ATOM     25  O   UNL     1      -3.565  13.405  24.594  0.00  0.00    +0.000 OA
ATOM     26  C   UNL     1      -3.870  12.827  23.559  0.00  0.00    +0.000 C 
ATOM     27  N   UNL     1      -2.962  12.179  22.744  0.00  0.00    +0.000 N 
ATOM     28  H   UNL     1      -3.240  11.904  21.810  0.00  0.00    +0.000 HD
BRANCH  26  29
ATOM     29  C   UNL     1      -5.279  12.809  23.087  0.00  0.00    +0.000 A 
ATOM     30  C   UNL     1      -5.541  12.701  21.716  0.00  0.00    +0.000 A 
ATOM     31  C   UNL     1      -6.860  12.705  21.261  0.00  0.00    +0.000 A 
ATOM     32  C   UNL     1      -7.912  12.824  22.169  0.00  0.00    +0.000 A 
ATOM     33  C   UNL     1      -7.654  12.937  23.534  0.00  0.00    +0.000 A 
ATOM     34  C   UNL     1      -6.337  12.933  23.993  0.00  0.00    +0.000 A 
ENDBRANCH  26  29
ENDBRANCH  24  27
ENDBRANCH  23  24
ENDBRANCH   1  23
TORSDOF 6
ENDMDL
MODEL 7
REMARK VINA RESULT:      -8.6      2.292      3.644
REMARK  Name = 
REMARK  6 active torsions:
REMARK  status: ('A' for Active; 'I' for Inactive)
REMARK    1  A    between atoms: C_2  and  C_28
REMARK    2  A    between atoms: N_3  and  C_4
REMARK    3  A    between atoms: C_4  and  C_5
REMARK    4  A    between atoms: C_5  and  C_6
REMARK    5  A    between atoms: C_9  and  C_10
REMARK    6  A    between atoms: C_15  and  C_16
REMARK                            x       y       z     vdW  Elec       q    Type
REMARK                         _______ _______ _______ _____ _____    ______ ____
ROOT
ATOM      1  C   UNL     1      -0.596  11.345  22.023  0.00  0.00    +0.000 A 
ATOM      2  C   UNL     1      -0.782  10.344  22.955  0.00  0.00    +0.000 A 
ATOM      3  S   UNL     1      -0.060   8.894  22.420  0.00  0.00    +0.000 S 
ATOM      4  C   UNL     1       0.489   9.695  20.993  0.00  0.00    +0.000 A 
ATOM      5  N   UNL     1       0.139  10.963  20.910  0.00  0.00    +0.000 NA
ENDROOT
BRANCH   4   6
ATOM      6  C   UNL     1       1.256   8.969  19.966  0.00  0.00    +0.000 A 
ATOM      7  C   UNL     1       1.766   9.601  18.828  0.00  0.00    +0.000 A 
ATOM      8  C   UNL     1       2.474   8.875  17.875  0.00  0.00    +0.000 A 
ATOM      9  C   UNL     1       2.661   7.503  18.040  0.00  0.00    +0.000 A 
ATOM     10  F   UNL     1       3.332   6.855  17.077  0.00  0.00    +0.000 F 
ATOM     11  C   UNL     1       2.153   6.809  19.147  0.00  0.00    +0.000 A 
ATOM     12  C   UNL     1       1.458   7.579  20.107  0.00  0.00    +0.000 A 
BRANCH  11  13
ATOM     13  C   UNL     1       2.293   5.282  19.266  0.00  0.00    +0.000 C 
ATOM     14  C   UNL     1       1.824   4.545  17.976  0.00  0.00    +0.000 C 
ATOM     15  C   UNL     1       1.946   3.015  18.138  0.00  0.00    +0.000 C 
ATOM     16  C   UNL     1       3.409   2.639  18.411  0.00  0.00    +0.000 C 
ATOM     17  C   UNL     1       3.887   3.317  19.699  0.00  0.00    +0.000 C 
ATOM     18  C   UNL     1       3.018   2.877  20.885  0.00  0.00    +0.000 C 
ATOM     19  C   UNL     1       1.550   3.241  20.617  0.00  0.00    +0.000 C 
ATOM     20  C   UNL     1       1.084   2.551  19.324  0.00  0.00    +0.000 C 
ATOM     21  C   UNL     1       1.425   4.765  20.454  0.00  0.00    +0.000 C 
ATOM     22  C   UNL     1       3.765   4.837  19.536  0.00  0.00    +0.000 C 
ENDBRANCH  11  13
ENDBRANCH   4   6
BRANCH   1  23
ATOM     23  C   UNL     1      -1.095  12.748  22.136  0.00  0.00    +0.000 C 
BRANCH  23  24
ATOM     24  C   UNL     1      -1.360  13.405  20.782  0.00  0.00    +0.000 C 
BRANCH  24  27
ATOM     25  O   UNL     1      -0.256  13.086  18.201  0.00  0.00    +0.000 OA
ATOM     26  C   UNL     1       0.279  13.852  18.991  0.00  0.00    +0.000 C 
ATOM     27  N   UNL     1      -0.181  14.080  20.274  0.00  0.00    +0.000 N 
ATOM     28  H   UNL     1       0.177  14.869  20.798  0.00  0.00    +0.000 HD
BRANCH  26  29
ATOM     29  C   UNL     1       1.482  14.630  18.596  0.00  0.00    +0.000 A 
ATOM     30  C   UNL     1       1.417  16.028  18.575  0.00  0.00    +0.000 A 
ATOM     31  C   UNL     1       2.534  16.767  18.185  0.00  0.00    +0.000 A 
ATOM     32  C   UNL     1       3.709  16.115  17.812  0.00  0.00    +0.000 A 
ATOM     33  C   UNL     1       3.775  14.722  17.827  0.00  0.00    +0.000 A 
ATOM     34  C   UNL     1       2.661  13.980  18.217  0.00  0.00    +0.000 A 
ENDBRANCH  26  29
ENDBRANCH  24  27
ENDBRANCH  23  24
ENDBRANCH   1  23
TORSDOF 6
ENDMDL
MODEL 8
REMARK VINA RESULT:      -8.6      1.659      2.568
REMARK  Name = 
REMARK  6 active torsions:
REMARK  status: ('A' for Active; 'I' for Inactive)
REMARK    1  A    between atoms: C_2  and  C_28
REMARK    2  A    between atoms: N_3  and  C_4
REMARK    3  A    between atoms: C_4  and  C_5
REMARK    4  A    between atoms: C_5  and  C_6
REMARK    5  A    between atoms: C_9  and  C_10
REMARK    6  A    between atoms: C_15  and  C_16
REMARK                            x       y       z     vdW  Elec       q    Type
REMARK                         _______ _______ _______ _____ _____    ______ ____
ROOT
ATOM      1  C   UNL     1      -0.410  11.481  21.487  0.00  0.00    +0.000 A 
ATOM      2  C   UNL     1      -0.683  10.583  22.499  0.00  0.00    +0.000 A 
ATOM      3  S   UNL     1      -0.012   9.058  22.135  0.00  0.00    +0.000 S 
ATOM      4  C   UNL     1       0.633   9.694  20.666  0.00  0.00    +0.000 A 
ATOM      5  N   UNL     1       0.349  10.963  20.449  0.00  0.00    +0.000 NA
ENDROOT
BRANCH   4   6
ATOM      6  C   UNL     1       1.404   8.838  19.747  0.00  0.00    +0.000 A 
ATOM      7  C   UNL     1       2.038   9.346  18.608  0.00  0.00    +0.000 A 
ATOM      8  C   UNL     1       2.746   8.502  17.759  0.00  0.00    +0.000 A 
ATOM      9  C   UNL     1       2.810   7.135  18.027  0.00  0.00    +0.000 A 
ATOM     10  F   UNL     1       3.488   6.370  17.160  0.00  0.00    +0.000 F 
ATOM     11  C   UNL     1       2.175   6.563  19.140  0.00  0.00    +0.000 A 
ATOM     12  C   UNL     1       1.484   7.451  19.994  0.00  0.00    +0.000 A 
BRANCH  11  13
ATOM     13  C   UNL     1       2.182   5.043  19.369  0.00  0.00    +0.000 C 
ATOM     14  C   UNL     1       1.255   4.620  20.548  0.00  0.00    +0.000 C 
ATOM     15  C   UNL     1       1.308   3.094  20.774  0.00  0.00    +0.000 C 
ATOM     16  C   UNL     1       0.845   2.367  19.504  0.00  0.00    +0.000 C 
ATOM     17  C   UNL     1       1.765   2.730  18.334  0.00  0.00    +0.000 C 
ATOM     18  C   UNL     1       3.212   2.331  18.652  0.00  0.00    +0.000 C 
ATOM     19  C   UNL     1       3.681   3.046  19.927  0.00  0.00    +0.000 C 
ATOM     20  C   UNL     1       2.752   2.670  21.092  0.00  0.00    +0.000 C 
ATOM     21  C   UNL     1       3.628   4.568  19.705  0.00  0.00    +0.000 C 
ATOM     22  C   UNL     1       1.711   4.247  18.111  0.00  0.00    +0.000 C 
ENDBRANCH  11  13
ENDBRANCH   4   6
BRANCH   1  23
ATOM     23  C   UNL     1      -0.844  12.910  21.446  0.00  0.00    +0.000 C 
BRANCH  23  24
ATOM     24  C   UNL     1      -2.278  13.119  21.928  0.00  0.00    +0.000 C 
BRANCH  24  27
ATOM     25  O   UNL     1      -5.001  12.433  22.237  0.00  0.00    +0.000 OA
ATOM     26  C   UNL     1      -4.550  12.605  21.113  0.00  0.00    +0.000 C 
ATOM     27  N   UNL     1      -3.236  12.944  20.854  0.00  0.00    +0.000 N 
ATOM     28  H   UNL     1      -2.980  13.272  19.931  0.00  0.00    +0.000 HD
BRANCH  26  29
ATOM     29  C   UNL     1      -5.426  12.483  19.917  0.00  0.00    +0.000 A 
ATOM     30  C   UNL     1      -4.914  11.907  18.749  0.00  0.00    +0.000 A 
ATOM     31  C   UNL     1      -5.720  11.807  17.615  0.00  0.00    +0.000 A 
ATOM     32  C   UNL     1      -7.030  12.285  17.645  0.00  0.00    +0.000 A 
ATOM     33  C   UNL     1      -7.541  12.864  18.806  0.00  0.00    +0.000 A 
ATOM     34  C   UNL     1      -6.739  12.965  19.942  0.00  0.00    +0.000 A 
ENDBRANCH  26  29
ENDBRANCH  24  27
ENDBRANCH  23  24
ENDBRANCH   1  23
TORSDOF 6
ENDMDL
MODEL 9
REMARK VINA RESULT:      -8.5      2.420      3.331
REMARK  Name = 
REMARK  6 active torsions:
REMARK  status: ('A' for Active; 'I' for Inactive)
REMARK    1  A    between atoms: C_2  and  C_28
REMARK    2  A    between atoms: N_3  and  C_4
REMARK    3  A    between atoms: C_4  and  C_5
REMARK    4  A    between atoms: C_5  and  C_6
REMARK    5  A    between atoms: C_9  and  C_10
REMARK    6  A    between atoms: C_15  and  C_16
REMARK                            x       y       z     vdW  Elec       q    Type
REMARK                         _______ _______ _______ _____ _____    ______ ____
ROOT
ATOM      1  C   UNL     1      -0.872  11.300  21.908  0.00  0.00    +0.000 A 
ATOM      2  C   UNL     1      -0.683  10.503  23.020  0.00  0.00    +0.000 A 
ATOM      3  S   UNL     1       0.294   9.162  22.628  0.00  0.00    +0.000 S 
ATOM      4  C   UNL     1       0.437   9.740  21.008  0.00  0.00    +0.000 A 
ATOM      5  N   UNL     1      -0.220  10.857  20.767  0.00  0.00    +0.000 NA
ENDROOT
BRANCH   4   6
ATOM      6  C   UNL     1       1.215   8.992  20.005  0.00  0.00    +0.000 A 
ATOM      7  C   UNL     1       1.751   9.604  18.868  0.00  0.00    +0.000 A 
ATOM      8  C   UNL     1       2.469   8.859  17.938  0.00  0.00    +0.000 A 
ATOM      9  C   UNL     1       2.642   7.488  18.124  0.00  0.00    +0.000 A 
ATOM     10  F   UNL     1       3.324   6.821  17.183  0.00  0.00    +0.000 F 
ATOM     11  C   UNL     1       2.109   6.814  19.233  0.00  0.00    +0.000 A 
ATOM     12  C   UNL     1       1.404   7.604  20.169  0.00  0.00    +0.000 A 
BRANCH  11  13
ATOM     13  C   UNL     1       2.233   5.288  19.376  0.00  0.00    +0.000 C 
ATOM     14  C   UNL     1       3.701   4.837  19.637  0.00  0.00    +0.000 C 
ATOM     15  C   UNL     1       3.799   3.301  19.743  0.00  0.00    +0.000 C 
ATOM     16  C   UNL     1       2.923   2.807  20.904  0.00  0.00    +0.000 C 
ATOM     17  C   UNL     1       1.463   3.199  20.654  0.00  0.00    +0.000 C 
ATOM     18  C   UNL     1       0.964   2.583  19.340  0.00  0.00    +0.000 C 
ATOM     19  C   UNL     1       1.841   3.064  18.175  0.00  0.00    +0.000 C 
ATOM     20  C   UNL     1       3.301   2.661  18.436  0.00  0.00    +0.000 C 
ATOM     21  C   UNL     1       1.747   4.596  18.066  0.00  0.00    +0.000 C 
ATOM     22  C   UNL     1       1.369   4.726  20.548  0.00  0.00    +0.000 C 
ENDBRANCH  11  13
ENDBRANCH   4   6
BRANCH   1  23
ATOM     23  C   UNL     1      -1.679  12.556  21.860  0.00  0.00    +0.000 C 
BRANCH  23  24
ATOM     24  C   UNL     1      -0.878  13.803  22.231  0.00  0.00    +0.000 C 
BRANCH  24  27
ATOM     25  O   UNL     1      -0.992  15.183  19.769  0.00  0.00    +0.000 OA
ATOM     26  C   UNL     1       0.072  14.705  20.140  0.00  0.00    +0.000 C 
ATOM     27  N   UNL     1       0.235  14.015  21.325  0.00  0.00    +0.000 N 
ATOM     28  H   UNL     1       1.169  13.829  21.669  0.00  0.00    +0.000 HD
BRANCH  26  29
ATOM     29  C   UNL     1       1.302  14.868  19.321  0.00  0.00    +0.000 A 
ATOM     30  C   UNL     1       1.621  16.131  18.808  0.00  0.00    +0.000 A 
ATOM     31  C   UNL     1       2.762  16.289  18.020  0.00  0.00    +0.000 A 
ATOM     32  C   UNL     1       3.577  15.193  17.742  0.00  0.00    +0.000 A 
ATOM     33  C   UNL     1       3.259  13.933  18.248  0.00  0.00    +0.000 A 
ATOM     34  C   UNL     1       2.120  13.770  19.036  0.00  0.00    +0.000 A 
ENDBRANCH  26  29
ENDBRANCH  24  27
ENDBRANCH  23  24
ENDBRANCH   1  23
TORSDOF 6
ENDMDL
