MODEL 1
REMARK VINA RESULT:      -8.6      0.000      0.000
REMARK  Name = 
REMARK  7 active torsions:
REMARK  status: ('A' for Active; 'I' for Inactive)
REMARK    1  A    between atoms: C_1  and  C_2
REMARK    2  A    between atoms: C_2  and  C_3
REMARK    3  A    between atoms: C_2  and  C_4
REMARK    4  A    between atoms: C_2  and  C_5
REMARK    5  A    between atoms: C_8  and  C_9
REMARK    6  A    between atoms: C_9  and  N_10
REMARK    7  A    between atoms: C_18  and  C_19
REMARK                            x       y       z     vdW  Elec       q    Type
REMARK                         _______ _______ _______ _____ _____    ______ ____
ROOT
ATOM      1  N   UNL     1       1.113   9.162  19.281  0.00  0.00    +0.000 N 
ATOM      2  C   UNL     1       1.069   9.709  20.590  0.00  0.00    +0.000 C 
ATOM      3  O   UNL     1       1.045  10.914  20.846  0.00  0.00    +0.000 OA
ATOM      4  C   UNL     1       1.129   8.685  21.718  0.00  0.00    +0.000 C 
ATOM      5  O   UNL     1       0.751   7.378  21.305  0.00  0.00    +0.000 OA
ATOM      6  C   UNL     1       1.604   7.008  20.290  0.00  0.00    +0.000 A 
ATOM      7  C   UNL     1       2.194   5.760  20.466  0.00  0.00    +0.000 A 
ATOM      8  C   UNL     1       3.264   5.397  19.670  0.00  0.00    +0.000 A 
ATOM      9  C   UNL     1       3.783   6.283  18.701  0.00  0.00    +0.000 A 
ATOM     10  C   UNL     1       3.054   7.522  18.441  0.00  0.00    +0.000 A 
ATOM     11  C   UNL     1       1.902   7.894  19.226  0.00  0.00    +0.000 A 
ENDROOT
BRANCH   9  12
ATOM     12  C   UNL     1       5.175   5.809  18.314  0.00  0.00    +0.000 C 
ATOM     13  C   UNL     1       5.858   5.517  17.204  0.00  0.00    +0.000 C 
ATOM     14  S   UNL     1       5.389   5.685  15.560  0.00  0.00    +0.000 S 
ATOM     15  C   UNL     1       6.837   4.889  14.962  0.00  0.00    +0.000 C 
ATOM     16  S   UNL     1       7.246   4.659  13.372  0.00  0.00    +0.000 S 
ATOM     17  N   UNL     1       7.605   4.467  16.009  0.00  0.00    +0.000 N 
ATOM     18  C   UNL     1       7.165   4.733  17.276  0.00  0.00    +0.000 C 
ATOM     19  O   UNL     1       7.721   4.375  18.305  0.00  0.00    +0.000 OA
ATOM     20  H   UNL     1       8.464   3.955  15.859  0.00  0.00    +0.000 HD
ENDBRANCH   9  12
BRANCH   1  21
ATOM     21  C   UNL     1       0.701  10.100  18.188  0.00  0.00    +0.000 C 
BRANCH  21  25
ATOM     22  C   UNL     1      -3.680  11.298  18.319  0.00  0.00    +0.000 A 
ATOM     23  C   UNL     1      -2.650  12.180  18.717  0.00  0.00    +0.000 A 
ATOM     24  C   UNL     1      -1.235  11.892  18.570  0.00  0.00    +0.000 A 
ATOM     25  C   UNL     1      -0.769  10.695  18.016  0.00  0.00    +0.000 A 
ATOM     26  C   UNL     1      -1.813   9.876  17.490  0.00  0.00    +0.000 A 
ATOM     27  C   UNL     1      -3.216  10.164  17.640  0.00  0.00    +0.000 A 
BRANCH  22  29
ATOM     28  C   UNL     1      -5.487  12.223  19.963  0.00  0.00    +0.000 C 
ATOM     29  C   UNL     1      -5.209  11.527  18.608  0.00  0.00    +0.000 C 
ATOM     30  C   UNL     1      -6.013  10.194  18.661  0.00  0.00    +0.000 C 
ATOM     31  C   UNL     1      -5.897  12.392  17.521  0.00  0.00    +0.000 C 
ENDBRANCH  22  29
ENDBRANCH  21  25
ENDBRANCH   1  21
TORSDOF 4
ENDMDL
MODEL 2
REMARK VINA RESULT:      -8.4      4.675      9.823
REMARK  Name = 
REMARK  7 active torsions:
REMARK  status: ('A' for Active; 'I' for Inactive)
REMARK    1  A    between atoms: C_1  and  C_2
REMARK    2  A    between atoms: C_2  and  C_3
REMARK    3  A    between atoms: C_2  and  C_4
REMARK    4  A    between atoms: C_2  and  C_5
REMARK    5  A    between atoms: C_8  and  C_9
REMARK    6  A    between atoms: C_9  and  N_10
REMARK    7  A    between atoms: C_18  and  C_19
REMARK                            x       y       z     vdW  Elec       q    Type
REMARK                         _______ _______ _______ _____ _____    ______ ____
ROOT
ATOM      1  N   UNL     1       6.421   5.826  17.258  0.00  0.00    +0.000 N 
ATOM      2  C   UNL     1       6.511   5.282  15.950  0.00  0.00    +0.000 C 
ATOM      3  O   UNL     1       7.409   5.537  15.145  0.00  0.00    +0.000 OA
ATOM      4  C   UNL     1       5.350   4.383  15.545  0.00  0.00    +0.000 C 
ATOM      5  O   UNL     1       4.632   3.865  16.658  0.00  0.00    +0.000 OA
ATOM      6  C   UNL     1       4.163   4.940  17.378  0.00  0.00    +0.000 A 
ATOM      7  C   UNL     1       2.805   4.882  17.674  0.00  0.00    +0.000 A 
ATOM      8  C   UNL     1       2.163   6.012  18.145  0.00  0.00    +0.000 A 
ATOM      9  C   UNL     1       2.859   7.229  18.304  0.00  0.00    +0.000 A 
ATOM     10  C   UNL     1       4.309   7.222  18.125  0.00  0.00    +0.000 A 
ATOM     11  C   UNL     1       5.005   6.037  17.685  0.00  0.00    +0.000 A 
ENDROOT
BRANCH   9  12
ATOM     12  C   UNL     1       1.841   8.355  18.399  0.00  0.00    +0.000 C 
ATOM     13  C   UNL     1       1.156   9.005  19.343  0.00  0.00    +0.000 C 
ATOM     14  S   UNL     1       1.254   8.864  21.053  0.00  0.00    +0.000 S 
ATOM     15  C   UNL     1      -0.110   9.940  21.318  0.00  0.00    +0.000 C 
ATOM     16  S   UNL     1      -0.702  10.431  22.787  0.00  0.00    +0.000 S 
ATOM     17  N   UNL     1      -0.638  10.331  20.121  0.00  0.00    +0.000 N 
ATOM     18  C   UNL     1      -0.047   9.869  18.978  0.00  0.00    +0.000 C 
ATOM     19  O   UNL     1      -0.439  10.095  17.841  0.00  0.00    +0.000 OA
ATOM     20  H   UNL     1      -1.454  10.926  20.076  0.00  0.00    +0.000 HD
ENDBRANCH   9  12
BRANCH   1  21
ATOM     21  C   UNL     1       7.696   6.405  17.793  0.00  0.00    +0.000 C 
BRANCH  21  25
ATOM     22  C   UNL     1       9.067  10.693  18.402  0.00  0.00    +0.000 A 
ATOM     23  C   UNL     1       8.071  10.353  17.459  0.00  0.00    +0.000 A 
ATOM     24  C   UNL     1       7.508   9.022  17.321  0.00  0.00    +0.000 A 
ATOM     25  C   UNL     1       7.917   7.949  18.122  0.00  0.00    +0.000 A 
ATOM     26  C   UNL     1       8.816   8.336  19.160  0.00  0.00    +0.000 A 
ATOM     27  C   UNL     1       9.375   9.657  19.293  0.00  0.00    +0.000 A 
BRANCH  22  29
ATOM     28  C   UNL     1      11.057  12.169  17.572  0.00  0.00    +0.000 C 
ATOM     29  C   UNL     1       9.794  12.087  18.465  0.00  0.00    +0.000 C 
ATOM     30  C   UNL     1      10.284  12.440  19.900  0.00  0.00    +0.000 C 
ATOM     31  C   UNL     1       8.875  13.257  18.032  0.00  0.00    +0.000 C 
ENDBRANCH  22  29
ENDBRANCH  21  25
ENDBRANCH   1  21
TORSDOF 4
ENDMDL
MODEL 3
REMARK VINA RESULT:      -8.0      4.856      8.796
REMARK  Name = 
REMARK  7 active torsions:
REMARK  status: ('A' for Active; 'I' for Inactive)
REMARK    1  A    between atoms: C_1  and  C_2
REMARK    2  A    between atoms: C_2  and  C_3
REMARK    3  A    between atoms: C_2  and  C_4
REMARK    4  A    between atoms: C_2  and  C_5
REMARK    5  A    between atoms: C_8  and  C_9
REMARK    6  A    between atoms: C_9  and  N_10
REMARK    7  A    between atoms: C_18  and  C_19
REMARK                            x       y       z     vdW  Elec       q    Type
REMARK                         _______ _______ _______ _____ _____    ______ ____
ROOT
ATOM      1  N   UNL     1       0.886  10.367  18.769  0.00  0.00    +0.000 N 
ATOM      2  C   UNL     1      -0.487  10.340  18.413  0.00  0.00    +0.000 C 
ATOM      3  O   UNL     1      -0.933   9.844  17.377  0.00  0.00    +0.000 OA
ATOM      4  C   UNL     1      -1.418  11.054  19.386  0.00  0.00    +0.000 C 
ATOM      5  O   UNL     1      -0.856  11.211  20.682  0.00  0.00    +0.000 OA
ATOM      6  C   UNL     1       0.309  11.928  20.537  0.00  0.00    +0.000 A 
ATOM      7  C   UNL     1       0.415  13.024  21.389  0.00  0.00    +0.000 A 
ATOM      8  C   UNL     1       1.395  13.972  21.157  0.00  0.00    +0.000 A 
ATOM      9  C   UNL     1       2.269  13.858  20.055  0.00  0.00    +0.000 A 
ATOM     10  C   UNL     1       2.229  12.628  19.268  0.00  0.00    +0.000 A 
ATOM     11  C   UNL     1       1.248  11.602  19.528  0.00  0.00    +0.000 A 
ENDROOT
BRANCH   9  12
ATOM     12  C   UNL     1       2.909  15.215  19.809  0.00  0.00    +0.000 C 
ATOM     13  C   UNL     1       4.089  15.708  19.422  0.00  0.00    +0.000 C 
ATOM     14  S   UNL     1       5.494  14.877  18.886  0.00  0.00    +0.000 S 
ATOM     15  C   UNL     1       6.458  16.345  18.823  0.00  0.00    +0.000 C 
ATOM     16  S   UNL     1       8.033  16.465  18.320  0.00  0.00    +0.000 S 
ATOM     17  N   UNL     1       5.721  17.408  19.259  0.00  0.00    +0.000 N 
ATOM     18  C   UNL     1       4.425  17.182  19.632  0.00  0.00    +0.000 C 
ATOM     19  O   UNL     1       3.665  18.024  20.087  0.00  0.00    +0.000 OA
ATOM     20  H   UNL     1       6.122  18.334  19.327  0.00  0.00    +0.000 HD
ENDBRANCH   9  12
BRANCH   1  21
ATOM     21  C   UNL     1       1.751   9.388  18.035  0.00  0.00    +0.000 C 
BRANCH  21  25
ATOM     22  C   UNL     1       2.265   5.170  19.645  0.00  0.00    +0.000 A 
ATOM     23  C   UNL     1       2.745   5.549  18.371  0.00  0.00    +0.000 A 
ATOM     24  C   UNL     1       2.721   6.910  17.868  0.00  0.00    +0.000 A 
ATOM     25  C   UNL     1       2.210   7.976  18.618  0.00  0.00    +0.000 A 
ATOM     26  C   UNL     1       1.861   7.607  19.951  0.00  0.00    +0.000 A 
ATOM     27  C   UNL     1       1.882   6.254  20.445  0.00  0.00    +0.000 A 
BRANCH  22  29
ATOM     28  C   UNL     1       3.272   2.760  19.625  0.00  0.00    +0.000 C 
ATOM     29  C   UNL     1       2.143   3.684  20.145  0.00  0.00    +0.000 C 
ATOM     30  C   UNL     1       0.818   3.007  19.686  0.00  0.00    +0.000 C 
ATOM     31  C   UNL     1       2.162   3.572  21.690  0.00  0.00    +0.000 C 
ENDBRANCH  22  29
ENDBRANCH  21  25
ENDBRANCH   1  21
TORSDOF 4
ENDMDL
MODEL 4
REMARK VINA RESULT:      -7.8      1.109      1.550
REMARK  Name = 
REMARK  7 active torsions:
REMARK  status: ('A' for Active; 'I' for Inactive)
REMARK    1  A    between atoms: C_1  and  C_2
REMARK    2  A    between atoms: C_2  and  C_3
REMARK    3  A    between atoms: C_2  and  C_4
REMARK    4  A    between atoms: C_2  and  C_5
REMARK    5  A    between atoms: C_8  and  C_9
REMARK    6  A    between atoms: C_9  and  N_10
REMARK    7  A    between atoms: C_18  and  C_19
REMARK                            x       y       z     vdW  Elec       q    Type
REMARK                         _______ _______ _______ _____ _____    ______ ____
ROOT
ATOM      1  N   UNL     1       0.769   9.400  19.260  0.00  0.00    +0.000 N 
ATOM      2  C   UNL     1       0.914   9.877  20.589  0.00  0.00    +0.000 C 
ATOM      3  O   UNL     1       0.732  11.044  20.939  0.00  0.00    +0.000 OA
ATOM      4  C   UNL     1       1.400   8.840  21.595  0.00  0.00    +0.000 C 
ATOM      5  O   UNL     1       1.181   7.502  21.167  0.00  0.00    +0.000 OA
ATOM      6  C   UNL     1       1.844   7.342  19.971  0.00  0.00    +0.000 A 
ATOM      7  C   UNL     1       2.671   6.224  19.922  0.00  0.00    +0.000 A 
ATOM      8  C   UNL     1       3.589   6.104  18.895  0.00  0.00    +0.000 A 
ATOM      9  C   UNL     1       3.717   7.110  17.914  0.00  0.00    +0.000 A 
ATOM     10  C   UNL     1       2.740   8.196  17.909  0.00  0.00    +0.000 A 
ATOM     11  C   UNL     1       1.740   8.310  18.943  0.00  0.00    +0.000 A 
ENDROOT
BRANCH   9  12
ATOM     12  C   UNL     1       5.054   6.926  17.211  0.00  0.00    +0.000 C 
ATOM     13  C   UNL     1       5.563   6.210  16.205  0.00  0.00    +0.000 C 
ATOM     14  S   UNL     1       4.769   5.154  15.108  0.00  0.00    +0.000 S 
ATOM     15  C   UNL     1       6.274   4.622  14.375  0.00  0.00    +0.000 C 
ATOM     16  S   UNL     1       6.431   3.568  13.105  0.00  0.00    +0.000 S 
ATOM     17  N   UNL     1       7.335   5.205  15.009  0.00  0.00    +0.000 N 
ATOM     18  C   UNL     1       7.073   6.071  16.034  0.00  0.00    +0.000 C 
ATOM     19  O   UNL     1       7.918   6.627  16.720  0.00  0.00    +0.000 OA
ATOM     20  H   UNL     1       8.287   4.990  14.746  0.00  0.00    +0.000 HD
ENDBRANCH   9  12
BRANCH   1  21
ATOM     21  C   UNL     1      -0.032  10.284  18.353  0.00  0.00    +0.000 C 
BRANCH  21  25
ATOM     22  C   UNL     1      -4.369  11.640  18.363  0.00  0.00    +0.000 A 
ATOM     23  C   UNL     1      -3.896  10.650  17.472  0.00  0.00    +0.000 A 
ATOM     24  C   UNL     1      -2.556  10.092  17.518  0.00  0.00    +0.000 A 
ATOM     25  C   UNL     1      -1.608  10.499  18.464  0.00  0.00    +0.000 A 
ATOM     26  C   UNL     1      -2.140  11.392  19.443  0.00  0.00    +0.000 A 
ATOM     27  C   UNL     1      -3.468  11.945  19.392  0.00  0.00    +0.000 A 
BRANCH  22  29
ATOM     28  C   UNL     1      -6.963  11.462  18.608  0.00  0.00    +0.000 C 
ATOM     29  C   UNL     1      -5.760  12.362  18.234  0.00  0.00    +0.000 C 
ATOM     30  C   UNL     1      -6.048  12.847  16.782  0.00  0.00    +0.000 C 
ATOM     31  C   UNL     1      -5.861  13.624  19.129  0.00  0.00    +0.000 C 
ENDBRANCH  22  29
ENDBRANCH  21  25
ENDBRANCH   1  21
TORSDOF 4
ENDMDL
MODEL 5
REMARK VINA RESULT:      -7.6      4.220      9.473
REMARK  Name = 
REMARK  7 active torsions:
REMARK  status: ('A' for Active; 'I' for Inactive)
REMARK    1  A    between atoms: C_1  and  C_2
REMARK    2  A    between atoms: C_2  and  C_3
REMARK    3  A    between atoms: C_2  and  C_4
REMARK    4  A    between atoms: C_2  and  C_5
REMARK    5  A    between atoms: C_8  and  C_9
REMARK    6  A    between atoms: C_9  and  N_10
REMARK    7  A    between atoms: C_18  and  C_19
REMARK                            x       y       z     vdW  Elec       q    Type
REMARK                         _______ _______ _______ _____ _____    ______ ____
ROOT
ATOM      1  N   UNL     1       6.244   5.385  17.447  0.00  0.00    +0.000 N 
ATOM      2  C   UNL     1       6.042   5.103  16.071  0.00  0.00    +0.000 C 
ATOM      3  O   UNL     1       6.682   5.612  15.149  0.00  0.00    +0.000 OA
ATOM      4  C   UNL     1       4.890   4.150  15.771  0.00  0.00    +0.000 C 
ATOM      5  O   UNL     1       4.522   3.352  16.889  0.00  0.00    +0.000 OA
ATOM      6  C   UNL     1       4.169   4.210  17.905  0.00  0.00    +0.000 A 
ATOM      7  C   UNL     1       2.939   3.926  18.492  0.00  0.00    +0.000 A 
ATOM      8  C   UNL     1       2.351   4.861  19.323  0.00  0.00    +0.000 A 
ATOM      9  C   UNL     1       2.966   6.108  19.563  0.00  0.00    +0.000 A 
ATOM     10  C   UNL     1       4.318   6.319  19.053  0.00  0.00    +0.000 A 
ATOM     11  C   UNL     1       4.972   5.332  18.227  0.00  0.00    +0.000 A 
ENDROOT
BRANCH   9  12
ATOM     12  C   UNL     1       1.919   7.058  20.124  0.00  0.00    +0.000 C 
ATOM     13  C   UNL     1       1.448   8.283  19.877  0.00  0.00    +0.000 C 
ATOM     14  S   UNL     1       1.829   9.360  18.593  0.00  0.00    +0.000 S 
ATOM     15  C   UNL     1       0.874  10.668  19.275  0.00  0.00    +0.000 C 
ATOM     16  S   UNL     1       0.632  12.162  18.600  0.00  0.00    +0.000 S 
ATOM     17  N   UNL     1       0.343  10.285  20.473  0.00  0.00    +0.000 N 
ATOM     18  C   UNL     1       0.603   9.017  20.915  0.00  0.00    +0.000 C 
ATOM     19  O   UNL     1       0.237   8.555  21.986  0.00  0.00    +0.000 OA
ATOM     20  H   UNL     1      -0.210  10.922  21.031  0.00  0.00    +0.000 HD
ENDBRANCH   9  12
BRANCH   1  21
ATOM     21  C   UNL     1       7.563   6.015  17.778  0.00  0.00    +0.000 C 
BRANCH  21  25
ATOM     22  C   UNL     1       8.883  10.324  18.359  0.00  0.00    +0.000 A 
ATOM     23  C   UNL     1       7.877   9.968  17.432  0.00  0.00    +0.000 A 
ATOM     24  C   UNL     1       7.332   8.628  17.304  0.00  0.00    +0.000 A 
ATOM     25  C   UNL     1       7.767   7.563  18.101  0.00  0.00    +0.000 A 
ATOM     26  C   UNL     1       8.677   7.965  19.125  0.00  0.00    +0.000 A 
ATOM     27  C   UNL     1       9.218   9.294  19.247  0.00  0.00    +0.000 A 
BRANCH  22  29
ATOM     28  C   UNL     1      10.963  11.756  17.692  0.00  0.00    +0.000 C 
ATOM     29  C   UNL     1       9.590  11.728  18.408  0.00  0.00    +0.000 C 
ATOM     30  C   UNL     1       9.879  12.200  19.864  0.00  0.00    +0.000 C 
ATOM     31  C   UNL     1       8.736  12.848  17.762  0.00  0.00    +0.000 C 
ENDBRANCH  22  29
ENDBRANCH  21  25
ENDBRANCH   1  21
TORSDOF 4
ENDMDL
MODEL 6
REMARK VINA RESULT:      -7.6      7.242     10.949
REMARK  Name = 
REMARK  7 active torsions:
REMARK  status: ('A' for Active; 'I' for Inactive)
REMARK    1  A    between atoms: C_1  and  C_2
REMARK    2  A    between atoms: C_2  and  C_3
REMARK    3  A    between atoms: C_2  and  C_4
REMARK    4  A    between atoms: C_2  and  C_5
REMARK    5  A    between atoms: C_8  and  C_9
REMARK    6  A    between atoms: C_9  and  N_10
REMARK    7  A    between atoms: C_18  and  C_19
REMARK                            x       y       z     vdW  Elec       q    Type
REMARK                         _______ _______ _______ _____ _____    ______ ____
ROOT
ATOM      1  N   UNL     1       5.622  16.943  19.002  0.00  0.00    +0.000 N 
ATOM      2  C   UNL     1       5.682  17.425  20.336  0.00  0.00    +0.000 C 
ATOM      3  O   UNL     1       6.713  17.512  21.004  0.00  0.00    +0.000 OA
ATOM      4  C   UNL     1       4.334  17.778  20.954  0.00  0.00    +0.000 C 
ATOM      5  O   UNL     1       3.321  18.016  19.985  0.00  0.00    +0.000 OA
ATOM      6  C   UNL     1       3.205  16.873  19.227  0.00  0.00    +0.000 A 
ATOM      7  C   UNL     1       1.901  16.405  19.096  0.00  0.00    +0.000 A 
ATOM      8  C   UNL     1       1.683  15.133  18.599  0.00  0.00    +0.000 A 
ATOM      9  C   UNL     1       2.763  14.295  18.249  0.00  0.00    +0.000 A 
ATOM     10  C   UNL     1       4.108  14.865  18.259  0.00  0.00    +0.000 A 
ATOM     11  C   UNL     1       4.351  16.209  18.724  0.00  0.00    +0.000 A 
ENDROOT
BRANCH   9  12
ATOM     12  C   UNL     1       2.254  12.864  18.168  0.00  0.00    +0.000 C 
ATOM     13  C   UNL     1       1.659  11.970  18.962  0.00  0.00    +0.000 C 
ATOM     14  S   UNL     1       1.073  12.155  20.566  0.00  0.00    +0.000 S 
ATOM     15  C   UNL     1       0.689  10.448  20.728  0.00  0.00    +0.000 C 
ATOM     16  S   UNL     1      -0.018   9.720  22.039  0.00  0.00    +0.000 S 
ATOM     17  N   UNL     1       1.062   9.775  19.600  0.00  0.00    +0.000 N 
ATOM     18  C   UNL     1       1.620  10.493  18.579  0.00  0.00    +0.000 C 
ATOM     19  O   UNL     1       2.045  10.020  17.535  0.00  0.00    +0.000 OA
ATOM     20  H   UNL     1       0.950   8.773  19.525  0.00  0.00    +0.000 HD
ENDBRANCH   9  12
BRANCH   1  21
ATOM     21  C   UNL     1       6.930  16.934  18.272  0.00  0.00    +0.000 C 
BRANCH  21  25
ATOM     22  C   UNL     1       9.436  13.173  18.740  0.00  0.00    +0.000 A 
ATOM     23  C   UNL     1       8.320  13.226  17.874  0.00  0.00    +0.000 A 
ATOM     24  C   UNL     1       7.571  14.437  17.592  0.00  0.00    +0.000 A 
ATOM     25  C   UNL     1       7.897  15.671  18.168  0.00  0.00    +0.000 A 
ATOM     26  C   UNL     1       9.106  15.633  18.926  0.00  0.00    +0.000 A 
ATOM     27  C   UNL     1       9.845  14.429  19.206  0.00  0.00    +0.000 A 
BRANCH  22  29
ATOM     28  C   UNL     1       9.254  10.595  19.122  0.00  0.00    +0.000 C 
ATOM     29  C   UNL     1      10.163  11.848  19.173  0.00  0.00    +0.000 C 
ATOM     30  C   UNL     1      10.692  11.908  20.637  0.00  0.00    +0.000 C 
ATOM     31  C   UNL     1      11.397  11.530  18.291  0.00  0.00    +0.000 C 
ENDBRANCH  22  29
ENDBRANCH  21  25
ENDBRANCH   1  21
TORSDOF 4
ENDMDL
MODEL 7
REMARK VINA RESULT:      -7.6      4.666      9.774
REMARK  Name = 
REMARK  7 active torsions:
REMARK  status: ('A' for Active; 'I' for Inactive)
REMARK    1  A    between atoms: C_1  and  C_2
REMARK    2  A    between atoms: C_2  and  C_3
REMARK    3  A    between atoms: C_2  and  C_4
REMARK    4  A    between atoms: C_2  and  C_5
REMARK    5  A    between atoms: C_8  and  C_9
REMARK    6  A    between atoms: C_9  and  N_10
REMARK    7  A    between atoms: C_18  and  C_19
REMARK                            x       y       z     vdW  Elec       q    Type
REMARK                         _______ _______ _______ _____ _____    ______ ____
ROOT
ATOM      1  N   UNL     1       5.944   5.865  17.297  0.00  0.00    +0.000 N 
ATOM      2  C   UNL     1       5.785   4.681  16.531  0.00  0.00    +0.000 C 
ATOM      3  O   UNL     1       6.403   4.426  15.496  0.00  0.00    +0.000 OA
ATOM      4  C   UNL     1       4.709   3.727  17.037  0.00  0.00    +0.000 C 
ATOM      5  O   UNL     1       4.379   3.933  18.405  0.00  0.00    +0.000 OA
ATOM      6  C   UNL     1       3.949   5.234  18.530  0.00  0.00    +0.000 A 
ATOM      7  C   UNL     1       2.733   5.373  19.192  0.00  0.00    +0.000 A 
ATOM      8  C   UNL     1       2.067   6.583  19.142  0.00  0.00    +0.000 A 
ATOM      9  C   UNL     1       2.587   7.669  18.406  0.00  0.00    +0.000 A 
ATOM     10  C   UNL     1       3.930   7.540  17.845  0.00  0.00    +0.000 A 
ATOM     11  C   UNL     1       4.665   6.301  17.933  0.00  0.00    +0.000 A 
ENDROOT
BRANCH   9  12
ATOM     12  C   UNL     1       1.467   8.670  18.171  0.00  0.00    +0.000 C 
ATOM     13  C   UNL     1       0.759   9.560  18.872  0.00  0.00    +0.000 C 
ATOM     14  S   UNL     1       0.940  10.050  20.509  0.00  0.00    +0.000 S 
ATOM     15  C   UNL     1      -0.512  11.039  20.476  0.00  0.00    +0.000 C 
ATOM     16  S   UNL     1      -1.091  11.976  21.715  0.00  0.00    +0.000 S 
ATOM     17  N   UNL     1      -1.125  10.931  19.261  0.00  0.00    +0.000 N 
ATOM     18  C   UNL     1      -0.538  10.138  18.314  0.00  0.00    +0.000 C 
ATOM     19  O   UNL     1      -0.996   9.909  17.204  0.00  0.00    +0.000 OA
ATOM     20  H   UNL     1      -1.997  11.404  19.068  0.00  0.00    +0.000 HD
ENDBRANCH   9  12
BRANCH   1  21
ATOM     21  C   UNL     1       7.209   6.625  17.034  0.00  0.00    +0.000 C 
BRANCH  21  25
ATOM     22  C   UNL     1       8.990  10.505  18.587  0.00  0.00    +0.000 A 
ATOM     23  C   UNL     1       7.929  10.490  17.653  0.00  0.00    +0.000 A 
ATOM     24  C   UNL     1       7.242   9.283  17.229  0.00  0.00    +0.000 A 
ATOM     25  C   UNL     1       7.583   8.016  17.717  0.00  0.00    +0.000 A 
ATOM     26  C   UNL     1       8.556   8.061  18.760  0.00  0.00    +0.000 A 
ATOM     27  C   UNL     1       9.238   9.259  19.176  0.00  0.00    +0.000 A 
BRANCH  22  29
ATOM     28  C   UNL     1       9.408  12.469  20.259  0.00  0.00    +0.000 C 
ATOM     29  C   UNL     1       9.843  11.778  18.943  0.00  0.00    +0.000 C 
ATOM     30  C   UNL     1       9.749  12.884  17.851  0.00  0.00    +0.000 C 
ATOM     31  C   UNL     1      11.353  11.460  19.093  0.00  0.00    +0.000 C 
ENDBRANCH  22  29
ENDBRANCH  21  25
ENDBRANCH   1  21
TORSDOF 4
ENDMDL
MODEL 8
REMARK VINA RESULT:      -7.6      6.893     10.608
REMARK  Name = 
REMARK  7 active torsions:
REMARK  status: ('A' for Active; 'I' for Inactive)
REMARK    1  A    between atoms: C_1  and  C_2
REMARK    2  A    between atoms: C_2  and  C_3
REMARK    3  A    between atoms: C_2  and  C_4
REMARK    4  A    between atoms: C_2  and  C_5
REMARK    5  A    between atoms: C_8  and  C_9
REMARK    6  A    between atoms: C_9  and  N_10
REMARK    7  A    between atoms: C_18  and  C_19
REMARK                            x       y       z     vdW  Elec       q    Type
REMARK                         _______ _______ _______ _____ _____    ______ ____
ROOT
ATOM      1  N   UNL     1       5.288  16.750  19.295  0.00  0.00    +0.000 N 
ATOM      2  C   UNL     1       5.259  17.206  20.639  0.00  0.00    +0.000 C 
ATOM      3  O   UNL     1       6.249  17.315  21.364  0.00  0.00    +0.000 OA
ATOM      4  C   UNL     1       3.868  17.499  21.189  0.00  0.00    +0.000 C 
ATOM      5  O   UNL     1       2.901  17.722  20.171  0.00  0.00    +0.000 OA
ATOM      6  C   UNL     1       2.867  16.592  19.386  0.00  0.00    +0.000 A 
ATOM      7  C   UNL     1       1.589  16.082  19.175  0.00  0.00    +0.000 A 
ATOM      8  C   UNL     1       1.444  14.814  18.643  0.00  0.00    +0.000 A 
ATOM      9  C   UNL     1       2.571  14.022  18.336  0.00  0.00    +0.000 A 
ATOM     10  C   UNL     1       3.892  14.637  18.431  0.00  0.00    +0.000 A 
ATOM     11  C   UNL     1       4.061  15.979  18.934  0.00  0.00    +0.000 A 
ENDROOT
BRANCH   9  12
ATOM     12  C   UNL     1       2.117  12.576  18.201  0.00  0.00    +0.000 C 
ATOM     13  C   UNL     1       1.543  11.635  18.954  0.00  0.00    +0.000 C 
ATOM     14  S   UNL     1       0.922  11.745  20.552  0.00  0.00    +0.000 S 
ATOM     15  C   UNL     1       0.600  10.021  20.652  0.00  0.00    +0.000 C 
ATOM     16  S   UNL     1      -0.101   9.225  21.926  0.00  0.00    +0.000 S 
ATOM     17  N   UNL     1       1.019   9.399  19.511  0.00  0.00    +0.000 N 
ATOM     18  C   UNL     1       1.568  10.170  18.524  0.00  0.00    +0.000 C 
ATOM     19  O   UNL     1       2.029   9.748  17.474  0.00  0.00    +0.000 OA
ATOM     20  H   UNL     1       0.947   8.397  19.402  0.00  0.00    +0.000 HD
ENDBRANCH   9  12
BRANCH   1  21
ATOM     21  C   UNL     1       6.633  16.802  18.637  0.00  0.00    +0.000 C 
BRANCH  21  25
ATOM     22  C   UNL     1       9.033  12.951  18.866  0.00  0.00    +0.000 A 
ATOM     23  C   UNL     1       8.105  13.194  17.827  0.00  0.00    +0.000 A 
ATOM     24  C   UNL     1       7.414  14.457  17.639  0.00  0.00    +0.000 A 
ATOM     25  C   UNL     1       7.613  15.553  18.486  0.00  0.00    +0.000 A 
ATOM     26  C   UNL     1       8.653  15.342  19.441  0.00  0.00    +0.000 A 
ATOM     27  C   UNL     1       9.334  14.087  19.627  0.00  0.00    +0.000 A 
BRANCH  22  29
ATOM     28  C   UNL     1      11.197  11.488  18.902  0.00  0.00    +0.000 C 
ATOM     29  C   UNL     1       9.674  11.548  19.175  0.00  0.00    +0.000 C 
ATOM     30  C   UNL     1       9.060  10.408  18.311  0.00  0.00    +0.000 C 
ATOM     31  C   UNL     1       9.475  11.115  20.650  0.00  0.00    +0.000 C 
ENDBRANCH  22  29
ENDBRANCH  21  25
ENDBRANCH   1  21
TORSDOF 4
ENDMDL
MODEL 9
REMARK VINA RESULT:      -7.6      3.977      9.365
REMARK  Name = 
REMARK  7 active torsions:
REMARK  status: ('A' for Active; 'I' for Inactive)
REMARK    1  A    between atoms: C_1  and  C_2
REMARK    2  A    between atoms: C_2  and  C_3
REMARK    3  A    between atoms: C_2  and  C_4
REMARK    4  A    between atoms: C_2  and  C_5
REMARK    5  A    between atoms: C_8  and  C_9
REMARK    6  A    between atoms: C_9  and  N_10
REMARK    7  A    between atoms: C_18  and  C_19
REMARK                            x       y       z     vdW  Elec       q    Type
REMARK                         _______ _______ _______ _____ _____    ______ ____
ROOT
ATOM      1  N   UNL     1       5.836   4.858  17.477  0.00  0.00    +0.000 N 
ATOM      2  C   UNL     1       5.434   4.373  16.205  0.00  0.00    +0.000 C 
ATOM      3  O   UNL     1       5.923   4.731  15.132  0.00  0.00    +0.000 OA
ATOM      4  C   UNL     1       4.264   3.397  16.229  0.00  0.00    +0.000 C 
ATOM      5  O   UNL     1       4.079   2.780  17.496  0.00  0.00    +0.000 OA
ATOM      6  C   UNL     1       3.869   3.785  18.413  0.00  0.00    +0.000 A 
ATOM      7  C   UNL     1       2.745   3.604  19.213  0.00  0.00    +0.000 A 
ATOM      8  C   UNL     1       2.275   4.659  19.972  0.00  0.00    +0.000 A 
ATOM      9  C   UNL     1       2.901   5.922  19.926  0.00  0.00    +0.000 A 
ATOM     10  C   UNL     1       4.159   6.042  19.194  0.00  0.00    +0.000 A 
ATOM     11  C   UNL     1       4.695   4.936  18.437  0.00  0.00    +0.000 A 
ENDROOT
BRANCH   9  12
ATOM     12  C   UNL     1       1.937   6.956  20.488  0.00  0.00    +0.000 C 
ATOM     13  C   UNL     1       1.480   8.171  20.173  0.00  0.00    +0.000 C 
ATOM     14  S   UNL     1       1.774   9.115  18.768  0.00  0.00    +0.000 S 
ATOM     15  C   UNL     1       0.922  10.512  19.408  0.00  0.00    +0.000 C 
ATOM     16  S   UNL     1       0.662  11.949  18.623  0.00  0.00    +0.000 S 
ATOM     17  N   UNL     1       0.491  10.256  20.678  0.00  0.00    +0.000 N 
ATOM     18  C   UNL     1       0.754   9.024  21.209  0.00  0.00    +0.000 C 
ATOM     19  O   UNL     1       0.473   8.671  22.346  0.00  0.00    +0.000 OA
ATOM     20  H   UNL     1       0.009  10.959  21.222  0.00  0.00    +0.000 HD
ENDBRANCH   9  12
BRANCH   1  21
ATOM     21  C   UNL     1       7.181   5.520  17.508  0.00  0.00    +0.000 C 
BRANCH  21  25
ATOM     22  C   UNL     1       8.612   9.756  18.315  0.00  0.00    +0.000 A 
ATOM     23  C   UNL     1       7.565   9.480  17.406  0.00  0.00    +0.000 A 
ATOM     24  C   UNL     1       6.987   8.162  17.213  0.00  0.00    +0.000 A 
ATOM     25  C   UNL     1       7.429   7.039  17.922  0.00  0.00    +0.000 A 
ATOM     26  C   UNL     1       8.385   7.356  18.934  0.00  0.00    +0.000 A 
ATOM     27  C   UNL     1       8.958   8.663  19.121  0.00  0.00    +0.000 A 
BRANCH  22  29
ATOM     28  C   UNL     1       9.562  11.614  19.887  0.00  0.00    +0.000 C 
ATOM     29  C   UNL     1       9.350  11.140  18.428  0.00  0.00    +0.000 C 
ATOM     30  C   UNL     1       8.566  12.293  17.734  0.00  0.00    +0.000 C 
ATOM     31  C   UNL     1      10.751  11.123  17.765  0.00  0.00    +0.000 C 
ENDBRANCH  22  29
ENDBRANCH  21  25
ENDBRANCH   1  21
TORSDOF 4
ENDMDL
