MODEL 1
REMARK VINA RESULT:      -6.6      0.000      0.000
REMARK  Name = 
REMARK  4 active torsions:
REMARK  status: ('A' for Active; 'I' for Inactive)
REMARK    1  A    between atoms: C_1  and  N_2
REMARK    2  A    between atoms: C_5  and  O_6
REMARK    3  A    between atoms: O_6  and  C_7
REMARK    4  A    between atoms: C_7  and  C_9
REMARK                            x       y       z     vdW  Elec       q    Type
REMARK                         _______ _______ _______ _____ _____    ______ ____
ROOT
ATOM      1  C   UNL     1       6.944   4.905  15.997  0.00  0.00    +0.000 C 
ATOM      2  O   UNL     1       7.785   4.372  16.708  0.00  0.00    +0.000 OA
ENDROOT
BRANCH   1   3
ATOM      3  C   UNL     1       7.005   4.729  14.522  0.00  0.00    +0.000 A 
ATOM      4  C   UNL     1       7.842   5.545  13.736  0.00  0.00    +0.000 A 
ATOM      5  C   UNL     1       7.903   5.372  12.351  0.00  0.00    +0.000 A 
ATOM      6  C   UNL     1       7.130   4.387  11.731  0.00  0.00    +0.000 A 
ATOM      7  C   UNL     1       6.293   3.572  12.499  0.00  0.00    +0.000 A 
ATOM      8 CL   UNL     1       5.323   2.336  11.717  0.00  0.00    +0.000 Cl
ATOM      9  C   UNL     1       6.229   3.739  13.887  0.00  0.00    +0.000 A 
ENDBRANCH   1   3
BRANCH   1  10
ATOM     10  O   UNL     1       5.941   5.642  16.547  0.00  0.00    +0.000 OA
BRANCH  10  15
ATOM     11  C   UNL     1       1.289   3.733  18.987  0.00  0.00    +0.000 C 
ATOM     12  N   UNL     1       2.627   4.205  18.599  0.00  0.00    +0.000 NA
ATOM     13  C   UNL     1       3.199   3.324  17.559  0.00  0.00    +0.000 C 
ATOM     14  C   UNL     1       4.629   3.766  17.220  0.00  0.00    +0.000 C 
ATOM     15  C   UNL     1       4.633   5.224  16.741  0.00  0.00    +0.000 C 
ATOM     16  C   UNL     1       3.967   6.117  17.796  0.00  0.00    +0.000 C 
ATOM     17  C   UNL     1       2.559   5.601  18.118  0.00  0.00    +0.000 C 
ENDBRANCH  10  15
ENDBRANCH   1  10
TORSDOF 3
ENDMDL
MODEL 2
REMARK VINA RESULT:      -6.6      1.064      1.157
REMARK  Name = 
REMARK  4 active torsions:
REMARK  status: ('A' for Active; 'I' for Inactive)
REMARK    1  A    between atoms: C_1  and  N_2
REMARK    2  A    between atoms: C_5  and  O_6
REMARK    3  A    between atoms: O_6  and  C_7
REMARK    4  A    between atoms: C_7  and  C_9
REMARK                            x       y       z     vdW  Elec       q    Type
REMARK                         _______ _______ _______ _____ _____    ______ ____
ROOT
ATOM      1  C   UNL     1       6.621   4.414  16.091  0.00  0.00    +0.000 C 
ATOM      2  O   UNL     1       7.483   4.945  16.777  0.00  0.00    +0.000 OA
ENDROOT
BRANCH   1   3
ATOM      3  C   UNL     1       6.763   4.393  14.611  0.00  0.00    +0.000 A 
ATOM      4  C   UNL     1       7.675   5.250  13.966  0.00  0.00    +0.000 A 
ATOM      5  C   UNL     1       7.811   5.223  12.575  0.00  0.00    +0.000 A 
ATOM      6  C   UNL     1       7.040   4.344  11.811  0.00  0.00    +0.000 A 
ATOM      7  C   UNL     1       6.129   3.489  12.439  0.00  0.00    +0.000 A 
ATOM      8 CL   UNL     1       5.162   2.388  11.474  0.00  0.00    +0.000 Cl
ATOM      9  C   UNL     1       5.989   3.511  13.831  0.00  0.00    +0.000 A 
ENDBRANCH   1   3
BRANCH   1  10
ATOM     10  O   UNL     1       5.543   3.823  16.674  0.00  0.00    +0.000 OA
BRANCH  10  15
ATOM     11  C   UNL     1       1.528   4.931  20.401  0.00  0.00    +0.000 C 
ATOM     12  N   UNL     1       2.608   4.396  19.558  0.00  0.00    +0.000 NA
ATOM     13  C   UNL     1       2.149   4.270  18.158  0.00  0.00    +0.000 C 
ATOM     14  C   UNL     1       3.248   3.630  17.298  0.00  0.00    +0.000 C 
ATOM     15  C   UNL     1       4.529   4.473  17.362  0.00  0.00    +0.000 C 
ATOM     16  C   UNL     1       4.951   4.661  18.825  0.00  0.00    +0.000 C 
ATOM     17  C   UNL     1       3.799   5.267  19.638  0.00  0.00    +0.000 C 
ENDBRANCH  10  15
ENDBRANCH   1  10
TORSDOF 3
ENDMDL
MODEL 3
REMARK VINA RESULT:      -6.5      0.891      1.523
REMARK  Name = 
REMARK  4 active torsions:
REMARK  status: ('A' for Active; 'I' for Inactive)
REMARK    1  A    between atoms: C_1  and  N_2
REMARK    2  A    between atoms: C_5  and  O_6
REMARK    3  A    between atoms: O_6  and  C_7
REMARK    4  A    between atoms: C_7  and  C_9
REMARK                            x       y       z     vdW  Elec       q    Type
REMARK                         _______ _______ _______ _____ _____    ______ ____
ROOT
ATOM      1  C   UNL     1       6.366   4.572  16.107  0.00  0.00    +0.000 C 
ATOM      2  O   UNL     1       7.291   4.426  16.895  0.00  0.00    +0.000 OA
ENDROOT
BRANCH   1   3
ATOM      3  C   UNL     1       6.618   4.474  14.645  0.00  0.00    +0.000 A 
ATOM      4  C   UNL     1       7.606   5.268  14.033  0.00  0.00    +0.000 A 
ATOM      5  C   UNL     1       7.846   5.167  12.660  0.00  0.00    +0.000 A 
ATOM      6  C   UNL     1       7.104   4.277  11.880  0.00  0.00    +0.000 A 
ATOM      7  C   UNL     1       6.117   3.484  12.475  0.00  0.00    +0.000 A 
ATOM      8 CL   UNL     1       5.187   2.368  11.492  0.00  0.00    +0.000 Cl
ATOM      9  C   UNL     1       5.875   3.579  13.850  0.00  0.00    +0.000 A 
ENDBRANCH   1   3
BRANCH   1  10
ATOM     10  O   UNL     1       5.104   4.804  16.560  0.00  0.00    +0.000 OA
BRANCH  10  15
ATOM     11  C   UNL     1       1.441   3.092  20.419  0.00  0.00    +0.000 C 
ATOM     12  N   UNL     1       2.179   3.571  19.240  0.00  0.00    +0.000 NA
ATOM     13  C   UNL     1       2.876   4.837  19.552  0.00  0.00    +0.000 C 
ATOM     14  C   UNL     1       3.572   5.379  18.297  0.00  0.00    +0.000 C 
ATOM     15  C   UNL     1       4.568   4.345  17.755  0.00  0.00    +0.000 C 
ATOM     16  C   UNL     1       3.848   3.013  17.508  0.00  0.00    +0.000 C 
ATOM     17  C   UNL     1       3.142   2.545  18.787  0.00  0.00    +0.000 C 
ENDBRANCH  10  15
ENDBRANCH   1  10
TORSDOF 3
ENDMDL
MODEL 4
REMARK VINA RESULT:      -6.5      3.394      4.461
REMARK  Name = 
REMARK  4 active torsions:
REMARK  status: ('A' for Active; 'I' for Inactive)
REMARK    1  A    between atoms: C_1  and  N_2
REMARK    2  A    between atoms: C_5  and  O_6
REMARK    3  A    between atoms: O_6  and  C_7
REMARK    4  A    between atoms: C_7  and  C_9
REMARK                            x       y       z     vdW  Elec       q    Type
REMARK                         _______ _______ _______ _____ _____    ______ ____
ROOT
ATOM      1  C   UNL     1       5.426   4.534  16.173  0.00  0.00    +0.000 C 
ATOM      2  O   UNL     1       5.777   4.232  15.041  0.00  0.00    +0.000 OA
ENDROOT
BRANCH   1   3
ATOM      3  C   UNL     1       6.361   5.271  17.065  0.00  0.00    +0.000 A 
ATOM      4  C   UNL     1       7.074   4.593  18.072  0.00  0.00    +0.000 A 
ATOM      5  C   UNL     1       7.957   5.287  18.904  0.00  0.00    +0.000 A 
ATOM      6  C   UNL     1       8.140   6.663  18.743  0.00  0.00    +0.000 A 
ATOM      7  C   UNL     1       7.436   7.348  17.748  0.00  0.00    +0.000 A 
ATOM      8 CL   UNL     1       7.667   9.076  17.550  0.00  0.00    +0.000 Cl
ATOM      9  C   UNL     1       6.551   6.658  16.911  0.00  0.00    +0.000 A 
ENDBRANCH   1   3
BRANCH   1  10
ATOM     10  O   UNL     1       4.179   4.220  16.616  0.00  0.00    +0.000 OA
BRANCH  10  15
ATOM     11  C   UNL     1       1.278   2.828  21.187  0.00  0.00    +0.000 C 
ATOM     12  N   UNL     1       1.797   3.295  19.892  0.00  0.00    +0.000 NA
ATOM     13  C   UNL     1       2.844   4.318  20.098  0.00  0.00    +0.000 C 
ATOM     14  C   UNL     1       3.320   4.866  18.746  0.00  0.00    +0.000 C 
ATOM     15  C   UNL     1       3.858   3.726  17.872  0.00  0.00    +0.000 C 
ATOM     16  C   UNL     1       2.789   2.635  17.729  0.00  0.00    +0.000 C 
ATOM     17  C   UNL     1       2.328   2.157  19.112  0.00  0.00    +0.000 C 
ENDBRANCH  10  15
ENDBRANCH   1  10
TORSDOF 3
ENDMDL
MODEL 5
REMARK VINA RESULT:      -6.4      3.469      6.646
REMARK  Name = 
REMARK  4 active torsions:
REMARK  status: ('A' for Active; 'I' for Inactive)
REMARK    1  A    between atoms: C_1  and  N_2
REMARK    2  A    between atoms: C_5  and  O_6
REMARK    3  A    between atoms: O_6  and  C_7
REMARK    4  A    between atoms: C_7  and  C_9
REMARK                            x       y       z     vdW  Elec       q    Type
REMARK                         _______ _______ _______ _____ _____    ______ ____
ROOT
ATOM      1  C   UNL     1       3.345   6.061  19.121  0.00  0.00    +0.000 C 
ATOM      2  O   UNL     1       2.832   7.168  19.032  0.00  0.00    +0.000 OA
ENDROOT
BRANCH   1   3
ATOM      3  C   UNL     1       2.486   4.854  19.245  0.00  0.00    +0.000 A 
ATOM      4  C   UNL     1       1.850   4.309  18.113  0.00  0.00    +0.000 A 
ATOM      5  C   UNL     1       1.049   3.170  18.231  0.00  0.00    +0.000 A 
ATOM      6  C   UNL     1       0.869   2.562  19.476  0.00  0.00    +0.000 A 
ATOM      7  C   UNL     1       1.493   3.096  20.608  0.00  0.00    +0.000 A 
ATOM      8 CL   UNL     1       1.264   2.330  22.170  0.00  0.00    +0.000 Cl
ATOM      9  C   UNL     1       2.298   4.235  20.495  0.00  0.00    +0.000 A 
ENDBRANCH   1   3
BRANCH   1  10
ATOM     10  O   UNL     1       4.699   5.925  19.088  0.00  0.00    +0.000 OA
BRANCH  10  15
ATOM     11  C   UNL     1       6.849   4.533  14.121  0.00  0.00    +0.000 C 
ATOM     12  N   UNL     1       6.111   4.682  15.384  0.00  0.00    +0.000 NA
ATOM     13  C   UNL     1       7.027   4.521  16.534  0.00  0.00    +0.000 C 
ATOM     14  C   UNL     1       6.240   4.589  17.849  0.00  0.00    +0.000 C 
ATOM     15  C   UNL     1       5.492   5.926  17.951  0.00  0.00    +0.000 C 
ATOM     16  C   UNL     1       4.604   6.116  16.714  0.00  0.00    +0.000 C 
ATOM     17  C   UNL     1       5.442   5.999  15.434  0.00  0.00    +0.000 C 
ENDBRANCH  10  15
ENDBRANCH   1  10
TORSDOF 3
ENDMDL
MODEL 6
REMARK VINA RESULT:      -6.4      3.828      4.599
REMARK  Name = 
REMARK  4 active torsions:
REMARK  status: ('A' for Active; 'I' for Inactive)
REMARK    1  A    between atoms: C_1  and  N_2
REMARK    2  A    between atoms: C_5  and  O_6
REMARK    3  A    between atoms: O_6  and  C_7
REMARK    4  A    between atoms: C_7  and  C_9
REMARK                            x       y       z     vdW  Elec       q    Type
REMARK                         _______ _______ _______ _____ _____    ______ ____
ROOT
ATOM      1  C   UNL     1       4.594   5.227  16.947  0.00  0.00    +0.000 C 
ATOM      2  O   UNL     1       4.665   4.372  16.074  0.00  0.00    +0.000 OA
ENDROOT
BRANCH   1   3
ATOM      3  C   UNL     1       5.838   5.740  17.581  0.00  0.00    +0.000 A 
ATOM      4  C   UNL     1       6.575   4.933  18.468  0.00  0.00    +0.000 A 
ATOM      5  C   UNL     1       7.748   5.416  19.056  0.00  0.00    +0.000 A 
ATOM      6  C   UNL     1       8.198   6.707  18.771  0.00  0.00    +0.000 A 
ATOM      7  C   UNL     1       7.473   7.520  17.894  0.00  0.00    +0.000 A 
ATOM      8 CL   UNL     1       8.041   9.141  17.538  0.00  0.00    +0.000 Cl
ATOM      9  C   UNL     1       6.299   7.041  17.300  0.00  0.00    +0.000 A 
ENDBRANCH   1   3
BRANCH   1  10
ATOM     10  O   UNL     1       3.387   5.727  17.327  0.00  0.00    +0.000 OA
BRANCH  10  15
ATOM     11  C   UNL     1       1.484   2.674  21.604  0.00  0.00    +0.000 C 
ATOM     12  N   UNL     1       2.230   3.352  20.533  0.00  0.00    +0.000 NA
ATOM     13  C   UNL     1       1.645   3.023  19.215  0.00  0.00    +0.000 C 
ATOM     14  C   UNL     1       2.477   3.659  18.094  0.00  0.00    +0.000 C 
ATOM     15  C   UNL     1       2.541   5.181  18.280  0.00  0.00    +0.000 C 
ATOM     16  C   UNL     1       3.077   5.509  19.680  0.00  0.00    +0.000 C 
ATOM     17  C   UNL     1       2.227   4.813  20.752  0.00  0.00    +0.000 C 
ENDBRANCH  10  15
ENDBRANCH   1  10
TORSDOF 3
ENDMDL
MODEL 7
REMARK VINA RESULT:      -6.4      3.285      4.345
REMARK  Name = 
REMARK  4 active torsions:
REMARK  status: ('A' for Active; 'I' for Inactive)
REMARK    1  A    between atoms: C_1  and  N_2
REMARK    2  A    between atoms: C_5  and  O_6
REMARK    3  A    between atoms: O_6  and  C_7
REMARK    4  A    between atoms: C_7  and  C_9
REMARK                            x       y       z     vdW  Elec       q    Type
REMARK                         _______ _______ _______ _____ _____    ______ ____
ROOT
ATOM      1  C   UNL     1       6.105   4.299  16.163  0.00  0.00    +0.000 C 
ATOM      2  O   UNL     1       6.450   4.250  14.990  0.00  0.00    +0.000 OA
ENDROOT
BRANCH   1   3
ATOM      3  C   UNL     1       6.840   5.176  17.113  0.00  0.00    +0.000 A 
ATOM      4  C   UNL     1       7.484   4.631  18.240  0.00  0.00    +0.000 A 
ATOM      5  C   UNL     1       8.180   5.457  19.127  0.00  0.00    +0.000 A 
ATOM      6  C   UNL     1       8.241   6.834  18.904  0.00  0.00    +0.000 A 
ATOM      7  C   UNL     1       7.603   7.389  17.790  0.00  0.00    +0.000 A 
ATOM      8 CL   UNL     1       7.681   9.120  17.513  0.00  0.00    +0.000 Cl
ATOM      9  C   UNL     1       6.907   6.566  16.897  0.00  0.00    +0.000 A 
ENDBRANCH   1   3
BRANCH   1  10
ATOM     10  O   UNL     1       5.041   3.573  16.600  0.00  0.00    +0.000 OA
BRANCH  10  15
ATOM     11  C   UNL     1       0.831   3.503  20.275  0.00  0.00    +0.000 C 
ATOM     12  N   UNL     1       1.890   3.246  19.288  0.00  0.00    +0.000 NA
ATOM     13  C   UNL     1       1.631   4.010  18.049  0.00  0.00    +0.000 C 
ATOM     14  C   UNL     1       2.689   3.672  16.990  0.00  0.00    +0.000 C 
ATOM     15  C   UNL     1       4.093   3.988  17.524  0.00  0.00    +0.000 C 
ATOM     16  C   UNL     1       4.321   3.250  18.849  0.00  0.00    +0.000 C 
ATOM     17  C   UNL     1       3.211   3.600  19.850  0.00  0.00    +0.000 C 
ENDBRANCH  10  15
ENDBRANCH   1  10
TORSDOF 3
ENDMDL
MODEL 8
REMARK VINA RESULT:      -6.3      2.586      3.782
REMARK  Name = 
REMARK  4 active torsions:
REMARK  status: ('A' for Active; 'I' for Inactive)
REMARK    1  A    between atoms: C_1  and  N_2
REMARK    2  A    between atoms: C_5  and  O_6
REMARK    3  A    between atoms: O_6  and  C_7
REMARK    4  A    between atoms: C_7  and  C_9
REMARK                            x       y       z     vdW  Elec       q    Type
REMARK                         _______ _______ _______ _____ _____    ______ ____
ROOT
ATOM      1  C   UNL     1       3.772   6.702  17.473  0.00  0.00    +0.000 C 
ATOM      2  O   UNL     1       3.705   7.922  17.423  0.00  0.00    +0.000 OA
ENDROOT
BRANCH   1   3
ATOM      3  C   UNL     1       5.015   6.011  17.040  0.00  0.00    +0.000 A 
ATOM      4  C   UNL     1       6.143   5.969  17.882  0.00  0.00    +0.000 A 
ATOM      5  C   UNL     1       7.308   5.312  17.475  0.00  0.00    +0.000 A 
ATOM      6  C   UNL     1       7.364   4.692  16.225  0.00  0.00    +0.000 A 
ATOM      7  C   UNL     1       6.252   4.728  15.378  0.00  0.00    +0.000 A 
ATOM      8 CL   UNL     1       6.327   3.948  13.808  0.00  0.00    +0.000 Cl
ATOM      9  C   UNL     1       5.082   5.382  15.781  0.00  0.00    +0.000 A 
ENDBRANCH   1   3
BRANCH   1  10
ATOM     10  O   UNL     1       2.724   5.972  17.942  0.00  0.00    +0.000 OA
BRANCH  10  15
ATOM     11  C   UNL     1       1.229   2.344  21.922  0.00  0.00    +0.000 C 
ATOM     12  N   UNL     1       1.351   3.368  20.874  0.00  0.00    +0.000 NA
ATOM     13  C   UNL     1       2.262   4.446  21.315  0.00  0.00    +0.000 C 
ATOM     14  C   UNL     1       2.318   5.556  20.257  0.00  0.00    +0.000 C 
ATOM     15  C   UNL     1       2.787   4.982  18.912  0.00  0.00    +0.000 C 
ATOM     16  C   UNL     1       1.879   3.815  18.503  0.00  0.00    +0.000 C 
ATOM     17  C   UNL     1       1.835   2.760  19.617  0.00  0.00    +0.000 C 
ENDBRANCH  10  15
ENDBRANCH   1  10
TORSDOF 3
ENDMDL
MODEL 9
REMARK VINA RESULT:      -6.3      3.422      4.374
REMARK  Name = 
REMARK  4 active torsions:
REMARK  status: ('A' for Active; 'I' for Inactive)
REMARK    1  A    between atoms: C_1  and  N_2
REMARK    2  A    between atoms: C_5  and  O_6
REMARK    3  A    between atoms: O_6  and  C_7
REMARK    4  A    between atoms: C_7  and  C_9
REMARK                            x       y       z     vdW  Elec       q    Type
REMARK                         _______ _______ _______ _____ _____    ______ ____
ROOT
ATOM      1  C   UNL     1       5.606   4.214  16.177  0.00  0.00    +0.000 C 
ATOM      2  O   UNL     1       6.078   3.689  15.176  0.00  0.00    +0.000 OA
ENDROOT
BRANCH   1   3
ATOM      3  C   UNL     1       6.417   5.190  16.951  0.00  0.00    +0.000 A 
ATOM      4  C   UNL     1       6.560   6.518  16.504  0.00  0.00    +0.000 A 
ATOM      5  C   UNL     1       7.316   7.435  17.239  0.00  0.00    +0.000 A 
ATOM      6  C   UNL     1       7.941   7.042  18.425  0.00  0.00    +0.000 A 
ATOM      7  C   UNL     1       7.809   5.725  18.878  0.00  0.00    +0.000 A 
ATOM      8 CL   UNL     1       8.596   5.235  20.368  0.00  0.00    +0.000 Cl
ATOM      9  C   UNL     1       7.051   4.803  18.148  0.00  0.00    +0.000 A 
ENDBRANCH   1   3
BRANCH   1  10
ATOM     10  O   UNL     1       4.337   3.925  16.574  0.00  0.00    +0.000 OA
BRANCH  10  15
ATOM     11  C   UNL     1       1.168   2.883  21.058  0.00  0.00    +0.000 C 
ATOM     12  N   UNL     1       1.760   3.234  19.758  0.00  0.00    +0.000 NA
ATOM     13  C   UNL     1       2.742   4.327  19.922  0.00  0.00    +0.000 C 
ATOM     14  C   UNL     1       3.294   4.751  18.554  0.00  0.00    +0.000 C 
ATOM     15  C   UNL     1       3.946   3.553  17.851  0.00  0.00    +0.000 C 
ATOM     16  C   UNL     1       2.940   2.398  17.756  0.00  0.00    +0.000 C 
ATOM     17  C   UNL     1       2.399   2.049  19.149  0.00  0.00    +0.000 C 
ENDBRANCH  10  15
ENDBRANCH   1  10
TORSDOF 3
ENDMDL
