MODEL 1
REMARK VINA RESULT:      -6.9      0.000      0.000
REMARK  Name = 
REMARK  2 active torsions:
REMARK  status: ('A' for Active; 'I' for Inactive)
REMARK    1  A    between atoms: C_1  and  N_2
REMARK    2  A    between atoms: N_6  and  C_7
REMARK                            x       y       z     vdW  Elec       q    Type
REMARK                         _______ _______ _______ _____ _____    ______ ____
ROOT
ATOM      1  C   UNL     1       4.668   4.712  18.111  0.00  0.00    +0.000 A 
ATOM      2  C   UNL     1       5.959   5.208  18.392  0.00  0.00    +0.000 A 
ATOM      3  C   UNL     1       6.922   5.331  17.380  0.00  0.00    +0.000 A 
ATOM      4  C   UNL     1       6.578   4.967  16.092  0.00  0.00    +0.000 A 
ATOM      5  C   UNL     1       5.301   4.479  15.802  0.00  0.00    +0.000 A 
ATOM      6  C   UNL     1       4.349   4.324  16.802  0.00  0.00    +0.000 A 
ATOM      7  C   UNL     1       5.142   4.257  14.331  0.00  0.00    +0.000 C 
ATOM      8  C   UNL     1       6.608   4.180  13.884  0.00  0.00    +0.000 C 
ATOM      9  C   UNL     1       7.408   5.068  14.849  0.00  0.00    +0.000 C 
ENDROOT
BRANCH   1  15
ATOM     10  C   UNL     1       1.623   2.947  21.668  0.00  0.00    +0.000 C 
ATOM     11  N   UNL     1       2.350   3.821  20.764  0.00  0.00    +0.000 N 
ATOM     12  C   UNL     1       1.999   5.215  20.640  0.00  0.00    +0.000 C 
ATOM     13  C   UNL     1       2.821   5.627  19.432  0.00  0.00    +0.000 C 
ATOM     14  O   UNL     1       2.688   6.697  18.870  0.00  0.00    +0.000 OA
ATOM     15  N   UNL     1       3.692   4.594  19.133  0.00  0.00    +0.000 N 
ATOM     16  C   UNL     1       3.436   3.494  19.937  0.00  0.00    +0.000 C 
ATOM     17  S   UNL     1       4.273   2.049  20.034  0.00  0.00    +0.000 S 
ENDBRANCH   1  15
TORSDOF 1
ENDMDL
MODEL 2
REMARK VINA RESULT:      -6.5      2.473      3.281
REMARK  Name = 
REMARK  2 active torsions:
REMARK  status: ('A' for Active; 'I' for Inactive)
REMARK    1  A    between atoms: C_1  and  N_2
REMARK    2  A    between atoms: N_6  and  C_7
REMARK                            x       y       z     vdW  Elec       q    Type
REMARK                         _______ _______ _______ _____ _____    ______ ____
ROOT
ATOM      1  C   UNL     1       4.417   4.920  18.398  0.00  0.00    +0.000 A 
ATOM      2  C   UNL     1       4.155   5.695  17.249  0.00  0.00    +0.000 A 
ATOM      3  C   UNL     1       5.099   6.613  16.765  0.00  0.00    +0.000 A 
ATOM      4  C   UNL     1       6.303   6.735  17.432  0.00  0.00    +0.000 A 
ATOM      5  C   UNL     1       6.575   5.969  18.568  0.00  0.00    +0.000 A 
ATOM      6  C   UNL     1       5.636   5.079  19.074  0.00  0.00    +0.000 A 
ATOM      7  C   UNL     1       7.974   6.204  19.042  0.00  0.00    +0.000 C 
ATOM      8  C   UNL     1       8.290   7.550  18.374  0.00  0.00    +0.000 C 
ATOM      9  C   UNL     1       7.478   7.593  17.070  0.00  0.00    +0.000 C 
ENDROOT
BRANCH   1  15
ATOM     10  C   UNL     1       0.866   2.631  21.079  0.00  0.00    +0.000 C 
ATOM     11  N   UNL     1       1.839   2.966  20.055  0.00  0.00    +0.000 N 
ATOM     12  C   UNL     1       2.205   2.010  19.039  0.00  0.00    +0.000 C 
ATOM     13  C   UNL     1       3.397   2.694  18.395  0.00  0.00    +0.000 C 
ATOM     14  O   UNL     1       4.128   2.144  17.593  0.00  0.00    +0.000 OA
ATOM     15  N   UNL     1       3.465   3.987  18.884  0.00  0.00    +0.000 N 
ATOM     16  C   UNL     1       2.521   4.181  19.879  0.00  0.00    +0.000 C 
ATOM     17  S   UNL     1       2.136   5.586  20.700  0.00  0.00    +0.000 S 
ENDBRANCH   1  15
TORSDOF 1
ENDMDL
MODEL 3
REMARK VINA RESULT:      -6.5      1.982      2.240
REMARK  Name = 
REMARK  2 active torsions:
REMARK  status: ('A' for Active; 'I' for Inactive)
REMARK    1  A    between atoms: C_1  and  N_2
REMARK    2  A    between atoms: N_6  and  C_7
REMARK                            x       y       z     vdW  Elec       q    Type
REMARK                         _______ _______ _______ _____ _____    ______ ____
ROOT
ATOM      1  C   UNL     1       5.044   4.803  17.400  0.00  0.00    +0.000 A 
ATOM      2  C   UNL     1       6.287   5.460  17.511  0.00  0.00    +0.000 A 
ATOM      3  C   UNL     1       7.156   5.555  16.414  0.00  0.00    +0.000 A 
ATOM      4  C   UNL     1       6.763   5.001  15.211  0.00  0.00    +0.000 A 
ATOM      5  C   UNL     1       5.532   4.352  15.088  0.00  0.00    +0.000 A 
ATOM      6  C   UNL     1       4.677   4.226  16.175  0.00  0.00    +0.000 A 
ATOM      7  C   UNL     1       5.293   3.935  13.671  0.00  0.00    +0.000 C 
ATOM      8  C   UNL     1       6.724   3.954  13.113  0.00  0.00    +0.000 C 
ATOM      9  C   UNL     1       7.486   5.032  13.898  0.00  0.00    +0.000 C 
ENDROOT
BRANCH   1  15
ATOM     10  C   UNL     1       1.656   5.811  20.942  0.00  0.00    +0.000 C 
ATOM     11  N   UNL     1       2.610   5.139  20.077  0.00  0.00    +0.000 N 
ATOM     12  C   UNL     1       3.060   3.800  20.371  0.00  0.00    +0.000 C 
ATOM     13  C   UNL     1       4.201   3.642  19.383  0.00  0.00    +0.000 C 
ATOM     14  O   UNL     1       4.980   2.708  19.410  0.00  0.00    +0.000 OA
ATOM     15  N   UNL     1       4.163   4.713  18.507  0.00  0.00    +0.000 N 
ATOM     16  C   UNL     1       3.196   5.626  18.898  0.00  0.00    +0.000 C 
ATOM     17  S   UNL     1       2.695   7.019  18.121  0.00  0.00    +0.000 S 
ENDBRANCH   1  15
TORSDOF 1
ENDMDL
MODEL 4
REMARK VINA RESULT:      -6.5      2.246      2.922
REMARK  Name = 
REMARK  2 active torsions:
REMARK  status: ('A' for Active; 'I' for Inactive)
REMARK    1  A    between atoms: C_1  and  N_2
REMARK    2  A    between atoms: N_6  and  C_7
REMARK                            x       y       z     vdW  Elec       q    Type
REMARK                         _______ _______ _______ _____ _____    ______ ____
ROOT
ATOM      1  C   UNL     1       4.033   5.322  18.548  0.00  0.00    +0.000 A 
ATOM      2  C   UNL     1       3.947   6.145  17.405  0.00  0.00    +0.000 A 
ATOM      3  C   UNL     1       5.061   6.862  16.944  0.00  0.00    +0.000 A 
ATOM      4  C   UNL     1       6.255   6.736  17.626  0.00  0.00    +0.000 A 
ATOM      5  C   UNL     1       6.354   5.920  18.756  0.00  0.00    +0.000 A 
ATOM      6  C   UNL     1       5.250   5.229  19.240  0.00  0.00    +0.000 A 
ATOM      7  C   UNL     1       7.765   5.868  19.249  0.00  0.00    +0.000 C 
ATOM      8  C   UNL     1       8.351   7.131  18.601  0.00  0.00    +0.000 C 
ATOM      9  C   UNL     1       7.582   7.347  17.289  0.00  0.00    +0.000 C 
ENDROOT
BRANCH   1  15
ATOM     10  C   UNL     1       0.469   1.864  19.165  0.00  0.00    +0.000 C 
ATOM     11  N   UNL     1       1.327   3.025  19.327  0.00  0.00    +0.000 N 
ATOM     12  C   UNL     1       0.998   4.063  20.272  0.00  0.00    +0.000 C 
ATOM     13  C   UNL     1       1.999   5.140  19.898  0.00  0.00    +0.000 C 
ATOM     14  O   UNL     1       1.955   6.273  20.340  0.00  0.00    +0.000 OA
ATOM     15  N   UNL     1       2.909   4.592  19.010  0.00  0.00    +0.000 N 
ATOM     16  C   UNL     1       2.531   3.305  18.661  0.00  0.00    +0.000 C 
ATOM     17  S   UNL     1       3.344   2.196  17.710  0.00  0.00    +0.000 S 
ENDBRANCH   1  15
TORSDOF 1
ENDMDL
MODEL 5
REMARK VINA RESULT:      -6.5      3.075      5.705
REMARK  Name = 
REMARK  2 active torsions:
REMARK  status: ('A' for Active; 'I' for Inactive)
REMARK    1  A    between atoms: C_1  and  N_2
REMARK    2  A    between atoms: N_6  and  C_7
REMARK                            x       y       z     vdW  Elec       q    Type
REMARK                         _______ _______ _______ _____ _____    ______ ____
ROOT
ATOM      1  C   UNL     1       2.741   6.391  19.050  0.00  0.00    +0.000 A 
ATOM      2  C   UNL     1       2.725   7.297  17.969  0.00  0.00    +0.000 A 
ATOM      3  C   UNL     1       2.113   8.554  18.087  0.00  0.00    +0.000 A 
ATOM      4  C   UNL     1       1.532   8.894  19.293  0.00  0.00    +0.000 A 
ATOM      5  C   UNL     1       1.545   8.006  20.371  0.00  0.00    +0.000 A 
ATOM      6  C   UNL     1       2.122   6.748  20.257  0.00  0.00    +0.000 A 
ATOM      7  C   UNL     1       0.951   8.643  21.588  0.00  0.00    +0.000 C 
ATOM      8  C   UNL     1       0.141   9.786  20.958  0.00  0.00    +0.000 C 
ATOM      9  C   UNL     1       0.881  10.190  19.673  0.00  0.00    +0.000 C 
ENDROOT
BRANCH   1  15
ATOM     10  C   UNL     1       3.610   1.490  18.534  0.00  0.00    +0.000 C 
ATOM     11  N   UNL     1       3.771   2.928  18.658  0.00  0.00    +0.000 N 
ATOM     12  C   UNL     1       5.075   3.513  18.854  0.00  0.00    +0.000 C 
ATOM     13  C   UNL     1       4.715   4.950  19.185  0.00  0.00    +0.000 C 
ATOM     14  O   UNL     1       5.523   5.761  19.597  0.00  0.00    +0.000 OA
ATOM     15  N   UNL     1       3.365   5.123  18.933  0.00  0.00    +0.000 N 
ATOM     16  C   UNL     1       2.774   3.915  18.597  0.00  0.00    +0.000 C 
ATOM     17  S   UNL     1       1.204   3.617  18.107  0.00  0.00    +0.000 S 
ENDBRANCH   1  15
TORSDOF 1
ENDMDL
MODEL 6
REMARK VINA RESULT:      -6.4      3.214      6.243
REMARK  Name = 
REMARK  2 active torsions:
REMARK  status: ('A' for Active; 'I' for Inactive)
REMARK    1  A    between atoms: C_1  and  N_2
REMARK    2  A    between atoms: N_6  and  C_7
REMARK                            x       y       z     vdW  Elec       q    Type
REMARK                         _______ _______ _______ _____ _____    ______ ____
ROOT
ATOM      1  C   UNL     1       2.559   6.960  18.355  0.00  0.00    +0.000 A 
ATOM      2  C   UNL     1       2.225   8.057  17.534  0.00  0.00    +0.000 A 
ATOM      3  C   UNL     1       1.596   9.193  18.064  0.00  0.00    +0.000 A 
ATOM      4  C   UNL     1       1.319   9.223  19.417  0.00  0.00    +0.000 A 
ATOM      5  C   UNL     1       1.649   8.144  20.241  0.00  0.00    +0.000 A 
ATOM      6  C   UNL     1       2.245   7.002  19.721  0.00  0.00    +0.000 A 
ATOM      7  C   UNL     1       1.346   8.459  21.672  0.00  0.00    +0.000 C 
ATOM      8  C   UNL     1       0.345   9.613  21.515  0.00  0.00    +0.000 C 
ATOM      9  C   UNL     1       0.716  10.341  20.213  0.00  0.00    +0.000 C 
ENDROOT
BRANCH   1  15
ATOM     10  C   UNL     1       5.782   3.875  16.091  0.00  0.00    +0.000 C 
ATOM     11  N   UNL     1       4.662   4.411  16.843  0.00  0.00    +0.000 N 
ATOM     12  C   UNL     1       3.557   3.568  17.229  0.00  0.00    +0.000 C 
ATOM     13  C   UNL     1       2.557   4.593  17.732  0.00  0.00    +0.000 C 
ATOM     14  O   UNL     1       1.401   4.321  17.997  0.00  0.00    +0.000 OA
ATOM     15  N   UNL     1       3.201   5.815  17.820  0.00  0.00    +0.000 N 
ATOM     16  C   UNL     1       4.483   5.727  17.301  0.00  0.00    +0.000 C 
ATOM     17  S   UNL     1       5.685   6.889  17.273  0.00  0.00    +0.000 S 
ENDBRANCH   1  15
TORSDOF 1
ENDMDL
MODEL 7
REMARK VINA RESULT:      -6.4      3.006      5.407
REMARK  Name = 
REMARK  2 active torsions:
REMARK  status: ('A' for Active; 'I' for Inactive)
REMARK    1  A    between atoms: C_1  and  N_2
REMARK    2  A    between atoms: N_6  and  C_7
REMARK                            x       y       z     vdW  Elec       q    Type
REMARK                         _______ _______ _______ _____ _____    ______ ____
ROOT
ATOM      1  C   UNL     1       2.627   6.250  19.419  0.00  0.00    +0.000 A 
ATOM      2  C   UNL     1       1.986   6.481  20.654  0.00  0.00    +0.000 A 
ATOM      3  C   UNL     1       1.336   7.696  20.916  0.00  0.00    +0.000 A 
ATOM      4  C   UNL     1       1.325   8.664  19.930  0.00  0.00    +0.000 A 
ATOM      5  C   UNL     1       1.953   8.444  18.702  0.00  0.00    +0.000 A 
ATOM      6  C   UNL     1       2.625   7.257  18.442  0.00  0.00    +0.000 A 
ATOM      7  C   UNL     1       1.712   9.592  17.771  0.00  0.00    +0.000 C 
ATOM      8  C   UNL     1       1.323  10.698  18.762  0.00  0.00    +0.000 C 
ATOM      9  C   UNL     1       0.648  10.001  19.955  0.00  0.00    +0.000 C 
ENDROOT
BRANCH   1  15
ATOM     10  C   UNL     1       3.603   1.429  18.498  0.00  0.00    +0.000 C 
ATOM     11  N   UNL     1       3.726   2.863  18.695  0.00  0.00    +0.000 N 
ATOM     12  C   UNL     1       5.023   3.489  18.781  0.00  0.00    +0.000 C 
ATOM     13  C   UNL     1       4.653   4.887  19.241  0.00  0.00    +0.000 C 
ATOM     14  O   UNL     1       5.473   5.706  19.610  0.00  0.00    +0.000 OA
ATOM     15  N   UNL     1       3.278   5.018  19.152  0.00  0.00    +0.000 N 
ATOM     16  C   UNL     1       2.695   3.809  18.808  0.00  0.00    +0.000 C 
ATOM     17  S   UNL     1       1.091   3.474  18.478  0.00  0.00    +0.000 S 
ENDBRANCH   1  15
TORSDOF 1
ENDMDL
MODEL 8
REMARK VINA RESULT:      -6.3      1.964      2.202
REMARK  Name = 
REMARK  2 active torsions:
REMARK  status: ('A' for Active; 'I' for Inactive)
REMARK    1  A    between atoms: C_1  and  N_2
REMARK    2  A    between atoms: N_6  and  C_7
REMARK                            x       y       z     vdW  Elec       q    Type
REMARK                         _______ _______ _______ _____ _____    ______ ____
ROOT
ATOM      1  C   UNL     1       4.734   3.866  17.607  0.00  0.00    +0.000 A 
ATOM      2  C   UNL     1       5.974   4.354  18.070  0.00  0.00    +0.000 A 
ATOM      3  C   UNL     1       6.975   4.753  17.173  0.00  0.00    +0.000 A 
ATOM      4  C   UNL     1       6.718   4.671  15.818  0.00  0.00    +0.000 A 
ATOM      5  C   UNL     1       5.492   4.194  15.348  0.00  0.00    +0.000 A 
ATOM      6  C   UNL     1       4.504   3.767  16.227  0.00  0.00    +0.000 A 
ATOM      7  C   UNL     1       5.419   4.301  13.857  0.00  0.00    +0.000 C 
ATOM      8  C   UNL     1       6.907   4.405  13.495  0.00  0.00    +0.000 C 
ATOM      9  C   UNL     1       7.599   5.094  14.682  0.00  0.00    +0.000 C 
ENDROOT
BRANCH   1  15
ATOM     10  C   UNL     1       1.265   3.805  21.214  0.00  0.00    +0.000 C 
ATOM     11  N   UNL     1       2.128   3.439  20.103  0.00  0.00    +0.000 N 
ATOM     12  C   UNL     1       2.186   2.079  19.628  0.00  0.00    +0.000 C 
ATOM     13  C   UNL     1       3.373   2.140  18.684  0.00  0.00    +0.000 C 
ATOM     14  O   UNL     1       3.884   1.151  18.192  0.00  0.00    +0.000 OA
ATOM     15  N   UNL     1       3.719   3.469  18.515  0.00  0.00    +0.000 N 
ATOM     16  C   UNL     1       2.968   4.277  19.353  0.00  0.00    +0.000 C 
ATOM     17  S   UNL     1       2.937   5.946  19.449  0.00  0.00    +0.000 S 
ENDBRANCH   1  15
TORSDOF 1
ENDMDL
MODEL 9
REMARK VINA RESULT:      -6.2      3.244      5.975
REMARK  Name = 
REMARK  2 active torsions:
REMARK  status: ('A' for Active; 'I' for Inactive)
REMARK    1  A    between atoms: C_1  and  N_2
REMARK    2  A    between atoms: N_6  and  C_7
REMARK                            x       y       z     vdW  Elec       q    Type
REMARK                         _______ _______ _______ _____ _____    ______ ____
ROOT
ATOM      1  C   UNL     1       2.622   6.629  18.568  0.00  0.00    +0.000 A 
ATOM      2  C   UNL     1       2.292   6.508  19.935  0.00  0.00    +0.000 A 
ATOM      3  C   UNL     1       1.679   7.563  20.627  0.00  0.00    +0.000 A 
ATOM      4  C   UNL     1       1.392   8.726  19.939  0.00  0.00    +0.000 A 
ATOM      5  C   UNL     1       1.711   8.855  18.585  0.00  0.00    +0.000 A 
ATOM      6  C   UNL     1       2.344   7.828  17.896  0.00  0.00    +0.000 A 
ATOM      7  C   UNL     1       1.207  10.156  18.045  0.00  0.00    +0.000 C 
ATOM      8  C   UNL     1       1.028  10.964  19.338  0.00  0.00    +0.000 C 
ATOM      9  C   UNL     1       0.691   9.951  20.444  0.00  0.00    +0.000 C 
ENDROOT
BRANCH   1  15
ATOM     10  C   UNL     1       5.727   3.857  15.792  0.00  0.00    +0.000 C 
ATOM     11  N   UNL     1       4.645   4.293  16.657  0.00  0.00    +0.000 N 
ATOM     12  C   UNL     1       3.559   3.404  16.990  0.00  0.00    +0.000 C 
ATOM     13  C   UNL     1       2.586   4.355  17.662  0.00  0.00    +0.000 C 
ATOM     14  O   UNL     1       1.444   4.048  17.946  0.00  0.00    +0.000 OA
ATOM     15  N   UNL     1       3.235   5.560  17.867  0.00  0.00    +0.000 N 
ATOM     16  C   UNL     1       4.491   5.541  17.281  0.00  0.00    +0.000 C 
ATOM     17  S   UNL     1       5.692   6.704  17.338  0.00  0.00    +0.000 S 
ENDBRANCH   1  15
TORSDOF 1
ENDMDL
