MODEL 1
REMARK VINA RESULT:      -8.4      0.000      0.000
REMARK  Name = 
REMARK  10 active torsions:
REMARK  status: ('A' for Active; 'I' for Inactive)
REMARK    1  A    between atoms: C_1  and  O_2
REMARK    2  A    between atoms: O_2  and  C_3
REMARK    3  A    between atoms: C_6  and  C_7
REMARK    4  A    between atoms: C_9  and  C_10
REMARK    5  A    between atoms: C_10  and  O_12
REMARK    6  A    between atoms: O_12  and  C_13
REMARK    7  A    between atoms: C_13  and  C_14
REMARK    8  A    between atoms: C_14  and  C_16
REMARK    9  A    between atoms: C_20  and  N_21
REMARK   10  A    between atoms: C_27  and  C_28
REMARK                            x       y       z     vdW  Elec       q    Type
REMARK                         _______ _______ _______ _____ _____    ______ ____
ROOT
ATOM      1  C   UNL     1       2.313   6.834  19.508  0.00  0.00    +0.000 A 
ATOM      2  C   UNL     1       3.270   6.521  18.569  0.00  0.00    +0.000 A 
ATOM      3  C   UNL     1       3.619   5.198  18.426  0.00  0.00    +0.000 A 
ATOM      4  C   UNL     1       3.461   4.318  19.479  0.00  0.00    +0.000 A 
ATOM      5  C   UNL     1       4.233   3.141  19.574  0.00  0.00    +0.000 A 
ATOM      6  C   UNL     1       4.059   2.244  20.603  0.00  0.00    +0.000 A 
ATOM      7  C   UNL     1       4.943   1.036  20.703  0.00  0.00    +0.000 C 
ATOM      8  C   UNL     1       3.057   2.534  21.524  0.00  0.00    +0.000 A 
ATOM      9  C   UNL     1       2.308   3.723  21.445  0.00  0.00    +0.000 A 
ATOM     10  C   UNL     1       2.536   4.688  20.460  0.00  0.00    +0.000 A 
ATOM     11  N   UNL     1       1.907   5.904  20.423  0.00  0.00    +0.000 NA
ENDROOT
BRANCH   1  15
ATOM     12  C   UNL     1       0.238  10.615  19.453  0.00  0.00    +0.000 A 
ATOM     13  C   UNL     1       0.337   9.889  20.631  0.00  0.00    +0.000 A 
ATOM     14  C   UNL     1       1.091   8.718  20.665  0.00  0.00    +0.000 A 
ATOM     15  C   UNL     1       1.721   8.194  19.509  0.00  0.00    +0.000 A 
ATOM     16  C   UNL     1       1.682   8.989  18.359  0.00  0.00    +0.000 A 
ATOM     17  C   UNL     1       0.939  10.181  18.326  0.00  0.00    +0.000 A 
BRANCH  12  19
ATOM     18  C   UNL     1      -1.260  11.889  20.765  0.00  0.00    +0.000 C 
ATOM     19  O   UNL     1      -0.587  11.699  19.531  0.00  0.00    +0.000 OA
ENDBRANCH  12  19
ENDBRANCH   1  15
BRANCH   3  20
ATOM     20  C   UNL     1       3.772   4.656  17.060  0.00  0.00    +0.000 C 
ATOM     21  O   UNL     1       3.168   3.698  16.604  0.00  0.00    +0.000 OA
BRANCH  20  22
ATOM     22  O   UNL     1       4.605   5.456  16.344  0.00  0.00    +0.000 OA
BRANCH  22  23
ATOM     23  C   UNL     1       5.363   4.705  15.408  0.00  0.00    +0.000 C 
BRANCH  23  24
ATOM     24  C   UNL     1       6.789   5.238  15.462  0.00  0.00    +0.000 C 
ATOM     25  O   UNL     1       7.543   5.223  14.487  0.00  0.00    +0.000 OA
BRANCH  24  26
ATOM     26  C   UNL     1       7.289   5.779  16.745  0.00  0.00    +0.000 A 
ATOM     27  C   UNL     1       7.438   4.893  17.822  0.00  0.00    +0.000 A 
ATOM     28  C   UNL     1       7.869   5.359  19.061  0.00  0.00    +0.000 A 
ATOM     29  C   UNL     1       8.162   6.711  19.230  0.00  0.00    +0.000 A 
ATOM     30  C   UNL     1       8.022   7.594  18.150  0.00  0.00    +0.000 A 
ATOM     31  C   UNL     1       7.587   7.133  16.903  0.00  0.00    +0.000 A 
BRANCH  30  32
ATOM     32  N   UNL     1       8.332   9.025  18.320  0.00  0.00    +0.000 N 
ATOM     33  O   UNL     1       9.178   9.322  19.171  0.00  0.00    +0.000 OA
ATOM     34  O   UNL     1       7.706   9.834  17.618  0.00  0.00    +0.000 OA
ENDBRANCH  30  32
ENDBRANCH  24  26
ENDBRANCH  23  24
ENDBRANCH  22  23
ENDBRANCH  20  22
ENDBRANCH   3  20
TORSDOF 8
ENDMDL
MODEL 2
REMARK VINA RESULT:      -8.3      0.581      1.207
REMARK  Name = 
REMARK  10 active torsions:
REMARK  status: ('A' for Active; 'I' for Inactive)
REMARK    1  A    between atoms: C_1  and  O_2
REMARK    2  A    between atoms: O_2  and  C_3
REMARK    3  A    between atoms: C_6  and  C_7
REMARK    4  A    between atoms: C_9  and  C_10
REMARK    5  A    between atoms: C_10  and  O_12
REMARK    6  A    between atoms: O_12  and  C_13
REMARK    7  A    between atoms: C_13  and  C_14
REMARK    8  A    between atoms: C_14  and  C_16
REMARK    9  A    between atoms: C_20  and  N_21
REMARK   10  A    between atoms: C_27  and  C_28
REMARK                            x       y       z     vdW  Elec       q    Type
REMARK                         _______ _______ _______ _____ _____    ______ ____
ROOT
ATOM      1  C   UNL     1       2.270   6.870  19.524  0.00  0.00    +0.000 A 
ATOM      2  C   UNL     1       3.228   6.545  18.591  0.00  0.00    +0.000 A 
ATOM      3  C   UNL     1       3.565   5.218  18.454  0.00  0.00    +0.000 A 
ATOM      4  C   UNL     1       3.394   4.343  19.510  0.00  0.00    +0.000 A 
ATOM      5  C   UNL     1       4.154   3.159  19.612  0.00  0.00    +0.000 A 
ATOM      6  C   UNL     1       3.967   2.268  20.644  0.00  0.00    +0.000 A 
ATOM      7  C   UNL     1       4.839   1.052  20.752  0.00  0.00    +0.000 C 
ATOM      8  C   UNL     1       2.965   2.571  21.559  0.00  0.00    +0.000 A 
ATOM      9  C   UNL     1       2.228   3.767  21.473  0.00  0.00    +0.000 A 
ATOM     10  C   UNL     1       2.468   4.725  20.485  0.00  0.00    +0.000 A 
ATOM     11  N   UNL     1       1.852   5.947  20.441  0.00  0.00    +0.000 NA
ENDROOT
BRANCH   1  15
ATOM     12  C   UNL     1       0.957  10.979  19.578  0.00  0.00    +0.000 A 
ATOM     13  C   UNL     1       1.458  10.420  18.411  0.00  0.00    +0.000 A 
ATOM     14  C   UNL     1       1.788   9.066  18.374  0.00  0.00    +0.000 A 
ATOM     15  C   UNL     1       1.692   8.236  19.518  0.00  0.00    +0.000 A 
ATOM     16  C   UNL     1       1.101   8.799  20.653  0.00  0.00    +0.000 A 
ATOM     17  C   UNL     1       0.748  10.159  20.689  0.00  0.00    +0.000 A 
BRANCH  12  19
ATOM     18  C   UNL     1       1.249  12.982  18.357  0.00  0.00    +0.000 C 
ATOM     19  O   UNL     1       0.742  12.324  19.508  0.00  0.00    +0.000 OA
ENDBRANCH  12  19
ENDBRANCH   1  15
BRANCH   3  20
ATOM     20  C   UNL     1       3.717   4.669  17.090  0.00  0.00    +0.000 C 
ATOM     21  O   UNL     1       3.082   3.737  16.624  0.00  0.00    +0.000 OA
BRANCH  20  22
ATOM     22  O   UNL     1       4.596   5.433  16.388  0.00  0.00    +0.000 OA
BRANCH  22  23
ATOM     23  C   UNL     1       5.398   4.638  15.529  0.00  0.00    +0.000 C 
BRANCH  23  24
ATOM     24  C   UNL     1       6.788   5.261  15.518  0.00  0.00    +0.000 C 
ATOM     25  O   UNL     1       7.491   5.304  14.507  0.00  0.00    +0.000 OA
BRANCH  24  26
ATOM     26  C   UNL     1       7.318   5.819  16.782  0.00  0.00    +0.000 A 
ATOM     27  C   UNL     1       7.513   4.944  17.860  0.00  0.00    +0.000 A 
ATOM     28  C   UNL     1       7.973   5.426  19.083  0.00  0.00    +0.000 A 
ATOM     29  C   UNL     1       8.250   6.784  19.234  0.00  0.00    +0.000 A 
ATOM     30  C   UNL     1       8.064   7.656  18.152  0.00  0.00    +0.000 A 
ATOM     31  C   UNL     1       7.600   7.179  16.921  0.00  0.00    +0.000 A 
BRANCH  30  32
ATOM     32  N   UNL     1       8.356   9.093  18.302  0.00  0.00    +0.000 N 
ATOM     33  O   UNL     1       7.775   9.870  17.536  0.00  0.00    +0.000 OA
ATOM     34  O   UNL     1       9.183   9.422  19.166  0.00  0.00    +0.000 OA
ENDBRANCH  30  32
ENDBRANCH  24  26
ENDBRANCH  23  24
ENDBRANCH  22  23
ENDBRANCH  20  22
ENDBRANCH   3  20
TORSDOF 8
ENDMDL
MODEL 3
REMARK VINA RESULT:      -8.2      2.411      3.944
REMARK  Name = 
REMARK  10 active torsions:
REMARK  status: ('A' for Active; 'I' for Inactive)
REMARK    1  A    between atoms: C_1  and  O_2
REMARK    2  A    between atoms: O_2  and  C_3
REMARK    3  A    between atoms: C_6  and  C_7
REMARK    4  A    between atoms: C_9  and  C_10
REMARK    5  A    between atoms: C_10  and  O_12
REMARK    6  A    between atoms: O_12  and  C_13
REMARK    7  A    between atoms: C_13  and  C_14
REMARK    8  A    between atoms: C_14  and  C_16
REMARK    9  A    between atoms: C_20  and  N_21
REMARK   10  A    between atoms: C_27  and  C_28
REMARK                            x       y       z     vdW  Elec       q    Type
REMARK                         _______ _______ _______ _____ _____    ______ ____
ROOT
ATOM      1  C   UNL     1       2.483   7.007  19.189  0.00  0.00    +0.000 A 
ATOM      2  C   UNL     1       3.550   6.705  18.373  0.00  0.00    +0.000 A 
ATOM      3  C   UNL     1       3.926   5.386  18.271  0.00  0.00    +0.000 A 
ATOM      4  C   UNL     1       3.648   4.501  19.295  0.00  0.00    +0.000 A 
ATOM      5  C   UNL     1       4.414   3.330  19.481  0.00  0.00    +0.000 A 
ATOM      6  C   UNL     1       4.124   2.429  20.478  0.00  0.00    +0.000 A 
ATOM      7  C   UNL     1       5.000   1.227  20.683  0.00  0.00    +0.000 C 
ATOM      8  C   UNL     1       3.015   2.707  21.271  0.00  0.00    +0.000 A 
ATOM      9  C   UNL     1       2.270   3.890  21.104  0.00  0.00    +0.000 A 
ATOM     10  C   UNL     1       2.608   4.859  20.156  0.00  0.00    +0.000 A 
ATOM     11  N   UNL     1       1.978   6.070  20.045  0.00  0.00    +0.000 NA
ENDROOT
BRANCH   1  15
ATOM     12  C   UNL     1       0.399  10.771  18.883  0.00  0.00    +0.000 A 
ATOM     13  C   UNL     1       0.343  10.034  20.057  0.00  0.00    +0.000 A 
ATOM     14  C   UNL     1       1.096   8.868  20.184  0.00  0.00    +0.000 A 
ATOM     15  C   UNL     1       1.884   8.362  19.121  0.00  0.00    +0.000 A 
ATOM     16  C   UNL     1       1.996   9.168  17.984  0.00  0.00    +0.000 A 
ATOM     17  C   UNL     1       1.253  10.354  17.859  0.00  0.00    +0.000 A 
BRANCH  12  19
ATOM     18  C   UNL     1      -1.822  11.571  19.010  0.00  0.00    +0.000 C 
ATOM     19  O   UNL     1      -0.439  11.847  18.856  0.00  0.00    +0.000 OA
ENDBRANCH  12  19
ENDBRANCH   1  15
BRANCH   3  20
ATOM     20  C   UNL     1       4.249   4.849  16.932  0.00  0.00    +0.000 C 
ATOM     21  O   UNL     1       3.921   3.753  16.508  0.00  0.00    +0.000 OA
BRANCH  20  22
ATOM     22  O   UNL     1       4.871   5.808  16.196  0.00  0.00    +0.000 OA
BRANCH  22  23
ATOM     23  C   UNL     1       6.206   6.009  16.634  0.00  0.00    +0.000 C 
BRANCH  23  24
ATOM     24  C   UNL     1       7.042   4.882  16.041  0.00  0.00    +0.000 C 
ATOM     25  O   UNL     1       7.706   4.110  16.735  0.00  0.00    +0.000 OA
BRANCH  24  26
ATOM     26  C   UNL     1       7.066   4.723  14.571  0.00  0.00    +0.000 A 
ATOM     27  C   UNL     1       7.937   5.538  13.833  0.00  0.00    +0.000 A 
ATOM     28  C   UNL     1       7.971   5.454  12.443  0.00  0.00    +0.000 A 
ATOM     29  C   UNL     1       7.141   4.550  11.782  0.00  0.00    +0.000 A 
ATOM     30  C   UNL     1       6.278   3.730  12.522  0.00  0.00    +0.000 A 
ATOM     31  C   UNL     1       6.237   3.810  13.918  0.00  0.00    +0.000 A 
BRANCH  30  32
ATOM     32  N   UNL     1       5.399   2.770  11.831  0.00  0.00    +0.000 N 
ATOM     33  O   UNL     1       5.903   1.699  11.472  0.00  0.00    +0.000 OA
ATOM     34  O   UNL     1       4.222   3.110  11.632  0.00  0.00    +0.000 OA
ENDBRANCH  30  32
ENDBRANCH  24  26
ENDBRANCH  23  24
ENDBRANCH  22  23
ENDBRANCH  20  22
ENDBRANCH   3  20
TORSDOF 8
ENDMDL
MODEL 4
REMARK VINA RESULT:      -8.2      2.758      4.389
REMARK  Name = 
REMARK  10 active torsions:
REMARK  status: ('A' for Active; 'I' for Inactive)
REMARK    1  A    between atoms: C_1  and  O_2
REMARK    2  A    between atoms: O_2  and  C_3
REMARK    3  A    between atoms: C_6  and  C_7
REMARK    4  A    between atoms: C_9  and  C_10
REMARK    5  A    between atoms: C_10  and  O_12
REMARK    6  A    between atoms: O_12  and  C_13
REMARK    7  A    between atoms: C_13  and  C_14
REMARK    8  A    between atoms: C_14  and  C_16
REMARK    9  A    between atoms: C_20  and  N_21
REMARK   10  A    between atoms: C_27  and  C_28
REMARK                            x       y       z     vdW  Elec       q    Type
REMARK                         _______ _______ _______ _____ _____    ______ ____
ROOT
ATOM      1  C   UNL     1       2.671   6.813  18.872  0.00  0.00    +0.000 A 
ATOM      2  C   UNL     1       3.826   6.554  19.575  0.00  0.00    +0.000 A 
ATOM      3  C   UNL     1       4.492   5.381  19.304  0.00  0.00    +0.000 A 
ATOM      4  C   UNL     1       3.809   4.293  18.796  0.00  0.00    +0.000 A 
ATOM      5  C   UNL     1       4.288   2.977  18.974  0.00  0.00    +0.000 A 
ATOM      6  C   UNL     1       3.629   1.892  18.444  0.00  0.00    +0.000 A 
ATOM      7  C   UNL     1       4.135   0.504  18.708  0.00  0.00    +0.000 C 
ATOM      8  C   UNL     1       2.490   2.157  17.690  0.00  0.00    +0.000 A 
ATOM      9  C   UNL     1       1.997   3.467  17.539  0.00  0.00    +0.000 A 
ATOM     10  C   UNL     1       2.602   4.569  18.147  0.00  0.00    +0.000 A 
ATOM     11  N   UNL     1       2.084   5.837  18.117  0.00  0.00    +0.000 NA
ENDROOT
BRANCH   1  15
ATOM     12  C   UNL     1       0.583  10.585  19.005  0.00  0.00    +0.000 A 
ATOM     13  C   UNL     1       0.695   9.807  20.148  0.00  0.00    +0.000 A 
ATOM     14  C   UNL     1       1.453   8.638  20.123  0.00  0.00    +0.000 A 
ATOM     15  C   UNL     1       2.075   8.169  18.939  0.00  0.00    +0.000 A 
ATOM     16  C   UNL     1       2.024   9.015  17.827  0.00  0.00    +0.000 A 
ATOM     17  C   UNL     1       1.277  10.204  17.853  0.00  0.00    +0.000 A 
BRANCH  12  19
ATOM     18  C   UNL     1       0.352  12.856  19.618  0.00  0.00    +0.000 C 
ATOM     19  O   UNL     1      -0.244  11.661  19.138  0.00  0.00    +0.000 OA
ENDBRANCH  12  19
ENDBRANCH   1  15
BRANCH   3  20
ATOM     20  C   UNL     1       5.964   5.423  19.175  0.00  0.00    +0.000 C 
ATOM     21  O   UNL     1       6.760   4.921  19.953  0.00  0.00    +0.000 OA
BRANCH  20  22
ATOM     22  O   UNL     1       6.300   6.008  17.995  0.00  0.00    +0.000 OA
BRANCH  22  23
ATOM     23  C   UNL     1       6.588   5.036  17.001  0.00  0.00    +0.000 C 
BRANCH  23  24
ATOM     24  C   UNL     1       5.801   5.429  15.757  0.00  0.00    +0.000 C 
ATOM     25  O   UNL     1       4.792   6.134  15.803  0.00  0.00    +0.000 OA
BRANCH  24  26
ATOM     26  C   UNL     1       6.263   4.925  14.445  0.00  0.00    +0.000 A 
ATOM     27  C   UNL     1       7.471   5.424  13.935  0.00  0.00    +0.000 A 
ATOM     28  C   UNL     1       7.931   5.011  12.687  0.00  0.00    +0.000 A 
ATOM     29  C   UNL     1       7.193   4.090  11.946  0.00  0.00    +0.000 A 
ATOM     30  C   UNL     1       5.991   3.585  12.462  0.00  0.00    +0.000 A 
ATOM     31  C   UNL     1       5.521   3.997  13.713  0.00  0.00    +0.000 A 
BRANCH  30  32
ATOM     32  N   UNL     1       5.206   2.609  11.685  0.00  0.00    +0.000 N 
ATOM     33  O   UNL     1       4.055   2.934  11.369  0.00  0.00    +0.000 OA
ATOM     34  O   UNL     1       5.740   1.521  11.424  0.00  0.00    +0.000 OA
ENDBRANCH  30  32
ENDBRANCH  24  26
ENDBRANCH  23  24
ENDBRANCH  22  23
ENDBRANCH  20  22
ENDBRANCH   3  20
TORSDOF 8
ENDMDL
MODEL 5
REMARK VINA RESULT:      -8.1      2.453      4.087
REMARK  Name = 
REMARK  10 active torsions:
REMARK  status: ('A' for Active; 'I' for Inactive)
REMARK    1  A    between atoms: C_1  and  O_2
REMARK    2  A    between atoms: O_2  and  C_3
REMARK    3  A    between atoms: C_6  and  C_7
REMARK    4  A    between atoms: C_9  and  C_10
REMARK    5  A    between atoms: C_10  and  O_12
REMARK    6  A    between atoms: O_12  and  C_13
REMARK    7  A    between atoms: C_13  and  C_14
REMARK    8  A    between atoms: C_14  and  C_16
REMARK    9  A    between atoms: C_20  and  N_21
REMARK   10  A    between atoms: C_27  and  C_28
REMARK                            x       y       z     vdW  Elec       q    Type
REMARK                         _______ _______ _______ _____ _____    ______ ____
ROOT
ATOM      1  C   UNL     1       2.516   6.907  19.218  0.00  0.00    +0.000 A 
ATOM      2  C   UNL     1       3.599   6.604  18.425  0.00  0.00    +0.000 A 
ATOM      3  C   UNL     1       3.981   5.285  18.338  0.00  0.00    +0.000 A 
ATOM      4  C   UNL     1       3.687   4.406  19.362  0.00  0.00    +0.000 A 
ATOM      5  C   UNL     1       4.452   3.238  19.570  0.00  0.00    +0.000 A 
ATOM      6  C   UNL     1       4.146   2.343  20.569  0.00  0.00    +0.000 A 
ATOM      7  C   UNL     1       5.022   1.146  20.797  0.00  0.00    +0.000 C 
ATOM      8  C   UNL     1       3.022   2.623  21.339  0.00  0.00    +0.000 A 
ATOM      9  C   UNL     1       2.277   3.802  21.150  0.00  0.00    +0.000 A 
ATOM     10  C   UNL     1       2.629   4.767  20.202  0.00  0.00    +0.000 A 
ATOM     11  N   UNL     1       1.997   5.975  20.072  0.00  0.00    +0.000 NA
ENDROOT
BRANCH   1  15
ATOM     12  C   UNL     1       1.124  10.987  19.064  0.00  0.00    +0.000 A 
ATOM     13  C   UNL     1       1.739  10.416  17.960  0.00  0.00    +0.000 A 
ATOM     14  C   UNL     1       2.097   9.070  17.982  0.00  0.00    +0.000 A 
ATOM     15  C   UNL     1       1.914   8.260  19.130  0.00  0.00    +0.000 A 
ATOM     16  C   UNL     1       1.213   8.833  20.195  0.00  0.00    +0.000 A 
ATOM     17  C   UNL     1       0.831  10.185  20.170  0.00  0.00    +0.000 A 
BRANCH  12  19
ATOM     18  C   UNL     1      -0.387  12.780  19.367  0.00  0.00    +0.000 C 
ATOM     19  O   UNL     1       0.889  12.326  18.946  0.00  0.00    +0.000 OA
ENDBRANCH  12  19
ENDBRANCH   1  15
BRANCH   3  20
ATOM     20  C   UNL     1       4.330   4.741  17.009  0.00  0.00    +0.000 C 
ATOM     21  O   UNL     1       4.095   3.607  16.621  0.00  0.00    +0.000 OA
BRANCH  20  22
ATOM     22  O   UNL     1       4.852   5.729  16.236  0.00  0.00    +0.000 OA
BRANCH  22  23
ATOM     23  C   UNL     1       6.204   5.992  16.578  0.00  0.00    +0.000 C 
BRANCH  23  24
ATOM     24  C   UNL     1       7.040   4.868  15.980  0.00  0.00    +0.000 C 
ATOM     25  O   UNL     1       7.714   4.101  16.668  0.00  0.00    +0.000 OA
BRANCH  24  26
ATOM     26  C   UNL     1       7.051   4.707  14.509  0.00  0.00    +0.000 A 
ATOM     27  C   UNL     1       7.923   5.514  13.764  0.00  0.00    +0.000 A 
ATOM     28  C   UNL     1       7.945   5.428  12.374  0.00  0.00    +0.000 A 
ATOM     29  C   UNL     1       7.103   4.530  11.721  0.00  0.00    +0.000 A 
ATOM     30  C   UNL     1       6.239   3.717  12.468  0.00  0.00    +0.000 A 
ATOM     31  C   UNL     1       6.210   3.799  13.864  0.00  0.00    +0.000 A 
BRANCH  30  32
ATOM     32  N   UNL     1       5.347   2.763  11.786  0.00  0.00    +0.000 N 
ATOM     33  O   UNL     1       4.187   3.132  11.567  0.00  0.00    +0.000 OA
ATOM     34  O   UNL     1       5.810   1.647  11.501  0.00  0.00    +0.000 OA
ENDBRANCH  30  32
ENDBRANCH  24  26
ENDBRANCH  23  24
ENDBRANCH  22  23
ENDBRANCH  20  22
ENDBRANCH   3  20
TORSDOF 8
ENDMDL
MODEL 6
REMARK VINA RESULT:      -7.9      6.693     10.305
REMARK  Name = 
REMARK  10 active torsions:
REMARK  status: ('A' for Active; 'I' for Inactive)
REMARK    1  A    between atoms: C_1  and  O_2
REMARK    2  A    between atoms: O_2  and  C_3
REMARK    3  A    between atoms: C_6  and  C_7
REMARK    4  A    between atoms: C_9  and  C_10
REMARK    5  A    between atoms: C_10  and  O_12
REMARK    6  A    between atoms: O_12  and  C_13
REMARK    7  A    between atoms: C_13  and  C_14
REMARK    8  A    between atoms: C_14  and  C_16
REMARK    9  A    between atoms: C_20  and  N_21
REMARK   10  A    between atoms: C_27  and  C_28
REMARK                            x       y       z     vdW  Elec       q    Type
REMARK                         _______ _______ _______ _____ _____    ______ ____
ROOT
ATOM      1  C   UNL     1      -2.042  12.293  18.970  0.00  0.00    +0.000 A 
ATOM      2  C   UNL     1      -1.255  11.221  18.616  0.00  0.00    +0.000 A 
ATOM      3  C   UNL     1       0.106  11.345  18.773  0.00  0.00    +0.000 A 
ATOM      4  C   UNL     1       0.699  12.593  18.753  0.00  0.00    +0.000 A 
ATOM      5  C   UNL     1       2.057  12.755  18.405  0.00  0.00    +0.000 A 
ATOM      6  C   UNL     1       2.662  13.990  18.413  0.00  0.00    +0.000 A 
ATOM      7  C   UNL     1       4.090  14.130  17.976  0.00  0.00    +0.000 C 
ATOM      8  C   UNL     1       1.881  15.068  18.820  0.00  0.00    +0.000 A 
ATOM      9  C   UNL     1       0.519  14.909  19.138  0.00  0.00    +0.000 A 
ATOM     10  C   UNL     1      -0.134  13.677  19.045  0.00  0.00    +0.000 A 
ATOM     11  N   UNL     1      -1.480  13.510  19.234  0.00  0.00    +0.000 NA
ENDROOT
BRANCH   1  15
ATOM     12  C   UNL     1      -6.240  11.476  19.531  0.00  0.00    +0.000 A 
ATOM     13  C   UNL     1      -5.586  12.378  20.358  0.00  0.00    +0.000 A 
ATOM     14  C   UNL     1      -4.256  12.711  20.111  0.00  0.00    +0.000 A 
ATOM     15  C   UNL     1      -3.510  12.108  19.068  0.00  0.00    +0.000 A 
ATOM     16  C   UNL     1      -4.215  11.274  18.195  0.00  0.00    +0.000 A 
ATOM     17  C   UNL     1      -5.562  10.950  18.429  0.00  0.00    +0.000 A 
BRANCH  12  19
ATOM     18  C   UNL     1      -7.710   9.897  20.498  0.00  0.00    +0.000 C 
ATOM     19  O   UNL     1      -7.513  11.178  19.921  0.00  0.00    +0.000 OA
ENDBRANCH  12  19
ENDBRANCH   1  15
BRANCH   3  20
ATOM     20  C   UNL     1       0.852  10.210  19.355  0.00  0.00    +0.000 C 
ATOM     21  O   UNL     1       1.410   9.327  18.724  0.00  0.00    +0.000 OA
BRANCH  20  22
ATOM     22  O   UNL     1       0.923  10.358  20.705  0.00  0.00    +0.000 OA
BRANCH  22  23
ATOM     23  C   UNL     1      -0.156   9.701  21.353  0.00  0.00    +0.000 C 
BRANCH  23  24
ATOM     24  C   UNL     1      -0.297  10.334  22.731  0.00  0.00    +0.000 C 
ATOM     25  O   UNL     1       0.194   9.836  23.746  0.00  0.00    +0.000 OA
BRANCH  24  26
ATOM     26  C   UNL     1      -1.072  11.588  22.853  0.00  0.00    +0.000 A 
ATOM     27  C   UNL     1      -0.447  12.788  22.483  0.00  0.00    +0.000 A 
ATOM     28  C   UNL     1      -1.120  14.000  22.614  0.00  0.00    +0.000 A 
ATOM     29  C   UNL     1      -2.423  14.021  23.108  0.00  0.00    +0.000 A 
ATOM     30  C   UNL     1      -3.049  12.819  23.469  0.00  0.00    +0.000 A 
ATOM     31  C   UNL     1      -2.379  11.598  23.342  0.00  0.00    +0.000 A 
BRANCH  30  32
ATOM     32  N   UNL     1      -4.428  12.832  23.990  0.00  0.00    +0.000 N 
ATOM     33  O   UNL     1      -5.050  13.898  23.915  0.00  0.00    +0.000 OA
ATOM     34  O   UNL     1      -4.861  11.783  24.492  0.00  0.00    +0.000 OA
ENDBRANCH  30  32
ENDBRANCH  24  26
ENDBRANCH  23  24
ENDBRANCH  22  23
ENDBRANCH  20  22
ENDBRANCH   3  20
TORSDOF 8
ENDMDL
MODEL 7
REMARK VINA RESULT:      -7.8      3.238      9.907
REMARK  Name = 
REMARK  10 active torsions:
REMARK  status: ('A' for Active; 'I' for Inactive)
REMARK    1  A    between atoms: C_1  and  O_2
REMARK    2  A    between atoms: O_2  and  C_3
REMARK    3  A    between atoms: C_6  and  C_7
REMARK    4  A    between atoms: C_9  and  C_10
REMARK    5  A    between atoms: C_10  and  O_12
REMARK    6  A    between atoms: O_12  and  C_13
REMARK    7  A    between atoms: C_13  and  C_14
REMARK    8  A    between atoms: C_14  and  C_16
REMARK    9  A    between atoms: C_20  and  N_21
REMARK   10  A    between atoms: C_27  and  C_28
REMARK                            x       y       z     vdW  Elec       q    Type
REMARK                         _______ _______ _______ _____ _____    ______ ____
ROOT
ATOM      1  C   UNL     1       1.677   8.450  19.275  0.00  0.00    +0.000 A 
ATOM      2  C   UNL     1       1.114   9.523  18.623  0.00  0.00    +0.000 A 
ATOM      3  C   UNL     1       0.626  10.556  19.390  0.00  0.00    +0.000 A 
ATOM      4  C   UNL     1       0.218  10.326  20.690  0.00  0.00    +0.000 A 
ATOM      5  C   UNL     1      -0.720  11.169  21.325  0.00  0.00    +0.000 A 
ATOM      6  C   UNL     1      -1.107  10.964  22.629  0.00  0.00    +0.000 A 
ATOM      7  C   UNL     1      -2.153  11.844  23.247  0.00  0.00    +0.000 C 
ATOM      8  C   UNL     1      -0.500   9.910  23.305  0.00  0.00    +0.000 A 
ATOM      9  C   UNL     1       0.412   9.053  22.662  0.00  0.00    +0.000 A 
ATOM     10  C   UNL     1       0.746   9.191  21.312  0.00  0.00    +0.000 A 
ATOM     11  N   UNL     1       1.538   8.308  20.627  0.00  0.00    +0.000 NA
ENDROOT
BRANCH   1  15
ATOM     12  C   UNL     1       4.130   5.487  17.324  0.00  0.00    +0.000 A 
ATOM     13  C   UNL     1       3.027   5.100  18.070  0.00  0.00    +0.000 A 
ATOM     14  C   UNL     1       2.183   6.065  18.616  0.00  0.00    +0.000 A 
ATOM     15  C   UNL     1       2.444   7.452  18.492  0.00  0.00    +0.000 A 
ATOM     16  C   UNL     1       3.509   7.817  17.662  0.00  0.00    +0.000 A 
ATOM     17  C   UNL     1       4.351   6.847  17.093  0.00  0.00    +0.000 A 
BRANCH  12  19
ATOM     18  C   UNL     1       4.434   3.147  17.183  0.00  0.00    +0.000 C 
ATOM     19  O   UNL     1       4.916   4.453  16.907  0.00  0.00    +0.000 OA
ENDBRANCH  12  19
ENDBRANCH   1  15
BRANCH   3  20
ATOM     20  C   UNL     1       0.919  11.942  18.969  0.00  0.00    +0.000 C 
ATOM     21  O   UNL     1       1.792  12.657  19.433  0.00  0.00    +0.000 OA
BRANCH  20  22
ATOM     22  O   UNL     1       0.141  12.267  17.902  0.00  0.00    +0.000 OA
BRANCH  22  23
ATOM     23  C   UNL     1      -1.128  12.748  18.317  0.00  0.00    +0.000 C 
BRANCH  23  24
ATOM     24  C   UNL     1      -2.165  11.746  17.827  0.00  0.00    +0.000 C 
ATOM     25  O   UNL     1      -1.947  10.959  16.904  0.00  0.00    +0.000 OA
BRANCH  24  26
ATOM     26  C   UNL     1      -3.494  11.733  18.479  0.00  0.00    +0.000 A 
ATOM     27  C   UNL     1      -4.547  11.085  17.817  0.00  0.00    +0.000 A 
ATOM     28  C   UNL     1      -5.825  11.078  18.370  0.00  0.00    +0.000 A 
ATOM     29  C   UNL     1      -6.057  11.709  19.591  0.00  0.00    +0.000 A 
ATOM     30  C   UNL     1      -5.001  12.347  20.255  0.00  0.00    +0.000 A 
ATOM     31  C   UNL     1      -3.715  12.361  19.705  0.00  0.00    +0.000 A 
BRANCH  30  32
ATOM     32  N   UNL     1      -5.237  13.015  21.548  0.00  0.00    +0.000 N 
ATOM     33  O   UNL     1      -4.963  14.218  21.620  0.00  0.00    +0.000 OA
ATOM     34  O   UNL     1      -5.668  12.321  22.482  0.00  0.00    +0.000 OA
ENDBRANCH  30  32
ENDBRANCH  24  26
ENDBRANCH  23  24
ENDBRANCH  22  23
ENDBRANCH  20  22
ENDBRANCH   3  20
TORSDOF 8
ENDMDL
MODEL 8
REMARK VINA RESULT:      -7.8      2.601      4.170
REMARK  Name = 
REMARK  10 active torsions:
REMARK  status: ('A' for Active; 'I' for Inactive)
REMARK    1  A    between atoms: C_1  and  O_2
REMARK    2  A    between atoms: O_2  and  C_3
REMARK    3  A    between atoms: C_6  and  C_7
REMARK    4  A    between atoms: C_9  and  C_10
REMARK    5  A    between atoms: C_10  and  O_12
REMARK    6  A    between atoms: O_12  and  C_13
REMARK    7  A    between atoms: C_13  and  C_14
REMARK    8  A    between atoms: C_14  and  C_16
REMARK    9  A    between atoms: C_20  and  N_21
REMARK   10  A    between atoms: C_27  and  C_28
REMARK                            x       y       z     vdW  Elec       q    Type
REMARK                         _______ _______ _______ _____ _____    ______ ____
ROOT
ATOM      1  C   UNL     1       1.880   7.155  20.391  0.00  0.00    +0.000 A 
ATOM      2  C   UNL     1       2.960   7.117  19.538  0.00  0.00    +0.000 A 
ATOM      3  C   UNL     1       3.412   5.884  19.129  0.00  0.00    +0.000 A 
ATOM      4  C   UNL     1       3.189   4.766  19.910  0.00  0.00    +0.000 A 
ATOM      5  C   UNL     1       4.021   3.630  19.821  0.00  0.00    +0.000 A 
ATOM      6  C   UNL     1       3.787   2.502  20.573  0.00  0.00    +0.000 A 
ATOM      7  C   UNL     1       4.731   1.339  20.495  0.00  0.00    +0.000 C 
ATOM      8  C   UNL     1       2.666   2.520  21.397  0.00  0.00    +0.000 A 
ATOM      9  C   UNL     1       1.854   3.665  21.508  0.00  0.00    +0.000 A 
ATOM     10  C   UNL     1       2.131   4.850  20.821  0.00  0.00    +0.000 A 
ATOM     11  N   UNL     1       1.432   6.014  20.995  0.00  0.00    +0.000 NA
ENDROOT
BRANCH   1  15
ATOM     12  C   UNL     1      -0.432  10.721  21.124  0.00  0.00    +0.000 A 
ATOM     13  C   UNL     1      -0.013   9.930  22.183  0.00  0.00    +0.000 A 
ATOM     14  C   UNL     1       0.816   8.835  21.948  0.00  0.00    +0.000 A 
ATOM     15  C   UNL     1       1.204   8.451  20.640  0.00  0.00    +0.000 A 
ATOM     16  C   UNL     1       0.843   9.314  19.601  0.00  0.00    +0.000 A 
ATOM     17  C   UNL     1       0.024  10.431  19.836  0.00  0.00    +0.000 A 
BRANCH  12  19
ATOM     18  C   UNL     1      -1.670  11.771  22.844  0.00  0.00    +0.000 C 
ATOM     19  O   UNL     1      -1.297  11.717  21.475  0.00  0.00    +0.000 OA
ENDBRANCH  12  19
ENDBRANCH   1  15
BRANCH   3  20
ATOM     20  C   UNL     1       3.760   5.701  17.705  0.00  0.00    +0.000 C 
ATOM     21  O   UNL     1       3.051   5.178  16.860  0.00  0.00    +0.000 OA
BRANCH  20  22
ATOM     22  O   UNL     1       4.950   6.306  17.447  0.00  0.00    +0.000 OA
BRANCH  22  23
ATOM     23  C   UNL     1       5.250   6.284  16.059  0.00  0.00    +0.000 C 
BRANCH  23  24
ATOM     24  C   UNL     1       6.133   5.067  15.816  0.00  0.00    +0.000 C 
ATOM     25  O   UNL     1       6.572   4.369  16.731  0.00  0.00    +0.000 OA
BRANCH  24  26
ATOM     26  C   UNL     1       6.490   4.725  14.421  0.00  0.00    +0.000 A 
ATOM     27  C   UNL     1       7.576   5.392  13.835  0.00  0.00    +0.000 A 
ATOM     28  C   UNL     1       7.928   5.133  12.513  0.00  0.00    +0.000 A 
ATOM     29  C   UNL     1       7.205   4.202  11.771  0.00  0.00    +0.000 A 
ATOM     30  C   UNL     1       6.126   3.529  12.362  0.00  0.00    +0.000 A 
ATOM     31  C   UNL     1       5.764   3.785  13.688  0.00  0.00    +0.000 A 
BRANCH  30  32
ATOM     32  N   UNL     1       5.356   2.541  11.585  0.00  0.00    +0.000 N 
ATOM     33  O   UNL     1       4.184   2.825  11.312  0.00  0.00    +0.000 OA
ATOM     34  O   UNL     1       5.926   1.482  11.280  0.00  0.00    +0.000 OA
ENDBRANCH  30  32
ENDBRANCH  24  26
ENDBRANCH  23  24
ENDBRANCH  22  23
ENDBRANCH  20  22
ENDBRANCH   3  20
TORSDOF 8
ENDMDL
MODEL 9
REMARK VINA RESULT:      -7.7      2.846      4.560
REMARK  Name = 
REMARK  10 active torsions:
REMARK  status: ('A' for Active; 'I' for Inactive)
REMARK    1  A    between atoms: C_1  and  O_2
REMARK    2  A    between atoms: O_2  and  C_3
REMARK    3  A    between atoms: C_6  and  C_7
REMARK    4  A    between atoms: C_9  and  C_10
REMARK    5  A    between atoms: C_10  and  O_12
REMARK    6  A    between atoms: O_12  and  C_13
REMARK    7  A    between atoms: C_13  and  C_14
REMARK    8  A    between atoms: C_14  and  C_16
REMARK    9  A    between atoms: C_20  and  N_21
REMARK   10  A    between atoms: C_27  and  C_28
REMARK                            x       y       z     vdW  Elec       q    Type
REMARK                         _______ _______ _______ _____ _____    ______ ____
ROOT
ATOM      1  C   UNL     1       2.521   6.866  18.915  0.00  0.00    +0.000 A 
ATOM      2  C   UNL     1       3.751   6.668  19.502  0.00  0.00    +0.000 A 
ATOM      3  C   UNL     1       4.393   5.477  19.258  0.00  0.00    +0.000 A 
ATOM      4  C   UNL     1       3.668   4.349  18.925  0.00  0.00    +0.000 A 
ATOM      5  C   UNL     1       4.176   3.053  19.159  0.00  0.00    +0.000 A 
ATOM      6  C   UNL     1       3.473   1.926  18.802  0.00  0.00    +0.000 A 
ATOM      7  C   UNL     1       4.020   0.567  19.124  0.00  0.00    +0.000 C 
ATOM      8  C   UNL     1       2.253   2.125  18.162  0.00  0.00    +0.000 A 
ATOM      9  C   UNL     1       1.733   3.417  17.957  0.00  0.00    +0.000 A 
ATOM     10  C   UNL     1       2.392   4.568  18.397  0.00  0.00    +0.000 A 
ATOM     11  N   UNL     1       1.862   5.829  18.318  0.00  0.00    +0.000 NA
ENDROOT
BRANCH   1  15
ATOM     12  C   UNL     1       1.135  10.946  19.103  0.00  0.00    +0.000 A 
ATOM     13  C   UNL     1       1.803  10.486  17.978  0.00  0.00    +0.000 A 
ATOM     14  C   UNL     1       2.162   9.143  17.883  0.00  0.00    +0.000 A 
ATOM     15  C   UNL     1       1.923   8.223  18.934  0.00  0.00    +0.000 A 
ATOM     16  C   UNL     1       1.170   8.689  20.015  0.00  0.00    +0.000 A 
ATOM     17  C   UNL     1       0.789  10.038  20.107  0.00  0.00    +0.000 A 
BRANCH  12  19
ATOM     18  C   UNL     1       1.959  13.110  18.626  0.00  0.00    +0.000 C 
ATOM     19  O   UNL     1       0.905  12.291  19.108  0.00  0.00    +0.000 OA
ENDBRANCH  12  19
ENDBRANCH   1  15
BRANCH   3  20
ATOM     20  C   UNL     1       5.840   5.507  18.959  0.00  0.00    +0.000 C 
ATOM     21  O   UNL     1       6.728   5.112  19.698  0.00  0.00    +0.000 OA
BRANCH  20  22
ATOM     22  O   UNL     1       6.032   5.939  17.684  0.00  0.00    +0.000 OA
BRANCH  22  23
ATOM     23  C   UNL     1       6.757   4.987  16.921  0.00  0.00    +0.000 C 
BRANCH  23  24
ATOM     24  C   UNL     1       5.800   4.440  15.870  0.00  0.00    +0.000 C 
ATOM     25  O   UNL     1       4.646   4.099  16.134  0.00  0.00    +0.000 OA
BRANCH  24  26
ATOM     26  C   UNL     1       6.287   4.299  14.480  0.00  0.00    +0.000 A 
ATOM     27  C   UNL     1       7.336   5.131  14.061  0.00  0.00    +0.000 A 
ATOM     28  C   UNL     1       7.805   5.064  12.752  0.00  0.00    +0.000 A 
ATOM     29  C   UNL     1       7.237   4.159  11.856  0.00  0.00    +0.000 A 
ATOM     30  C   UNL     1       6.196   3.322  12.280  0.00  0.00    +0.000 A 
ATOM     31  C   UNL     1       5.717   3.385  13.593  0.00  0.00    +0.000 A 
BRANCH  30  32
ATOM     32  N   UNL     1       5.591   2.361  11.340  0.00  0.00    +0.000 N 
ATOM     33  O   UNL     1       4.443   2.601  10.948  0.00  0.00    +0.000 OA
ATOM     34  O   UNL     1       6.262   1.366  11.026  0.00  0.00    +0.000 OA
ENDBRANCH  30  32
ENDBRANCH  24  26
ENDBRANCH  23  24
ENDBRANCH  22  23
ENDBRANCH  20  22
ENDBRANCH   3  20
TORSDOF 8
ENDMDL
