MODEL 1
REMARK VINA RESULT:      -6.4      0.000      0.000
REMARK  Name = 
REMARK  4 active torsions:
REMARK  status: ('A' for Active; 'I' for Inactive)
REMARK    1  A    between atoms: C_2  and  C_3
REMARK    2  A    between atoms: C_3  and  C_4
REMARK    3  A    between atoms: N_12  and  S_13
REMARK    4  A    between atoms: S_13  and  C_16
REMARK                            x       y       z     vdW  Elec       q    Type
REMARK                         _______ _______ _______ _____ _____    ______ ____
ROOT
ATOM      1  O   UNL     1       2.306   6.409  20.411  0.00  0.00    +0.000 OA
ATOM      2  C   UNL     1       2.248   7.222  19.482  0.00  0.00    +0.000 C 
ATOM      3  N   UNL     1       1.583   8.431  19.614  0.00  0.00    +0.000 N 
ATOM      4  C   UNL     1       1.465   9.452  18.564  0.00  0.00    +0.000 C 
ATOM      5  C   UNL     1       0.054  10.058  18.503  0.00  0.00    +0.000 C 
ATOM      6  N   UNL     1      -0.410  10.533  19.842  0.00  0.00    +0.000 NA
ATOM      7  C   UNL     1      -0.353   9.399  20.825  0.00  0.00    +0.000 C 
ATOM      8  C   UNL     1       1.064   8.826  20.935  0.00  0.00    +0.000 C 
ENDROOT
BRANCH   6   9
ATOM      9  S   UNL     1       0.249  12.012  20.393  0.00  0.00    +0.000 S 
ATOM     10  O   UNL     1       1.353  11.707  21.281  0.00  0.00    +0.000 OA
ATOM     11  O   UNL     1       0.433  12.887  19.257  0.00  0.00    +0.000 OA
BRANCH   9  12
ATOM     12  C   UNL     1      -1.068  12.670  21.387  0.00  0.00    +0.000 A 
ATOM     13  C   UNL     1      -0.774  13.150  22.666  0.00  0.00    +0.000 A 
ATOM     14  C   UNL     1      -1.802  13.651  23.464  0.00  0.00    +0.000 A 
ATOM     15  C   UNL     1      -3.111  13.685  22.977  0.00  0.00    +0.000 A 
ATOM     16  C   UNL     1      -3.397  13.225  21.691  0.00  0.00    +0.000 A 
ATOM     17  C   UNL     1      -2.375  12.715  20.889  0.00  0.00    +0.000 A 
ENDBRANCH   9  12
ENDBRANCH   6   9
BRANCH   2  18
ATOM     18  C   UNL     1       2.909   6.890  18.150  0.00  0.00    +0.000 C 
BRANCH  18  19
ATOM     19  C   UNL     1       2.958   5.405  17.939  0.00  0.00    +0.000 A 
ATOM     20  C   UNL     1       1.907   4.541  17.695  0.00  0.00    +0.000 A 
ATOM     21  C   UNL     1       2.329   3.184  17.590  0.00  0.00    +0.000 A 
ATOM     22  C   UNL     1       3.689   3.054  17.754  0.00  0.00    +0.000 A 
ATOM     23  S   UNL     1       4.444   4.556  18.050  0.00  0.00    +0.000 S 
ENDBRANCH  18  19
ENDBRANCH   2  18
TORSDOF 4
ENDMDL
MODEL 2
REMARK VINA RESULT:      -6.4      0.153      1.021
REMARK  Name = 
REMARK  4 active torsions:
REMARK  status: ('A' for Active; 'I' for Inactive)
REMARK    1  A    between atoms: C_2  and  C_3
REMARK    2  A    between atoms: C_3  and  C_4
REMARK    3  A    between atoms: N_12  and  S_13
REMARK    4  A    between atoms: S_13  and  C_16
REMARK                            x       y       z     vdW  Elec       q    Type
REMARK                         _______ _______ _______ _____ _____    ______ ____
ROOT
ATOM      1  O   UNL     1       2.377   6.318  20.457  0.00  0.00    +0.000 OA
ATOM      2  C   UNL     1       2.287   7.143  19.541  0.00  0.00    +0.000 C 
ATOM      3  N   UNL     1       1.623   8.349  19.712  0.00  0.00    +0.000 N 
ATOM      4  C   UNL     1       1.469   9.383  18.680  0.00  0.00    +0.000 C 
ATOM      5  C   UNL     1       0.055   9.985  18.673  0.00  0.00    +0.000 C 
ATOM      6  N   UNL     1      -0.367  10.441  20.033  0.00  0.00    +0.000 NA
ATOM      7  C   UNL     1      -0.275   9.293  20.998  0.00  0.00    +0.000 C 
ATOM      8  C   UNL     1       1.147   8.723  21.055  0.00  0.00    +0.000 C 
ENDROOT
BRANCH   6   9
ATOM      9  S   UNL     1       0.305  11.913  20.583  0.00  0.00    +0.000 S 
ATOM     10  O   UNL     1       1.372  11.600  21.512  0.00  0.00    +0.000 OA
ATOM     11  O   UNL     1       0.545  12.767  19.441  0.00  0.00    +0.000 OA
BRANCH   9  12
ATOM     12  C   UNL     1      -1.029  12.615  21.523  0.00  0.00    +0.000 A 
ATOM     13  C   UNL     1      -2.325  12.554  21.005  0.00  0.00    +0.000 A 
ATOM     14  C   UNL     1      -3.378  13.119  21.724  0.00  0.00    +0.000 A 
ATOM     15  C   UNL     1      -3.135  13.725  22.959  0.00  0.00    +0.000 A 
ATOM     16  C   UNL     1      -1.842  13.764  23.483  0.00  0.00    +0.000 A 
ATOM     17  C   UNL     1      -0.782  13.208  22.767  0.00  0.00    +0.000 A 
ENDBRANCH   9  12
ENDBRANCH   6   9
BRANCH   2  18
ATOM     18  C   UNL     1       2.905   6.832  18.184  0.00  0.00    +0.000 C 
BRANCH  18  19
ATOM     19  C   UNL     1       2.939   5.350  17.945  0.00  0.00    +0.000 A 
ATOM     20  C   UNL     1       1.877   4.497  17.719  0.00  0.00    +0.000 A 
ATOM     21  C   UNL     1       2.287   3.139  17.577  0.00  0.00    +0.000 A 
ATOM     22  C   UNL     1       3.650   2.999  17.695  0.00  0.00    +0.000 A 
ATOM     23  S   UNL     1       4.424   4.492  17.994  0.00  0.00    +0.000 S 
ENDBRANCH  18  19
ENDBRANCH   2  18
TORSDOF 4
ENDMDL
MODEL 3
REMARK VINA RESULT:      -6.3      2.679      9.055
REMARK  Name = 
REMARK  4 active torsions:
REMARK  status: ('A' for Active; 'I' for Inactive)
REMARK    1  A    between atoms: C_2  and  C_3
REMARK    2  A    between atoms: C_3  and  C_4
REMARK    3  A    between atoms: N_12  and  S_13
REMARK    4  A    between atoms: S_13  and  C_16
REMARK                            x       y       z     vdW  Elec       q    Type
REMARK                         _______ _______ _______ _____ _____    ______ ____
ROOT
ATOM      1  O   UNL     1       1.773   9.381  17.764  0.00  0.00    +0.000 OA
ATOM      2  C   UNL     1       1.771   8.709  18.801  0.00  0.00    +0.000 C 
ATOM      3  N   UNL     1       2.408   7.480  18.872  0.00  0.00    +0.000 N 
ATOM      4  C   UNL     1       2.455   6.618  20.062  0.00  0.00    +0.000 C 
ATOM      5  C   UNL     1       2.246   5.137  19.710  0.00  0.00    +0.000 C 
ATOM      6  N   UNL     1       3.161   4.685  18.618  0.00  0.00    +0.000 NA
ATOM      7  C   UNL     1       2.970   5.557  17.410  0.00  0.00    +0.000 C 
ATOM      8  C   UNL     1       3.234   7.031  17.738  0.00  0.00    +0.000 C 
ENDROOT
BRANCH   6   9
ATOM      9  S   UNL     1       4.786   4.395  19.062  0.00  0.00    +0.000 S 
ATOM     10  O   UNL     1       5.235   5.510  19.871  0.00  0.00    +0.000 OA
ATOM     11  O   UNL     1       4.899   3.037  19.544  0.00  0.00    +0.000 OA
BRANCH   9  12
ATOM     12  C   UNL     1       5.632   4.497  17.502  0.00  0.00    +0.000 A 
ATOM     13  C   UNL     1       6.656   5.434  17.349  0.00  0.00    +0.000 A 
ATOM     14  C   UNL     1       7.314   5.537  16.123  0.00  0.00    +0.000 A 
ATOM     15  C   UNL     1       6.957   4.696  15.066  0.00  0.00    +0.000 A 
ATOM     16  C   UNL     1       5.948   3.746  15.230  0.00  0.00    +0.000 A 
ATOM     17  C   UNL     1       5.280   3.642  16.451  0.00  0.00    +0.000 A 
ENDBRANCH   9  12
ENDBRANCH   6   9
BRANCH   2  18
ATOM     18  C   UNL     1       1.043   9.230  20.034  0.00  0.00    +0.000 C 
BRANCH  18  19
ATOM     19  C   UNL     1       0.156  10.387  19.674  0.00  0.00    +0.000 A 
ATOM     20  C   UNL     1      -1.103  10.354  19.106  0.00  0.00    +0.000 A 
ATOM     21  C   UNL     1      -1.629  11.657  18.866  0.00  0.00    +0.000 A 
ATOM     22  C   UNL     1      -0.756  12.644  19.261  0.00  0.00    +0.000 A 
ATOM     23  S   UNL     1       0.692  12.001  19.899  0.00  0.00    +0.000 S 
ENDBRANCH  18  19
ENDBRANCH   2  18
TORSDOF 4
ENDMDL
MODEL 4
REMARK VINA RESULT:      -6.3      2.664      9.105
REMARK  Name = 
REMARK  4 active torsions:
REMARK  status: ('A' for Active; 'I' for Inactive)
REMARK    1  A    between atoms: C_2  and  C_3
REMARK    2  A    between atoms: C_3  and  C_4
REMARK    3  A    between atoms: N_12  and  S_13
REMARK    4  A    between atoms: S_13  and  C_16
REMARK                            x       y       z     vdW  Elec       q    Type
REMARK                         _______ _______ _______ _____ _____    ______ ____
ROOT
ATOM      1  O   UNL     1       1.720   9.377  17.903  0.00  0.00    +0.000 OA
ATOM      2  C   UNL     1       1.738   8.682  18.923  0.00  0.00    +0.000 C 
ATOM      3  N   UNL     1       2.393   7.460  18.959  0.00  0.00    +0.000 N 
ATOM      4  C   UNL     1       2.463   6.571  20.127  0.00  0.00    +0.000 C 
ATOM      5  C   UNL     1       2.271   5.095  19.742  0.00  0.00    +0.000 C 
ATOM      6  N   UNL     1       3.182   4.683  18.631  0.00  0.00    +0.000 NA
ATOM      7  C   UNL     1       2.967   5.580  17.446  0.00  0.00    +0.000 C 
ATOM      8  C   UNL     1       3.213   7.050  17.807  0.00  0.00    +0.000 C 
ENDROOT
BRANCH   6   9
ATOM      9  S   UNL     1       4.815   4.406  19.052  0.00  0.00    +0.000 S 
ATOM     10  O   UNL     1       5.265   5.523  19.859  0.00  0.00    +0.000 OA
ATOM     11  O   UNL     1       4.946   3.048  19.529  0.00  0.00    +0.000 OA
BRANCH   9  12
ATOM     12  C   UNL     1       5.639   4.519  17.482  0.00  0.00    +0.000 A 
ATOM     13  C   UNL     1       5.257   3.652  16.455  0.00  0.00    +0.000 A 
ATOM     14  C   UNL     1       5.909   3.717  15.224  0.00  0.00    +0.000 A 
ATOM     15  C   UNL     1       6.925   4.655  15.020  0.00  0.00    +0.000 A 
ATOM     16  C   UNL     1       7.289   5.534  16.042  0.00  0.00    +0.000 A 
ATOM     17  C   UNL     1       6.646   5.470  17.279  0.00  0.00    +0.000 A 
ENDBRANCH   9  12
ENDBRANCH   6   9
BRANCH   2  18
ATOM     18  C   UNL     1       1.014   9.162  20.175  0.00  0.00    +0.000 C 
BRANCH  18  19
ATOM     19  C   UNL     1       0.137  10.340  19.859  0.00  0.00    +0.000 A 
ATOM     20  C   UNL     1      -1.099  10.344  19.243  0.00  0.00    +0.000 A 
ATOM     21  C   UNL     1      -1.619  11.659  19.070  0.00  0.00    +0.000 A 
ATOM     22  C   UNL     1      -0.765  12.619  19.562  0.00  0.00    +0.000 A 
ATOM     23  S   UNL     1       0.659  11.936  20.210  0.00  0.00    +0.000 S 
ENDBRANCH  18  19
ENDBRANCH   2  18
TORSDOF 4
ENDMDL
MODEL 5
REMARK VINA RESULT:      -6.3      2.912      7.987
REMARK  Name = 
REMARK  4 active torsions:
REMARK  status: ('A' for Active; 'I' for Inactive)
REMARK    1  A    between atoms: C_2  and  C_3
REMARK    2  A    between atoms: C_3  and  C_4
REMARK    3  A    between atoms: N_12  and  S_13
REMARK    4  A    between atoms: S_13  and  C_16
REMARK                            x       y       z     vdW  Elec       q    Type
REMARK                         _______ _______ _______ _____ _____    ______ ____
ROOT
ATOM      1  O   UNL     1       0.809   9.639  20.879  0.00  0.00    +0.000 OA
ATOM      2  C   UNL     1       1.090   9.511  19.683  0.00  0.00    +0.000 C 
ATOM      3  N   UNL     1       1.667   8.350  19.192  0.00  0.00    +0.000 N 
ATOM      4  C   UNL     1       2.033   8.114  17.788  0.00  0.00    +0.000 C 
ATOM      5  C   UNL     1       3.395   7.416  17.655  0.00  0.00    +0.000 C 
ATOM      6  N   UNL     1       3.480   6.186  18.502  0.00  0.00    +0.000 NA
ATOM      7  C   UNL     1       3.194   6.541  19.933  0.00  0.00    +0.000 C 
ATOM      8  C   UNL     1       1.811   7.186  20.083  0.00  0.00    +0.000 C 
ENDROOT
BRANCH   6   9
ATOM      9  S   UNL     1       2.664   4.804  17.914  0.00  0.00    +0.000 S 
ATOM     10  O   UNL     1       1.334   5.208  17.505  0.00  0.00    +0.000 OA
ATOM     11  O   UNL     1       3.539   4.104  17.000  0.00  0.00    +0.000 OA
BRANCH   9  12
ATOM     12  C   UNL     1       2.492   3.811  19.377  0.00  0.00    +0.000 A 
ATOM     13  C   UNL     1       3.618   3.164  19.891  0.00  0.00    +0.000 A 
ATOM     14  C   UNL     1       3.492   2.366  21.028  0.00  0.00    +0.000 A 
ATOM     15  C   UNL     1       2.250   2.232  21.653  0.00  0.00    +0.000 A 
ATOM     16  C   UNL     1       1.131   2.898  21.150  0.00  0.00    +0.000 A 
ATOM     17  C   UNL     1       1.248   3.692  20.009  0.00  0.00    +0.000 A 
ENDBRANCH   9  12
ENDBRANCH   6   9
BRANCH   2  18
ATOM     18  C   UNL     1       0.811  10.656  18.717  0.00  0.00    +0.000 C 
BRANCH  18  19
ATOM     19  C   UNL     1      -0.653  10.728  18.392  0.00  0.00    +0.000 A 
ATOM     20  C   UNL     1      -1.368   9.958  17.494  0.00  0.00    +0.000 A 
ATOM     21  C   UNL     1      -2.739  10.340  17.417  0.00  0.00    +0.000 A 
ATOM     22  C   UNL     1      -3.029  11.387  18.261  0.00  0.00    +0.000 A 
ATOM     23  S   UNL     1      -1.653  11.915  19.123  0.00  0.00    +0.000 S 
ENDBRANCH  18  19
ENDBRANCH   2  18
TORSDOF 4
ENDMDL
MODEL 6
REMARK VINA RESULT:      -6.2      0.963      1.368
REMARK  Name = 
REMARK  4 active torsions:
REMARK  status: ('A' for Active; 'I' for Inactive)
REMARK    1  A    between atoms: C_2  and  C_3
REMARK    2  A    between atoms: C_3  and  C_4
REMARK    3  A    between atoms: N_12  and  S_13
REMARK    4  A    between atoms: S_13  and  C_16
REMARK                            x       y       z     vdW  Elec       q    Type
REMARK                         _______ _______ _______ _____ _____    ______ ____
ROOT
ATOM      1  O   UNL     1       2.643   6.532  20.091  0.00  0.00    +0.000 OA
ATOM      2  C   UNL     1       2.448   7.441  19.278  0.00  0.00    +0.000 C 
ATOM      3  N   UNL     1       1.620   8.514  19.572  0.00  0.00    +0.000 N 
ATOM      4  C   UNL     1       1.333   9.635  18.666  0.00  0.00    +0.000 C 
ATOM      5  C   UNL     1      -0.151  10.033  18.692  0.00  0.00    +0.000 C 
ATOM      6  N   UNL     1      -0.647  10.258  20.085  0.00  0.00    +0.000 NA
ATOM      7  C   UNL     1      -0.405   9.026  20.909  0.00  0.00    +0.000 C 
ATOM      8  C   UNL     1       1.082   8.654  20.936  0.00  0.00    +0.000 C 
ENDROOT
BRANCH   6   9
ATOM      9  S   UNL     1      -0.193  11.731  20.823  0.00  0.00    +0.000 S 
ATOM     10  O   UNL     1       0.763  11.433  21.870  0.00  0.00    +0.000 OA
ATOM     11  O   UNL     1       0.120  12.690  19.787  0.00  0.00    +0.000 OA
BRANCH   9  12
ATOM     12  C   UNL     1      -1.701  12.245  21.610  0.00  0.00    +0.000 A 
ATOM     13  C   UNL     1      -2.611  13.018  20.886  0.00  0.00    +0.000 A 
ATOM     14  C   UNL     1      -3.789  13.443  21.499  0.00  0.00    +0.000 A 
ATOM     15  C   UNL     1      -4.059  13.083  22.821  0.00  0.00    +0.000 A 
ATOM     16  C   UNL     1      -3.157  12.292  23.535  0.00  0.00    +0.000 A 
ATOM     17  C   UNL     1      -1.972  11.868  22.931  0.00  0.00    +0.000 A 
ENDBRANCH   9  12
ENDBRANCH   6   9
BRANCH   2  18
ATOM     18  C   UNL     1       3.117   7.385  17.910  0.00  0.00    +0.000 C 
BRANCH  18  19
ATOM     19  C   UNL     1       3.794   6.060  17.707  0.00  0.00    +0.000 A 
ATOM     20  C   UNL     1       3.210   4.827  17.490  0.00  0.00    +0.000 A 
ATOM     21  C   UNL     1       4.170   3.779  17.383  0.00  0.00    +0.000 A 
ATOM     22  C   UNL     1       5.457   4.245  17.519  0.00  0.00    +0.000 A 
ATOM     23  S   UNL     1       5.502   5.930  17.791  0.00  0.00    +0.000 S 
ENDBRANCH  18  19
ENDBRANCH   2  18
TORSDOF 4
ENDMDL
MODEL 7
REMARK VINA RESULT:      -6.2      6.449      8.649
REMARK  Name = 
REMARK  4 active torsions:
REMARK  status: ('A' for Active; 'I' for Inactive)
REMARK    1  A    between atoms: C_2  and  C_3
REMARK    2  A    between atoms: C_3  and  C_4
REMARK    3  A    between atoms: N_12  and  S_13
REMARK    4  A    between atoms: S_13  and  C_16
REMARK                            x       y       z     vdW  Elec       q    Type
REMARK                         _______ _______ _______ _____ _____    ______ ____
ROOT
ATOM      1  O   UNL     1       8.327   5.300  13.954  0.00  0.00    +0.000 OA
ATOM      2  C   UNL     1       7.106   5.129  14.032  0.00  0.00    +0.000 C 
ATOM      3  N   UNL     1       6.466   5.005  15.255  0.00  0.00    +0.000 N 
ATOM      4  C   UNL     1       5.022   4.800  15.439  0.00  0.00    +0.000 C 
ATOM      5  C   UNL     1       4.720   3.766  16.535  0.00  0.00    +0.000 C 
ATOM      6  N   UNL     1       5.439   4.074  17.809  0.00  0.00    +0.000 NA
ATOM      7  C   UNL     1       6.915   4.163  17.545  0.00  0.00    +0.000 C 
ATOM      8  C   UNL     1       7.231   5.233  16.493  0.00  0.00    +0.000 C 
ENDROOT
BRANCH   6   9
ATOM      9  S   UNL     1       4.790   5.338  18.760  0.00  0.00    +0.000 S 
ATOM     10  O   UNL     1       5.769   5.689  19.769  0.00  0.00    +0.000 OA
ATOM     11  O   UNL     1       4.241   6.344  17.879  0.00  0.00    +0.000 OA
BRANCH   9  12
ATOM     12  C   UNL     1       3.438   4.536  19.588  0.00  0.00    +0.000 A 
ATOM     13  C   UNL     1       3.589   3.210  20.001  0.00  0.00    +0.000 A 
ATOM     14  C   UNL     1       2.529   2.563  20.635  0.00  0.00    +0.000 A 
ATOM     15  C   UNL     1       1.332   3.246  20.866  0.00  0.00    +0.000 A 
ATOM     16  C   UNL     1       1.192   4.577  20.471  0.00  0.00    +0.000 A 
ATOM     17  C   UNL     1       2.246   5.229  19.831  0.00  0.00    +0.000 A 
ENDBRANCH   9  12
ENDBRANCH   6   9
BRANCH   2  18
ATOM     18  C   UNL     1       6.276   5.038  12.758  0.00  0.00    +0.000 C 
BRANCH  18  19
ATOM     19  C   UNL     1       6.367   3.662  12.164  0.00  0.00    +0.000 A 
ATOM     20  C   UNL     1       7.499   2.975  11.770  0.00  0.00    +0.000 A 
ATOM     21  C   UNL     1       7.197   1.701  11.208  0.00  0.00    +0.000 A 
ATOM     22  C   UNL     1       5.844   1.453  11.193  0.00  0.00    +0.000 A 
ATOM     23  S   UNL     1       4.948   2.757  11.835  0.00  0.00    +0.000 S 
ENDBRANCH  18  19
ENDBRANCH   2  18
TORSDOF 4
ENDMDL
MODEL 8
REMARK VINA RESULT:      -6.2      6.490      8.723
REMARK  Name = 
REMARK  4 active torsions:
REMARK  status: ('A' for Active; 'I' for Inactive)
REMARK    1  A    between atoms: C_2  and  C_3
REMARK    2  A    between atoms: C_3  and  C_4
REMARK    3  A    between atoms: N_12  and  S_13
REMARK    4  A    between atoms: S_13  and  C_16
REMARK                            x       y       z     vdW  Elec       q    Type
REMARK                         _______ _______ _______ _____ _____    ______ ____
ROOT
ATOM      1  O   UNL     1       8.433   5.351  13.858  0.00  0.00    +0.000 OA
ATOM      2  C   UNL     1       7.211   5.172  13.907  0.00  0.00    +0.000 C 
ATOM      3  N   UNL     1       6.543   5.037  15.114  0.00  0.00    +0.000 N 
ATOM      4  C   UNL     1       5.097   4.822  15.263  0.00  0.00    +0.000 C 
ATOM      5  C   UNL     1       4.777   3.780  16.346  0.00  0.00    +0.000 C 
ATOM      6  N   UNL     1       5.464   4.086  17.639  0.00  0.00    +0.000 NA
ATOM      7  C   UNL     1       6.944   4.185  17.409  0.00  0.00    +0.000 C 
ATOM      8  C   UNL     1       7.278   5.264  16.371  0.00  0.00    +0.000 C 
ENDROOT
BRANCH   6   9
ATOM      9  S   UNL     1       4.784   5.340  18.581  0.00  0.00    +0.000 S 
ATOM     10  O   UNL     1       5.775   5.761  19.549  0.00  0.00    +0.000 OA
ATOM     11  O   UNL     1       4.161   6.298  17.694  0.00  0.00    +0.000 OA
BRANCH   9  12
ATOM     12  C   UNL     1       3.497   4.496  19.469  0.00  0.00    +0.000 A 
ATOM     13  C   UNL     1       2.377   5.219  19.885  0.00  0.00    +0.000 A 
ATOM     14  C   UNL     1       1.370   4.573  20.600  0.00  0.00    +0.000 A 
ATOM     15  C   UNL     1       1.478   3.208  20.881  0.00  0.00    +0.000 A 
ATOM     16  C   UNL     1       2.588   2.484  20.444  0.00  0.00    +0.000 A 
ATOM     17  C   UNL     1       3.604   3.126  19.735  0.00  0.00    +0.000 A 
ENDBRANCH   9  12
ENDBRANCH   6   9
BRANCH   2  18
ATOM     18  C   UNL     1       6.412   5.082  12.613  0.00  0.00    +0.000 C 
BRANCH  18  19
ATOM     19  C   UNL     1       6.390   3.671  12.102  0.00  0.00    +0.000 A 
ATOM     20  C   UNL     1       7.462   2.875  11.743  0.00  0.00    +0.000 A 
ATOM     21  C   UNL     1       7.057   1.598  11.258  0.00  0.00    +0.000 A 
ATOM     22  C   UNL     1       5.688   1.456  11.264  0.00  0.00    +0.000 A 
ATOM     23  S   UNL     1       4.902   2.861  11.833  0.00  0.00    +0.000 S 
ENDBRANCH  18  19
ENDBRANCH   2  18
TORSDOF 4
ENDMDL
MODEL 9
REMARK VINA RESULT:      -6.1      0.888      1.312
REMARK  Name = 
REMARK  4 active torsions:
REMARK  status: ('A' for Active; 'I' for Inactive)
REMARK    1  A    between atoms: C_2  and  C_3
REMARK    2  A    between atoms: C_3  and  C_4
REMARK    3  A    between atoms: N_12  and  S_13
REMARK    4  A    between atoms: S_13  and  C_16
REMARK                            x       y       z     vdW  Elec       q    Type
REMARK                         _______ _______ _______ _____ _____    ______ ____
ROOT
ATOM      1  O   UNL     1       2.621   6.219  20.387  0.00  0.00    +0.000 OA
ATOM      2  C   UNL     1       2.462   7.055  19.492  0.00  0.00    +0.000 C 
ATOM      3  N   UNL     1       1.715   8.206  19.696  0.00  0.00    +0.000 N 
ATOM      4  C   UNL     1       1.474   9.249  18.690  0.00  0.00    +0.000 C 
ATOM      5  C   UNL     1       0.020   9.747  18.710  0.00  0.00    +0.000 C 
ATOM      6  N   UNL     1      -0.418  10.140  20.084  0.00  0.00    +0.000 NA
ATOM      7  C   UNL     1      -0.233   8.982  21.021  0.00  0.00    +0.000 C 
ATOM      8  C   UNL     1       1.227   8.515  21.051  0.00  0.00    +0.000 C 
ENDROOT
BRANCH   6   9
ATOM      9  S   UNL     1       0.152  11.645  20.661  0.00  0.00    +0.000 S 
ATOM     10  O   UNL     1       1.138  11.387  21.690  0.00  0.00    +0.000 OA
ATOM     11  O   UNL     1       0.468  12.485  19.527  0.00  0.00    +0.000 OA
BRANCH   9  12
ATOM     12  C   UNL     1      -1.286  12.318  21.459  0.00  0.00    +0.000 A 
ATOM     13  C   UNL     1      -2.063  13.254  20.773  0.00  0.00    +0.000 A 
ATOM     14  C   UNL     1      -3.183  13.804  21.396  0.00  0.00    +0.000 A 
ATOM     15  C   UNL     1      -3.529  13.407  22.690  0.00  0.00    +0.000 A 
ATOM     16  C   UNL     1      -2.761  12.455  23.364  0.00  0.00    +0.000 A 
ATOM     17  C   UNL     1      -1.636  11.905  22.750  0.00  0.00    +0.000 A 
ENDBRANCH   9  12
ENDBRANCH   6   9
BRANCH   2  18
ATOM     18  C   UNL     1       3.086   6.821  18.122  0.00  0.00    +0.000 C 
BRANCH  18  19
ATOM     19  C   UNL     1       3.173   5.351  17.826  0.00  0.00    +0.000 A 
ATOM     20  C   UNL     1       4.299   4.603  17.540  0.00  0.00    +0.000 A 
ATOM     21  C   UNL     1       3.993   3.238  17.268  0.00  0.00    +0.000 A 
ATOM     22  C   UNL     1       2.643   2.986  17.357  0.00  0.00    +0.000 A 
ATOM     23  S   UNL     1       1.754   4.390  17.747  0.00  0.00    +0.000 S 
ENDBRANCH  18  19
ENDBRANCH   2  18
TORSDOF 4
ENDMDL
