MODEL 1
REMARK VINA RESULT:      -8.2      0.000      0.000
REMARK  Name = 
REMARK  7 active torsions:
REMARK  status: ('A' for Active; 'I' for Inactive)
REMARK    1  A    between atoms: C_1  and  C_2
REMARK    2  A    between atoms: C_3  and  C_4
REMARK    3  A    between atoms: N_6  and  C_7
REMARK    4  A    between atoms: C_7  and  C_8
REMARK    5  A    between atoms: C_11  and  C_12
REMARK    6  A    between atoms: N_21  and  C_22
REMARK    7  A    between atoms: C_22  and  C_23
REMARK                            x       y       z     vdW  Elec       q    Type
REMARK                         _______ _______ _______ _____ _____    ______ ____
ROOT
ATOM      1  C   UNL     1       1.598   8.544  17.834  0.00  0.00    +0.000 C 
ATOM      2  C   UNL     1       1.333   8.857  19.274  0.00  0.00    +0.000 A 
ATOM      3  C   UNL     1       1.571   8.054  20.336  0.00  0.00    +0.000 A 
ATOM      4  S   UNL     1       1.118   8.817  21.843  0.00  0.00    +0.000 S 
ATOM      5  C   UNL     1       0.561  10.255  21.004  0.00  0.00    +0.000 A 
ATOM      6  O   UNL     1       0.072  11.212  21.580  0.00  0.00    +0.000 OA
ATOM      7  N   UNL     1       0.774  10.087  19.644  0.00  0.00    +0.000 N 
ENDROOT
BRANCH   3   8
ATOM      8  C   UNL     1       2.104   6.647  20.365  0.00  0.00    +0.000 C 
ATOM      9  O   UNL     1       1.468   5.711  20.835  0.00  0.00    +0.000 OA
ATOM     10  N   UNL     1       3.369   6.502  19.835  0.00  0.00    +0.000 N 
ATOM     11  H   UNL     1       3.795   7.307  19.391  0.00  0.00    +0.000 HD
BRANCH  10  12
ATOM     12  C   UNL     1       4.028   5.223  19.689  0.00  0.00    +0.000 C 
BRANCH  12  13
ATOM     13  C   UNL     1       4.545   5.014  18.282  0.00  0.00    +0.000 A 
ATOM     14  C   UNL     1       4.631   3.721  17.744  0.00  0.00    +0.000 A 
ATOM     15  C   UNL     1       5.065   3.518  16.429  0.00  0.00    +0.000 A 
ATOM     16  C   UNL     1       5.418   4.604  15.617  0.00  0.00    +0.000 A 
ATOM     17  C   UNL     1       5.338   5.897  16.154  0.00  0.00    +0.000 A 
ATOM     18  C   UNL     1       4.908   6.100  17.472  0.00  0.00    +0.000 A 
BRANCH  16  19
ATOM     19  C   UNL     1       5.866   4.400  14.188  0.00  0.00    +0.000 C 
ATOM     20  F   UNL     1       6.714   5.367  13.737  0.00  0.00    +0.000 F 
ATOM     21  F   UNL     1       6.522   3.219  14.011  0.00  0.00    +0.000 F 
ATOM     22  F   UNL     1       4.824   4.381  13.311  0.00  0.00    +0.000 F 
ENDBRANCH  16  19
ENDBRANCH  12  13
ENDBRANCH  10  12
ENDBRANCH   3   8
BRANCH   7  23
ATOM     23  C   UNL     1       0.361  11.146  18.731  0.00  0.00    +0.000 C 
BRANCH  23  24
ATOM     24  C   UNL     1      -1.089  11.067  18.301  0.00  0.00    +0.000 A 
ATOM     25  C   UNL     1      -2.090  11.818  18.944  0.00  0.00    +0.000 A 
ATOM     26  C   UNL     1      -3.424  11.742  18.529  0.00  0.00    +0.000 A 
ATOM     27  C   UNL     1      -3.781  10.901  17.478  0.00  0.00    +0.000 A 
ATOM     28  C   UNL     1      -2.804  10.124  16.870  0.00  0.00    +0.000 A 
ATOM     29  F   UNL     1      -3.147   9.295  15.875  0.00  0.00    +0.000 F 
ATOM     30  C   UNL     1      -1.473  10.192  17.274  0.00  0.00    +0.000 A 
ENDBRANCH  23  24
ENDBRANCH   7  23
TORSDOF 6
ENDMDL
MODEL 2
REMARK VINA RESULT:      -8.2      0.895      1.671
REMARK  Name = 
REMARK  7 active torsions:
REMARK  status: ('A' for Active; 'I' for Inactive)
REMARK    1  A    between atoms: C_1  and  C_2
REMARK    2  A    between atoms: C_3  and  C_4
REMARK    3  A    between atoms: N_6  and  C_7
REMARK    4  A    between atoms: C_7  and  C_8
REMARK    5  A    between atoms: C_11  and  C_12
REMARK    6  A    between atoms: N_21  and  C_22
REMARK    7  A    between atoms: C_22  and  C_23
REMARK                            x       y       z     vdW  Elec       q    Type
REMARK                         _______ _______ _______ _____ _____    ______ ____
ROOT
ATOM      1  C   UNL     1       1.661   8.526  17.800  0.00  0.00    +0.000 C 
ATOM      2  C   UNL     1       1.333   8.781  19.238  0.00  0.00    +0.000 A 
ATOM      3  C   UNL     1       1.582   7.963  20.286  0.00  0.00    +0.000 A 
ATOM      4  S   UNL     1       1.038   8.655  21.797  0.00  0.00    +0.000 S 
ATOM      5  C   UNL     1       0.427  10.082  20.980  0.00  0.00    +0.000 A 
ATOM      6  O   UNL     1      -0.134  10.994  21.565  0.00  0.00    +0.000 OA
ATOM      7  N   UNL     1       0.693   9.967  19.623  0.00  0.00    +0.000 N 
ENDROOT
BRANCH   3   8
ATOM      8  C   UNL     1       2.193   6.588  20.294  0.00  0.00    +0.000 C 
ATOM      9  O   UNL     1       1.593   5.602  20.705  0.00  0.00    +0.000 OA
ATOM     10  N   UNL     1       3.486   6.532  19.818  0.00  0.00    +0.000 N 
ATOM     11  H   UNL     1       3.885   7.374  19.420  0.00  0.00    +0.000 HD
BRANCH  10  12
ATOM     12  C   UNL     1       4.224   5.297  19.661  0.00  0.00    +0.000 C 
BRANCH  12  13
ATOM     13  C   UNL     1       4.620   5.058  18.220  0.00  0.00    +0.000 A 
ATOM     14  C   UNL     1       5.471   5.958  17.561  0.00  0.00    +0.000 A 
ATOM     15  C   UNL     1       5.881   5.726  16.244  0.00  0.00    +0.000 A 
ATOM     16  C   UNL     1       5.454   4.583  15.554  0.00  0.00    +0.000 A 
ATOM     17  C   UNL     1       4.598   3.685  16.208  0.00  0.00    +0.000 A 
ATOM     18  C   UNL     1       4.185   3.919  17.526  0.00  0.00    +0.000 A 
BRANCH  16  19
ATOM     19  C   UNL     1       5.907   4.308  14.139  0.00  0.00    +0.000 C 
ATOM     20  F   UNL     1       4.893   4.309  13.228  0.00  0.00    +0.000 F 
ATOM     21  F   UNL     1       6.807   5.228  13.692  0.00  0.00    +0.000 F 
ATOM     22  F   UNL     1       6.520   3.097  14.012  0.00  0.00    +0.000 F 
ENDBRANCH  16  19
ENDBRANCH  12  13
ENDBRANCH  10  12
ENDBRANCH   3   8
BRANCH   7  23
ATOM     23  C   UNL     1       0.250  11.028  18.726  0.00  0.00    +0.000 C 
BRANCH  23  24
ATOM     24  C   UNL     1      -1.196  10.909  18.288  0.00  0.00    +0.000 A 
ATOM     25  C   UNL     1      -1.589  10.007  17.282  0.00  0.00    +0.000 A 
ATOM     26  C   UNL     1      -2.928   9.900  16.895  0.00  0.00    +0.000 A 
ATOM     27  C   UNL     1      -3.893  10.706  17.493  0.00  0.00    +0.000 A 
ATOM     28  C   UNL     1      -3.504  11.630  18.455  0.00  0.00    +0.000 A 
ATOM     29  F   UNL     1      -4.425  12.425  19.015  0.00  0.00    +0.000 F 
ATOM     30  C   UNL     1      -2.173  11.744  18.848  0.00  0.00    +0.000 A 
ENDBRANCH  23  24
ENDBRANCH   7  23
TORSDOF 6
ENDMDL
MODEL 3
REMARK VINA RESULT:      -8.0      4.052      5.803
REMARK  Name = 
REMARK  7 active torsions:
REMARK  status: ('A' for Active; 'I' for Inactive)
REMARK    1  A    between atoms: C_1  and  C_2
REMARK    2  A    between atoms: C_3  and  C_4
REMARK    3  A    between atoms: N_6  and  C_7
REMARK    4  A    between atoms: C_7  and  C_8
REMARK    5  A    between atoms: C_11  and  C_12
REMARK    6  A    between atoms: N_21  and  C_22
REMARK    7  A    between atoms: C_22  and  C_23
REMARK                            x       y       z     vdW  Elec       q    Type
REMARK                         _______ _______ _______ _____ _____    ______ ____
ROOT
ATOM      1  C   UNL     1      -2.599  12.406  19.935  0.00  0.00    +0.000 C 
ATOM      2  C   UNL     1      -2.630  11.604  18.672  0.00  0.00    +0.000 A 
ATOM      3  C   UNL     1      -1.629  10.850  18.163  0.00  0.00    +0.000 A 
ATOM      4  S   UNL     1      -2.093  10.074  16.667  0.00  0.00    +0.000 S 
ATOM      5  C   UNL     1      -3.682  10.819  16.716  0.00  0.00    +0.000 A 
ATOM      6  O   UNL     1      -4.521  10.654  15.847  0.00  0.00    +0.000 OA
ATOM      7  N   UNL     1      -3.779  11.585  17.869  0.00  0.00    +0.000 N 
ENDROOT
BRANCH   3   8
ATOM      8  C   UNL     1      -0.230  10.653  18.681  0.00  0.00    +0.000 C 
ATOM      9  O   UNL     1       0.142  11.100  19.759  0.00  0.00    +0.000 OA
ATOM     10  N   UNL     1       0.599   9.945  17.838  0.00  0.00    +0.000 N 
ATOM     11  H   UNL     1       0.196   9.538  17.002  0.00  0.00    +0.000 HD
BRANCH  10  12
ATOM     12  C   UNL     1       1.954   9.572  18.182  0.00  0.00    +0.000 C 
BRANCH  12  13
ATOM     13  C   UNL     1       2.015   8.205  18.828  0.00  0.00    +0.000 A 
ATOM     14  C   UNL     1       1.611   8.033  20.161  0.00  0.00    +0.000 A 
ATOM     15  C   UNL     1       1.619   6.768  20.756  0.00  0.00    +0.000 A 
ATOM     16  C   UNL     1       2.026   5.639  20.031  0.00  0.00    +0.000 A 
ATOM     17  C   UNL     1       2.436   5.809  18.701  0.00  0.00    +0.000 A 
ATOM     18  C   UNL     1       2.432   7.077  18.106  0.00  0.00    +0.000 A 
BRANCH  16  19
ATOM     19  C   UNL     1       2.018   4.263  20.655  0.00  0.00    +0.000 C 
ATOM     20  F   UNL     1       0.780   3.695  20.714  0.00  0.00    +0.000 F 
ATOM     21  F   UNL     1       2.800   3.378  19.975  0.00  0.00    +0.000 F 
ATOM     22  F   UNL     1       2.486   4.265  21.934  0.00  0.00    +0.000 F 
ENDBRANCH  16  19
ENDBRANCH  12  13
ENDBRANCH  10  12
ENDBRANCH   3   8
BRANCH   7  23
ATOM     23  C   UNL     1      -5.007  12.330  18.118  0.00  0.00    +0.000 C 
BRANCH  23  24
ATOM     24  C   UNL     1      -5.955  11.658  19.090  0.00  0.00    +0.000 A 
ATOM     25  C   UNL     1      -6.462  12.336  20.214  0.00  0.00    +0.000 A 
ATOM     26  C   UNL     1      -7.344  11.706  21.097  0.00  0.00    +0.000 A 
ATOM     27  C   UNL     1      -7.720  10.383  20.881  0.00  0.00    +0.000 A 
ATOM     28  C   UNL     1      -7.189   9.695  19.799  0.00  0.00    +0.000 A 
ATOM     29  F   UNL     1      -7.528   8.414  19.603  0.00  0.00    +0.000 F 
ATOM     30  C   UNL     1      -6.310  10.312  18.913  0.00  0.00    +0.000 A 
ENDBRANCH  23  24
ENDBRANCH   7  23
TORSDOF 6
ENDMDL
MODEL 4
REMARK VINA RESULT:      -7.9      4.097      9.578
REMARK  Name = 
REMARK  7 active torsions:
REMARK  status: ('A' for Active; 'I' for Inactive)
REMARK    1  A    between atoms: C_1  and  C_2
REMARK    2  A    between atoms: C_3  and  C_4
REMARK    3  A    between atoms: N_6  and  C_7
REMARK    4  A    between atoms: C_7  and  C_8
REMARK    5  A    between atoms: C_11  and  C_12
REMARK    6  A    between atoms: N_21  and  C_22
REMARK    7  A    between atoms: C_22  and  C_23
REMARK                            x       y       z     vdW  Elec       q    Type
REMARK                         _______ _______ _______ _____ _____    ______ ____
ROOT
ATOM      1  C   UNL     1       1.314   7.945  21.611  0.00  0.00    +0.000 C 
ATOM      2  C   UNL     1       1.524   8.377  20.193  0.00  0.00    +0.000 A 
ATOM      3  C   UNL     1       0.947   9.431  19.571  0.00  0.00    +0.000 A 
ATOM      4  S   UNL     1       1.477   9.577  17.911  0.00  0.00    +0.000 S 
ATOM      5  C   UNL     1       2.486   8.148  18.056  0.00  0.00    +0.000 A 
ATOM      6  O   UNL     1       3.144   7.703  17.130  0.00  0.00    +0.000 OA
ATOM      7  N   UNL     1       2.386   7.662  19.351  0.00  0.00    +0.000 N 
ENDROOT
BRANCH   3   8
ATOM      8  C   UNL     1      -0.072  10.404  20.098  0.00  0.00    +0.000 C 
ATOM      9  O   UNL     1      -0.632  10.252  21.177  0.00  0.00    +0.000 OA
ATOM     10  N   UNL     1      -0.336  11.468  19.261  0.00  0.00    +0.000 N 
ATOM     11  H   UNL     1       0.227  11.567  18.424  0.00  0.00    +0.000 HD
BRANCH  10  12
ATOM     12  C   UNL     1      -1.217  12.559  19.614  0.00  0.00    +0.000 C 
BRANCH  12  13
ATOM     13  C   UNL     1      -2.667  12.220  19.348  0.00  0.00    +0.000 A 
ATOM     14  C   UNL     1      -3.671  12.672  20.217  0.00  0.00    +0.000 A 
ATOM     15  C   UNL     1      -5.020  12.404  19.959  0.00  0.00    +0.000 A 
ATOM     16  C   UNL     1      -5.399  11.680  18.820  0.00  0.00    +0.000 A 
ATOM     17  C   UNL     1      -4.397  11.222  17.952  0.00  0.00    +0.000 A 
ATOM     18  C   UNL     1      -3.047  11.488  18.213  0.00  0.00    +0.000 A 
BRANCH  16  19
ATOM     19  C   UNL     1      -6.853  11.404  18.517  0.00  0.00    +0.000 C 
ATOM     20  F   UNL     1      -7.150  10.077  18.419  0.00  0.00    +0.000 F 
ATOM     21  F   UNL     1      -7.689  11.901  19.472  0.00  0.00    +0.000 F 
ATOM     22  F   UNL     1      -7.258  11.962  17.342  0.00  0.00    +0.000 F 
ENDBRANCH  16  19
ENDBRANCH  12  13
ENDBRANCH  10  12
ENDBRANCH   3   8
BRANCH   7  23
ATOM     23  C   UNL     1       3.119   6.453  19.708  0.00  0.00    +0.000 C 
BRANCH  23  24
ATOM     24  C   UNL     1       2.314   5.177  19.580  0.00  0.00    +0.000 A 
ATOM     25  C   UNL     1       1.913   4.681  18.326  0.00  0.00    +0.000 A 
ATOM     26  C   UNL     1       1.178   3.496  18.222  0.00  0.00    +0.000 A 
ATOM     27  C   UNL     1       0.816   2.797  19.371  0.00  0.00    +0.000 A 
ATOM     28  C   UNL     1       1.170   3.306  20.614  0.00  0.00    +0.000 A 
ATOM     29  F   UNL     1       0.801   2.651  21.722  0.00  0.00    +0.000 F 
ATOM     30  C   UNL     1       1.902   4.485  20.728  0.00  0.00    +0.000 A 
ENDBRANCH  23  24
ENDBRANCH   7  23
TORSDOF 6
ENDMDL
MODEL 5
REMARK VINA RESULT:      -7.7      3.009      9.492
REMARK  Name = 
REMARK  7 active torsions:
REMARK  status: ('A' for Active; 'I' for Inactive)
REMARK    1  A    between atoms: C_1  and  C_2
REMARK    2  A    between atoms: C_3  and  C_4
REMARK    3  A    between atoms: N_6  and  C_7
REMARK    4  A    between atoms: C_7  and  C_8
REMARK    5  A    between atoms: C_11  and  C_12
REMARK    6  A    between atoms: N_21  and  C_22
REMARK    7  A    between atoms: C_22  and  C_23
REMARK                            x       y       z     vdW  Elec       q    Type
REMARK                         _______ _______ _______ _____ _____    ______ ____
ROOT
ATOM      1  C   UNL     1       1.226   7.971  21.642  0.00  0.00    +0.000 C 
ATOM      2  C   UNL     1       1.499   8.358  20.221  0.00  0.00    +0.000 A 
ATOM      3  C   UNL     1       0.973   9.407  19.550  0.00  0.00    +0.000 A 
ATOM      4  S   UNL     1       1.568   9.495  17.908  0.00  0.00    +0.000 S 
ATOM      5  C   UNL     1       2.535   8.046  18.129  0.00  0.00    +0.000 A 
ATOM      6  O   UNL     1       3.215   7.559  17.242  0.00  0.00    +0.000 OA
ATOM      7  N   UNL     1       2.374   7.599  19.433  0.00  0.00    +0.000 N 
ENDROOT
BRANCH   3   8
ATOM      8  C   UNL     1      -0.040  10.420  20.011  0.00  0.00    +0.000 C 
ATOM      9  O   UNL     1      -0.612  10.334  21.091  0.00  0.00    +0.000 OA
ATOM     10  N   UNL     1      -0.283  11.438  19.114  0.00  0.00    +0.000 N 
ATOM     11  H   UNL     1       0.290  11.485  18.279  0.00  0.00    +0.000 HD
BRANCH  10  12
ATOM     12  C   UNL     1      -1.155  12.557  19.397  0.00  0.00    +0.000 C 
BRANCH  12  13
ATOM     13  C   UNL     1      -2.611  12.199  19.198  0.00  0.00    +0.000 A 
ATOM     14  C   UNL     1      -3.582  12.657  20.102  0.00  0.00    +0.000 A 
ATOM     15  C   UNL     1      -4.938  12.371  19.906  0.00  0.00    +0.000 A 
ATOM     16  C   UNL     1      -5.357  11.624  18.797  0.00  0.00    +0.000 A 
ATOM     17  C   UNL     1      -4.389  11.161  17.895  0.00  0.00    +0.000 A 
ATOM     18  C   UNL     1      -3.031  11.444  18.093  0.00  0.00    +0.000 A 
BRANCH  16  19
ATOM     19  C   UNL     1      -6.820  11.328  18.560  0.00  0.00    +0.000 C 
ATOM     20  F   UNL     1      -7.318  11.898  17.427  0.00  0.00    +0.000 F 
ATOM     21  F   UNL     1      -7.070   9.993  18.445  0.00  0.00    +0.000 F 
ATOM     22  F   UNL     1      -7.614  11.768  19.577  0.00  0.00    +0.000 F 
ENDBRANCH  16  19
ENDBRANCH  12  13
ENDBRANCH  10  12
ENDBRANCH   3   8
BRANCH   7  23
ATOM     23  C   UNL     1       3.063   6.383  19.849  0.00  0.00    +0.000 C 
BRANCH  23  24
ATOM     24  C   UNL     1       2.315   5.105  19.530  0.00  0.00    +0.000 A 
ATOM     25  C   UNL     1       1.312   4.606  20.381  0.00  0.00    +0.000 A 
ATOM     26  C   UNL     1       0.623   3.429  20.069  0.00  0.00    +0.000 A 
ATOM     27  C   UNL     1       0.938   2.724  18.911  0.00  0.00    +0.000 A 
ATOM     28  C   UNL     1       1.958   3.187  18.090  0.00  0.00    +0.000 A 
ATOM     29  F   UNL     1       2.281   2.498  16.988  0.00  0.00    +0.000 F 
ATOM     30  C   UNL     1       2.650   4.358  18.391  0.00  0.00    +0.000 A 
ENDBRANCH  23  24
ENDBRANCH   7  23
TORSDOF 6
ENDMDL
MODEL 6
REMARK VINA RESULT:      -7.6      3.952      5.096
REMARK  Name = 
REMARK  7 active torsions:
REMARK  status: ('A' for Active; 'I' for Inactive)
REMARK    1  A    between atoms: C_1  and  C_2
REMARK    2  A    between atoms: C_3  and  C_4
REMARK    3  A    between atoms: N_6  and  C_7
REMARK    4  A    between atoms: C_7  and  C_8
REMARK    5  A    between atoms: C_11  and  C_12
REMARK    6  A    between atoms: N_21  and  C_22
REMARK    7  A    between atoms: C_22  and  C_23
REMARK                            x       y       z     vdW  Elec       q    Type
REMARK                         _______ _______ _______ _____ _____    ______ ____
ROOT
ATOM      1  C   UNL     1       0.671  12.215  20.517  0.00  0.00    +0.000 C 
ATOM      2  C   UNL     1      -0.316  11.605  19.571  0.00  0.00    +0.000 A 
ATOM      3  C   UNL     1      -0.127  10.516  18.790  0.00  0.00    +0.000 A 
ATOM      4  S   UNL     1      -1.547  10.142  17.840  0.00  0.00    +0.000 S 
ATOM      5  C   UNL     1      -2.411  11.521  18.497  0.00  0.00    +0.000 A 
ATOM      6  O   UNL     1      -3.546  11.815  18.162  0.00  0.00    +0.000 OA
ATOM      7  N   UNL     1      -1.591  12.165  19.413  0.00  0.00    +0.000 N 
ENDROOT
BRANCH   3   8
ATOM      8  C   UNL     1       1.105   9.670  18.621  0.00  0.00    +0.000 C 
ATOM      9  O   UNL     1       1.830   9.751  17.637  0.00  0.00    +0.000 OA
ATOM     10  N   UNL     1       1.341   8.787  19.653  0.00  0.00    +0.000 N 
ATOM     11  H   UNL     1       0.743   8.837  20.470  0.00  0.00    +0.000 HD
BRANCH  10  12
ATOM     12  C   UNL     1       2.515   7.945  19.728  0.00  0.00    +0.000 C 
BRANCH  12  13
ATOM     13  C   UNL     1       2.188   6.497  19.439  0.00  0.00    +0.000 A 
ATOM     14  C   UNL     1       2.525   5.928  18.201  0.00  0.00    +0.000 A 
ATOM     15  C   UNL     1       2.269   4.578  17.937  0.00  0.00    +0.000 A 
ATOM     16  C   UNL     1       1.674   3.761  18.907  0.00  0.00    +0.000 A 
ATOM     17  C   UNL     1       1.331   4.327  20.143  0.00  0.00    +0.000 A 
ATOM     18  C   UNL     1       1.584   5.680  20.406  0.00  0.00    +0.000 A 
BRANCH  16  19
ATOM     19  C   UNL     1       1.413   2.296  18.644  0.00  0.00    +0.000 C 
ATOM     20  F   UNL     1       2.038   1.820  17.529  0.00  0.00    +0.000 F 
ATOM     21  F   UNL     1       1.828   1.500  19.669  0.00  0.00    +0.000 F 
ATOM     22  F   UNL     1       0.090   2.022  18.473  0.00  0.00    +0.000 F 
ENDBRANCH  16  19
ENDBRANCH  12  13
ENDBRANCH  10  12
ENDBRANCH   3   8
BRANCH   7  23
ATOM     23  C   UNL     1      -2.084  13.366  20.076  0.00  0.00    +0.000 C 
BRANCH  23  24
ATOM     24  C   UNL     1      -2.932  13.097  21.301  0.00  0.00    +0.000 A 
ATOM     25  C   UNL     1      -2.404  12.453  22.436  0.00  0.00    +0.000 A 
ATOM     26  C   UNL     1      -3.196  12.219  23.564  0.00  0.00    +0.000 A 
ATOM     27  C   UNL     1      -4.532  12.609  23.571  0.00  0.00    +0.000 A 
ATOM     28  C   UNL     1      -5.071  13.205  22.438  0.00  0.00    +0.000 A 
ATOM     29  F   UNL     1      -6.363  13.558  22.430  0.00  0.00    +0.000 F 
ATOM     30  C   UNL     1      -4.291  13.442  21.308  0.00  0.00    +0.000 A 
ENDBRANCH  23  24
ENDBRANCH   7  23
TORSDOF 6
ENDMDL
MODEL 7
REMARK VINA RESULT:      -7.6      2.354      3.317
REMARK  Name = 
REMARK  7 active torsions:
REMARK  status: ('A' for Active; 'I' for Inactive)
REMARK    1  A    between atoms: C_1  and  C_2
REMARK    2  A    between atoms: C_3  and  C_4
REMARK    3  A    between atoms: N_6  and  C_7
REMARK    4  A    between atoms: C_7  and  C_8
REMARK    5  A    between atoms: C_11  and  C_12
REMARK    6  A    between atoms: N_21  and  C_22
REMARK    7  A    between atoms: C_22  and  C_23
REMARK                            x       y       z     vdW  Elec       q    Type
REMARK                         _______ _______ _______ _____ _____    ______ ____
ROOT
ATOM      1  C   UNL     1       1.469   8.836  17.804  0.00  0.00    +0.000 C 
ATOM      2  C   UNL     1       1.216   9.212  19.231  0.00  0.00    +0.000 A 
ATOM      3  C   UNL     1       1.431   8.445  20.324  0.00  0.00    +0.000 A 
ATOM      4  S   UNL     1       1.005   9.280  21.800  0.00  0.00    +0.000 S 
ATOM      5  C   UNL     1       0.490  10.700  20.906  0.00  0.00    +0.000 A 
ATOM      6  O   UNL     1       0.032  11.693  21.445  0.00  0.00    +0.000 OA
ATOM      7  N   UNL     1       0.695  10.473  19.553  0.00  0.00    +0.000 N 
ENDROOT
BRANCH   3   8
ATOM      8  C   UNL     1       1.921   7.025  20.407  0.00  0.00    +0.000 C 
ATOM      9  O   UNL     1       1.283   6.139  20.963  0.00  0.00    +0.000 OA
ATOM     10  N   UNL     1       3.151   6.807  19.823  0.00  0.00    +0.000 N 
ATOM     11  H   UNL     1       3.578   7.571  19.312  0.00  0.00    +0.000 HD
BRANCH  10  12
ATOM     12  C   UNL     1       3.762   5.500  19.717  0.00  0.00    +0.000 C 
BRANCH  12  13
ATOM     13  C   UNL     1       4.263   5.225  18.317  0.00  0.00    +0.000 A 
ATOM     14  C   UNL     1       4.548   6.286  17.445  0.00  0.00    +0.000 A 
ATOM     15  C   UNL     1       5.054   6.048  16.163  0.00  0.00    +0.000 A 
ATOM     16  C   UNL     1       5.293   4.739  15.721  0.00  0.00    +0.000 A 
ATOM     17  C   UNL     1       5.003   3.675  16.588  0.00  0.00    +0.000 A 
ATOM     18  C   UNL     1       4.493   3.915  17.870  0.00  0.00    +0.000 A 
BRANCH  16  19
ATOM     19  C   UNL     1       5.861   4.468  14.347  0.00  0.00    +0.000 C 
ATOM     20  F   UNL     1       4.918   4.423  13.364  0.00  0.00    +0.000 F 
ATOM     21  F   UNL     1       6.758   5.416  13.958  0.00  0.00    +0.000 F 
ATOM     22  F   UNL     1       6.523   3.279  14.280  0.00  0.00    +0.000 F 
ENDBRANCH  16  19
ENDBRANCH  12  13
ENDBRANCH  10  12
ENDBRANCH   3   8
BRANCH   7  23
ATOM     23  C   UNL     1       0.313  11.508  18.600  0.00  0.00    +0.000 C 
BRANCH  23  24
ATOM     24  C   UNL     1       1.175  12.752  18.655  0.00  0.00    +0.000 A 
ATOM     25  C   UNL     1       0.647  13.997  19.047  0.00  0.00    +0.000 A 
ATOM     26  C   UNL     1       1.456  15.136  19.103  0.00  0.00    +0.000 A 
ATOM     27  C   UNL     1       2.801  15.053  18.751  0.00  0.00    +0.000 A 
ATOM     28  C   UNL     1       3.317  13.838  18.321  0.00  0.00    +0.000 A 
ATOM     29  F   UNL     1       4.603  13.760  17.957  0.00  0.00    +0.000 F 
ATOM     30  C   UNL     1       2.519  12.697  18.262  0.00  0.00    +0.000 A 
ENDBRANCH  23  24
ENDBRANCH   7  23
TORSDOF 6
ENDMDL
MODEL 8
REMARK VINA RESULT:      -7.6      2.023      9.157
REMARK  Name = 
REMARK  7 active torsions:
REMARK  status: ('A' for Active; 'I' for Inactive)
REMARK    1  A    between atoms: C_1  and  C_2
REMARK    2  A    between atoms: C_3  and  C_4
REMARK    3  A    between atoms: N_6  and  C_7
REMARK    4  A    between atoms: C_7  and  C_8
REMARK    5  A    between atoms: C_11  and  C_12
REMARK    6  A    between atoms: N_21  and  C_22
REMARK    7  A    between atoms: C_22  and  C_23
REMARK                            x       y       z     vdW  Elec       q    Type
REMARK                         _______ _______ _______ _____ _____    ______ ____
ROOT
ATOM      1  C   UNL     1       2.966   6.944  17.430  0.00  0.00    +0.000 C 
ATOM      2  C   UNL     1       2.592   6.119  18.621  0.00  0.00    +0.000 A 
ATOM      3  C   UNL     1       2.041   6.561  19.775  0.00  0.00    +0.000 A 
ATOM      4  S   UNL     1       1.759   5.256  20.904  0.00  0.00    +0.000 S 
ATOM      5  C   UNL     1       2.438   4.081  19.792  0.00  0.00    +0.000 A 
ATOM      6  O   UNL     1       2.541   2.896  20.058  0.00  0.00    +0.000 OA
ATOM      7  N   UNL     1       2.811   4.735  18.626  0.00  0.00    +0.000 N 
ENDROOT
BRANCH   3   8
ATOM      8  C   UNL     1       1.706   7.968  20.191  0.00  0.00    +0.000 C 
ATOM      9  O   UNL     1       1.681   8.320  21.364  0.00  0.00    +0.000 OA
ATOM     10  N   UNL     1       1.414   8.820  19.147  0.00  0.00    +0.000 N 
ATOM     11  H   UNL     1       1.536   8.477  18.202  0.00  0.00    +0.000 HD
BRANCH  10  12
ATOM     12  C   UNL     1       1.151  10.232  19.322  0.00  0.00    +0.000 C 
BRANCH  12  13
ATOM     13  C   UNL     1      -0.258  10.597  18.911  0.00  0.00    +0.000 A 
ATOM     14  C   UNL     1      -0.867   9.955  17.821  0.00  0.00    +0.000 A 
ATOM     15  C   UNL     1      -2.185  10.250  17.457  0.00  0.00    +0.000 A 
ATOM     16  C   UNL     1      -2.931  11.193  18.179  0.00  0.00    +0.000 A 
ATOM     17  C   UNL     1      -2.324  11.840  19.264  0.00  0.00    +0.000 A 
ATOM     18  C   UNL     1      -1.003  11.547  19.626  0.00  0.00    +0.000 A 
BRANCH  16  19
ATOM     19  C   UNL     1      -4.363  11.504  17.811  0.00  0.00    +0.000 C 
ATOM     20  F   UNL     1      -5.206  10.441  17.940  0.00  0.00    +0.000 F 
ATOM     21  F   UNL     1      -4.895  12.495  18.581  0.00  0.00    +0.000 F 
ATOM     22  F   UNL     1      -4.493  11.927  16.522  0.00  0.00    +0.000 F 
ENDBRANCH  16  19
ENDBRANCH  12  13
ENDBRANCH  10  12
ENDBRANCH   3   8
BRANCH   7  23
ATOM     23  C   UNL     1       3.431   3.965  17.555  0.00  0.00    +0.000 C 
BRANCH  23  24
ATOM     24  C   UNL     1       4.910   4.237  17.369  0.00  0.00    +0.000 A 
ATOM     25  C   UNL     1       5.755   4.493  18.465  0.00  0.00    +0.000 A 
ATOM     26  C   UNL     1       7.120   4.733  18.280  0.00  0.00    +0.000 A 
ATOM     27  C   UNL     1       7.659   4.738  16.996  0.00  0.00    +0.000 A 
ATOM     28  C   UNL     1       6.822   4.530  15.908  0.00  0.00    +0.000 A 
ATOM     29  F   UNL     1       7.332   4.559  14.670  0.00  0.00    +0.000 F 
ATOM     30  C   UNL     1       5.461   4.290  16.081  0.00  0.00    +0.000 A 
ENDBRANCH  23  24
ENDBRANCH   7  23
TORSDOF 6
ENDMDL
MODEL 9
REMARK VINA RESULT:      -7.5      2.777      9.328
REMARK  Name = 
REMARK  7 active torsions:
REMARK  status: ('A' for Active; 'I' for Inactive)
REMARK    1  A    between atoms: C_1  and  C_2
REMARK    2  A    between atoms: C_3  and  C_4
REMARK    3  A    between atoms: N_6  and  C_7
REMARK    4  A    between atoms: C_7  and  C_8
REMARK    5  A    between atoms: C_11  and  C_12
REMARK    6  A    between atoms: N_21  and  C_22
REMARK    7  A    between atoms: C_22  and  C_23
REMARK                            x       y       z     vdW  Elec       q    Type
REMARK                         _______ _______ _______ _____ _____    ______ ____
ROOT
ATOM      1  C   UNL     1       3.003   7.976  17.972  0.00  0.00    +0.000 C 
ATOM      2  C   UNL     1       2.525   6.950  18.951  0.00  0.00    +0.000 A 
ATOM      3  C   UNL     1       1.802   7.171  20.073  0.00  0.00    +0.000 A 
ATOM      4  S   UNL     1       1.452   5.686  20.926  0.00  0.00    +0.000 S 
ATOM      5  C   UNL     1       2.341   4.740  19.745  0.00  0.00    +0.000 A 
ATOM      6  O   UNL     1       2.478   3.531  19.829  0.00  0.00    +0.000 OA
ATOM      7  N   UNL     1       2.823   5.593  18.763  0.00  0.00    +0.000 N 
ENDROOT
BRANCH   3   8
ATOM      8  C   UNL     1       1.332   8.475  20.659  0.00  0.00    +0.000 C 
ATOM      9  O   UNL     1       1.436   8.736  21.851  0.00  0.00    +0.000 OA
ATOM     10  N   UNL     1       0.762   9.340  19.749  0.00  0.00    +0.000 N 
ATOM     11  H   UNL     1       0.787   9.087  18.769  0.00  0.00    +0.000 HD
BRANCH  10  12
ATOM     12  C   UNL     1       0.324  10.677  20.089  0.00  0.00    +0.000 C 
BRANCH  12  13
ATOM     13  C   UNL     1      -1.020  11.001  19.476  0.00  0.00    +0.000 A 
ATOM     14  C   UNL     1      -1.479  10.290  18.357  0.00  0.00    +0.000 A 
ATOM     15  C   UNL     1      -2.739  10.549  17.808  0.00  0.00    +0.000 A 
ATOM     16  C   UNL     1      -3.576  11.523  18.369  0.00  0.00    +0.000 A 
ATOM     17  C   UNL     1      -3.119  12.239  19.484  0.00  0.00    +0.000 A 
ATOM     18  C   UNL     1      -1.855  11.983  20.031  0.00  0.00    +0.000 A 
BRANCH  16  19
ATOM     19  C   UNL     1      -4.950  11.797  17.800  0.00  0.00    +0.000 C 
ATOM     20  F   UNL     1      -5.745  10.692  17.734  0.00  0.00    +0.000 F 
ATOM     21  F   UNL     1      -5.645  12.711  18.534  0.00  0.00    +0.000 F 
ATOM     22  F   UNL     1      -4.901  12.296  16.533  0.00  0.00    +0.000 F 
ENDBRANCH  16  19
ENDBRANCH  12  13
ENDBRANCH  10  12
ENDBRANCH   3   8
BRANCH   7  23
ATOM     23  C   UNL     1       3.624   5.037  17.679  0.00  0.00    +0.000 C 
BRANCH  23  24
ATOM     24  C   UNL     1       5.095   5.392  17.747  0.00  0.00    +0.000 A 
ATOM     25  C   UNL     1       5.817   5.767  16.599  0.00  0.00    +0.000 A 
ATOM     26  C   UNL     1       7.172   6.102  16.678  0.00  0.00    +0.000 A 
ATOM     27  C   UNL     1       7.832   6.050  17.903  0.00  0.00    +0.000 A 
ATOM     28  C   UNL     1       7.137   5.637  19.032  0.00  0.00    +0.000 A 
ATOM     29  F   UNL     1       7.775   5.561  20.207  0.00  0.00    +0.000 F 
ATOM     30  C   UNL     1       5.787   5.302  18.964  0.00  0.00    +0.000 A 
ENDBRANCH  23  24
ENDBRANCH   7  23
TORSDOF 6
ENDMDL
