MODEL 1
REMARK VINA RESULT:      -7.4      0.000      0.000
REMARK  Name = 
REMARK  4 active torsions:
REMARK  status: ('A' for Active; 'I' for Inactive)
REMARK    1  A    between atoms: C_2  and  C_3
REMARK    2  A    between atoms: C_6  and  C_7
REMARK    3  A    between atoms: C_11  and  C_12
REMARK    4  A    between atoms: C_12  and  O_14
REMARK                            x       y       z     vdW  Elec       q    Type
REMARK                         _______ _______ _______ _____ _____    ______ ____
ROOT
ATOM      1  C   UNL     1       4.633   4.145  17.915  0.00  0.00    +0.000 A 
ATOM      2  C   UNL     1       5.053   3.832  16.612  0.00  0.00    +0.000 A 
ATOM      3  C   UNL     1       6.316   4.209  16.151  0.00  0.00    +0.000 A 
ATOM      4  C   UNL     1       7.185   4.898  16.993  0.00  0.00    +0.000 A 
ATOM      5  C   UNL     1       6.801   5.197  18.304  0.00  0.00    +0.000 A 
ATOM      6  C   UNL     1       5.525   4.828  18.759  0.00  0.00    +0.000 A 
ENDROOT
BRANCH   1  10
ATOM      7  C   UNL     1       1.814   3.191  19.884  0.00  0.00    +0.000 A 
ATOM      8  C   UNL     1       1.102   3.403  18.724  0.00  0.00    +0.000 A 
ATOM      9  C   UNL     1       2.043   3.791  17.740  0.00  0.00    +0.000 A 
ATOM     10  C   UNL     1       3.280   3.802  18.353  0.00  0.00    +0.000 A 
ATOM     11  O   UNL     1       3.142   3.423  19.662  0.00  0.00    +0.000 OA
BRANCH   7  13
ATOM     12  O   UNL     1       2.031   2.989  22.233  0.00  0.00    +0.000 OA
ATOM     13  C   UNL     1       1.391   2.799  21.201  0.00  0.00    +0.000 C 
ENDBRANCH   7  13
ENDBRANCH   1  10
BRANCH   5  14
ATOM     14  C   UNL     1       7.752   5.972  19.145  0.00  0.00    +0.000 C 
ATOM     15  O   UNL     1       8.296   6.989  18.748  0.00  0.00    +0.000 OA
BRANCH  14  16
ATOM     16  O   UNL     1       7.987   5.441  20.360  0.00  0.00    +0.000 OA
ATOM     17  H   UNL     1       7.631   4.546  20.507  0.00  0.00    +0.000 HD
ENDBRANCH  14  16
ENDBRANCH   5  14
TORSDOF 4
ENDMDL
MODEL 2
REMARK VINA RESULT:      -7.3      2.425      2.934
REMARK  Name = 
REMARK  4 active torsions:
REMARK  status: ('A' for Active; 'I' for Inactive)
REMARK    1  A    between atoms: C_2  and  C_3
REMARK    2  A    between atoms: C_6  and  C_7
REMARK    3  A    between atoms: C_11  and  C_12
REMARK    4  A    between atoms: C_12  and  O_14
REMARK                            x       y       z     vdW  Elec       q    Type
REMARK                         _______ _______ _______ _____ _____    ______ ____
ROOT
ATOM      1  C   UNL     1       3.836   4.516  17.359  0.00  0.00    +0.000 A 
ATOM      2  C   UNL     1       3.713   5.891  17.612  0.00  0.00    +0.000 A 
ATOM      3  C   UNL     1       4.506   6.823  16.940  0.00  0.00    +0.000 A 
ATOM      4  C   UNL     1       5.431   6.391  15.992  0.00  0.00    +0.000 A 
ATOM      5  C   UNL     1       5.554   5.029  15.702  0.00  0.00    +0.000 A 
ATOM      6  C   UNL     1       4.764   4.095  16.390  0.00  0.00    +0.000 A 
ENDROOT
BRANCH   1  10
ATOM      7  C   UNL     1       1.889   2.940  19.900  0.00  0.00    +0.000 A 
ATOM      8  C   UNL     1       1.814   1.895  19.006  0.00  0.00    +0.000 A 
ATOM      9  C   UNL     1       2.559   2.286  17.868  0.00  0.00    +0.000 A 
ATOM     10  C   UNL     1       3.045   3.553  18.124  0.00  0.00    +0.000 A 
ATOM     11  O   UNL     1       2.646   3.949  19.373  0.00  0.00    +0.000 OA
BRANCH   7  13
ATOM     12  O   UNL     1       1.562   2.406  22.184  0.00  0.00    +0.000 OA
ATOM     13  C   UNL     1       1.320   3.115  21.209  0.00  0.00    +0.000 C 
ENDBRANCH   7  13
ENDBRANCH   1  10
BRANCH   5  14
ATOM     14  C   UNL     1       6.588   4.622  14.713  0.00  0.00    +0.000 C 
ATOM     15  O   UNL     1       7.577   5.299  14.485  0.00  0.00    +0.000 OA
BRANCH  14  16
ATOM     16  O   UNL     1       6.324   3.469  14.069  0.00  0.00    +0.000 OA
ATOM     17  H   UNL     1       7.081   3.052  13.620  0.00  0.00    +0.000 HD
ENDBRANCH  14  16
ENDBRANCH   5  14
TORSDOF 4
ENDMDL
MODEL 3
REMARK VINA RESULT:      -7.2      1.945      2.621
REMARK  Name = 
REMARK  4 active torsions:
REMARK  status: ('A' for Active; 'I' for Inactive)
REMARK    1  A    between atoms: C_2  and  C_3
REMARK    2  A    between atoms: C_6  and  C_7
REMARK    3  A    between atoms: C_11  and  C_12
REMARK    4  A    between atoms: C_12  and  O_14
REMARK                            x       y       z     vdW  Elec       q    Type
REMARK                         _______ _______ _______ _____ _____    ______ ____
ROOT
ATOM      1  C   UNL     1       4.604   4.321  17.988  0.00  0.00    +0.000 A 
ATOM      2  C   UNL     1       5.470   4.858  18.955  0.00  0.00    +0.000 A 
ATOM      3  C   UNL     1       6.756   5.282  18.616  0.00  0.00    +0.000 A 
ATOM      4  C   UNL     1       7.193   5.187  17.297  0.00  0.00    +0.000 A 
ATOM      5  C   UNL     1       6.340   4.681  16.311  0.00  0.00    +0.000 A 
ATOM      6  C   UNL     1       5.053   4.243  16.659  0.00  0.00    +0.000 A 
ENDROOT
BRANCH   1  10
ATOM      7  C   UNL     1       1.804   3.167  19.876  0.00  0.00    +0.000 A 
ATOM      8  C   UNL     1       1.172   3.117  18.653  0.00  0.00    +0.000 A 
ATOM      9  C   UNL     1       2.124   3.531  17.691  0.00  0.00    +0.000 A 
ATOM     10  C   UNL     1       3.287   3.818  18.378  0.00  0.00    +0.000 A 
ATOM     11  O   UNL     1       3.096   3.583  19.714  0.00  0.00    +0.000 OA
BRANCH   7  13
ATOM     12  O   UNL     1       2.052   2.719  22.188  0.00  0.00    +0.000 OA
ATOM     13  C   UNL     1       1.334   2.875  21.202  0.00  0.00    +0.000 C 
ENDBRANCH   7  13
ENDBRANCH   1  10
BRANCH   5  14
ATOM     14  C   UNL     1       6.876   4.561  14.928  0.00  0.00    +0.000 C 
ATOM     15  O   UNL     1       7.673   5.359  14.464  0.00  0.00    +0.000 OA
BRANCH  14  16
ATOM     16  O   UNL     1       6.382   3.525  14.224  0.00  0.00    +0.000 OA
ATOM     17  H   UNL     1       6.987   2.772  14.099  0.00  0.00    +0.000 HD
ENDBRANCH  14  16
ENDBRANCH   5  14
TORSDOF 4
ENDMDL
MODEL 4
REMARK VINA RESULT:      -7.0      0.906      1.023
REMARK  Name = 
REMARK  4 active torsions:
REMARK  status: ('A' for Active; 'I' for Inactive)
REMARK    1  A    between atoms: C_2  and  C_3
REMARK    2  A    between atoms: C_6  and  C_7
REMARK    3  A    between atoms: C_11  and  C_12
REMARK    4  A    between atoms: C_12  and  O_14
REMARK                            x       y       z     vdW  Elec       q    Type
REMARK                         _______ _______ _______ _____ _____    ______ ____
ROOT
ATOM      1  C   UNL     1       4.629   4.514  17.517  0.00  0.00    +0.000 A 
ATOM      2  C   UNL     1       5.001   3.849  16.337  0.00  0.00    +0.000 A 
ATOM      3  C   UNL     1       6.169   4.192  15.653  0.00  0.00    +0.000 A 
ATOM      4  C   UNL     1       6.991   5.201  16.148  0.00  0.00    +0.000 A 
ATOM      5  C   UNL     1       6.657   5.859  17.336  0.00  0.00    +0.000 A 
ATOM      6  C   UNL     1       5.475   5.521  18.012  0.00  0.00    +0.000 A 
ENDROOT
BRANCH   1  10
ATOM      7  C   UNL     1       2.167   3.630  19.945  0.00  0.00    +0.000 A 
ATOM      8  C   UNL     1       1.278   3.800  18.907  0.00  0.00    +0.000 A 
ATOM      9  C   UNL     1       2.046   4.153  17.772  0.00  0.00    +0.000 A 
ATOM     10  C   UNL     1       3.366   4.186  18.179  0.00  0.00    +0.000 A 
ATOM     11  O   UNL     1       3.442   3.854  19.505  0.00  0.00    +0.000 OA
BRANCH   7  13
ATOM     12  O   UNL     1       2.728   2.600  22.002  0.00  0.00    +0.000 OA
ATOM     13  C   UNL     1       1.964   3.285  21.325  0.00  0.00    +0.000 C 
ENDBRANCH   7  13
ENDBRANCH   1  10
BRANCH   5  14
ATOM     14  C   UNL     1       7.550   6.958  17.793  0.00  0.00    +0.000 C 
ATOM     15  O   UNL     1       7.698   7.988  17.157  0.00  0.00    +0.000 OA
BRANCH  14  16
ATOM     16  O   UNL     1       8.203   6.707  18.944  0.00  0.00    +0.000 OA
ATOM     17  H   UNL     1       8.687   7.459  19.329  0.00  0.00    +0.000 HD
ENDBRANCH  14  16
ENDBRANCH   5  14
TORSDOF 4
ENDMDL
MODEL 5
REMARK VINA RESULT:      -6.8      1.373      1.538
REMARK  Name = 
REMARK  4 active torsions:
REMARK  status: ('A' for Active; 'I' for Inactive)
REMARK    1  A    between atoms: C_2  and  C_3
REMARK    2  A    between atoms: C_6  and  C_7
REMARK    3  A    between atoms: C_11  and  C_12
REMARK    4  A    between atoms: C_12  and  O_14
REMARK                            x       y       z     vdW  Elec       q    Type
REMARK                         _______ _______ _______ _____ _____    ______ ____
ROOT
ATOM      1  C   UNL     1       3.943   4.968  18.092  0.00  0.00    +0.000 A 
ATOM      2  C   UNL     1       3.814   6.136  17.321  0.00  0.00    +0.000 A 
ATOM      3  C   UNL     1       4.934   6.880  16.947  0.00  0.00    +0.000 A 
ATOM      4  C   UNL     1       6.206   6.460  17.329  0.00  0.00    +0.000 A 
ATOM      5  C   UNL     1       6.363   5.286  18.072  0.00  0.00    +0.000 A 
ATOM      6  C   UNL     1       5.233   4.548  18.458  0.00  0.00    +0.000 A 
ENDROOT
BRANCH   1  10
ATOM      7  C   UNL     1       1.536   3.217  20.061  0.00  0.00    +0.000 A 
ATOM      8  C   UNL     1       0.786   3.224  18.907  0.00  0.00    +0.000 A 
ATOM      9  C   UNL     1       1.566   3.878  17.923  0.00  0.00    +0.000 A 
ATOM     10  C   UNL     1       2.751   4.243  18.532  0.00  0.00    +0.000 A 
ATOM     11  O   UNL     1       2.739   3.827  19.837  0.00  0.00    +0.000 OA
BRANCH   7  13
ATOM     12  O   UNL     1       2.039   2.725  22.322  0.00  0.00    +0.000 OA
ATOM     13  C   UNL     1       1.256   2.707  21.375  0.00  0.00    +0.000 C 
ENDBRANCH   7  13
ENDBRANCH   1  10
BRANCH   5  14
ATOM     14  C   UNL     1       7.740   4.909  18.489  0.00  0.00    +0.000 C 
ATOM     15  O   UNL     1       8.270   5.370  19.486  0.00  0.00    +0.000 OA
BRANCH  14  16
ATOM     16  O   UNL     1       8.361   4.049  17.659  0.00  0.00    +0.000 OA
ATOM     17  H   UNL     1       9.334   4.087  17.660  0.00  0.00    +0.000 HD
ENDBRANCH  14  16
ENDBRANCH   5  14
TORSDOF 4
ENDMDL
MODEL 6
REMARK VINA RESULT:      -6.7      3.936      6.148
REMARK  Name = 
REMARK  4 active torsions:
REMARK  status: ('A' for Active; 'I' for Inactive)
REMARK    1  A    between atoms: C_2  and  C_3
REMARK    2  A    between atoms: C_6  and  C_7
REMARK    3  A    between atoms: C_11  and  C_12
REMARK    4  A    between atoms: C_12  and  O_14
REMARK                            x       y       z     vdW  Elec       q    Type
REMARK                         _______ _______ _______ _____ _____    ______ ____
ROOT
ATOM      1  C   UNL     1       6.500   4.781  14.609  0.00  0.00    +0.000 A 
ATOM      2  C   UNL     1       7.588   5.410  13.982  0.00  0.00    +0.000 A 
ATOM      3  C   UNL     1       7.916   5.130  12.654  0.00  0.00    +0.000 A 
ATOM      4  C   UNL     1       7.150   4.222  11.927  0.00  0.00    +0.000 A 
ATOM      5  C   UNL     1       6.045   3.603  12.520  0.00  0.00    +0.000 A 
ATOM      6  C   UNL     1       5.728   3.877  13.860  0.00  0.00    +0.000 A 
ENDROOT
BRANCH   1  10
ATOM      7  C   UNL     1       6.828   5.531  18.083  0.00  0.00    +0.000 A 
ATOM      8  C   UNL     1       5.453   5.446  18.092  0.00  0.00    +0.000 A 
ATOM      9  C   UNL     1       5.060   5.125  16.771  0.00  0.00    +0.000 A 
ATOM     10  C   UNL     1       6.217   5.037  16.022  0.00  0.00    +0.000 A 
ATOM     11  O   UNL     1       7.300   5.272  16.826  0.00  0.00    +0.000 OA
BRANCH   7  13
ATOM     12  O   UNL     1       7.769   5.336  20.247  0.00  0.00    +0.000 OA
ATOM     13  C   UNL     1       7.769   5.838  19.125  0.00  0.00    +0.000 C 
ENDBRANCH   7  13
ENDBRANCH   1  10
BRANCH   5  14
ATOM     14  C   UNL     1       5.290   2.609  11.710  0.00  0.00    +0.000 C 
ATOM     15  O   UNL     1       4.195   2.852  11.233  0.00  0.00    +0.000 OA
BRANCH  14  16
ATOM     16  O   UNL     1       5.899   1.415  11.580  0.00  0.00    +0.000 OA
ATOM     17  H   UNL     1       5.499   0.679  12.075  0.00  0.00    +0.000 HD
ENDBRANCH  14  16
ENDBRANCH   5  14
TORSDOF 4
ENDMDL
MODEL 7
REMARK VINA RESULT:      -6.7      2.436      3.101
REMARK  Name = 
REMARK  4 active torsions:
REMARK  status: ('A' for Active; 'I' for Inactive)
REMARK    1  A    between atoms: C_2  and  C_3
REMARK    2  A    between atoms: C_6  and  C_7
REMARK    3  A    between atoms: C_11  and  C_12
REMARK    4  A    between atoms: C_12  and  O_14
REMARK                            x       y       z     vdW  Elec       q    Type
REMARK                         _______ _______ _______ _____ _____    ______ ____
ROOT
ATOM      1  C   UNL     1       4.438   4.647  17.842  0.00  0.00    +0.000 A 
ATOM      2  C   UNL     1       3.988   5.977  17.813  0.00  0.00    +0.000 A 
ATOM      3  C   UNL     1       4.397   6.856  16.808  0.00  0.00    +0.000 A 
ATOM      4  C   UNL     1       5.256   6.411  15.806  0.00  0.00    +0.000 A 
ATOM      5  C   UNL     1       5.696   5.084  15.797  0.00  0.00    +0.000 A 
ATOM      6  C   UNL     1       5.293   4.208  16.817  0.00  0.00    +0.000 A 
ENDROOT
BRANCH   1  10
ATOM      7  C   UNL     1       2.626   3.031  20.458  0.00  0.00    +0.000 A 
ATOM      8  C   UNL     1       3.741   2.227  20.550  0.00  0.00    +0.000 A 
ATOM      9  C   UNL     1       4.658   2.700  19.581  0.00  0.00    +0.000 A 
ATOM     10  C   UNL     1       4.052   3.764  18.943  0.00  0.00    +0.000 A 
ATOM     11  O   UNL     1       2.813   3.975  19.488  0.00  0.00    +0.000 OA
BRANCH   7  13
ATOM     12  O   UNL     1       1.222   2.557  22.305  0.00  0.00    +0.000 OA
ATOM     13  C   UNL     1       1.381   3.016  21.175  0.00  0.00    +0.000 C 
ENDBRANCH   7  13
ENDBRANCH   1  10
BRANCH   5  14
ATOM     14  C   UNL     1       6.647   4.677  14.728  0.00  0.00    +0.000 C 
ATOM     15  O   UNL     1       7.605   5.362  14.410  0.00  0.00    +0.000 OA
BRANCH  14  16
ATOM     16  O   UNL     1       6.343   3.514  14.121  0.00  0.00    +0.000 OA
ATOM     17  H   UNL     1       7.004   3.182  13.487  0.00  0.00    +0.000 HD
ENDBRANCH  14  16
ENDBRANCH   5  14
TORSDOF 4
ENDMDL
MODEL 8
REMARK VINA RESULT:      -6.7      2.479      3.117
REMARK  Name = 
REMARK  4 active torsions:
REMARK  status: ('A' for Active; 'I' for Inactive)
REMARK    1  A    between atoms: C_2  and  C_3
REMARK    2  A    between atoms: C_6  and  C_7
REMARK    3  A    between atoms: C_11  and  C_12
REMARK    4  A    between atoms: C_12  and  O_14
REMARK                            x       y       z     vdW  Elec       q    Type
REMARK                         _______ _______ _______ _____ _____    ______ ____
ROOT
ATOM      1  C   UNL     1       4.832   4.200  17.381  0.00  0.00    +0.000 A 
ATOM      2  C   UNL     1       5.865   4.494  18.285  0.00  0.00    +0.000 A 
ATOM      3  C   UNL     1       7.161   4.760  17.837  0.00  0.00    +0.000 A 
ATOM      4  C   UNL     1       7.440   4.746  16.473  0.00  0.00    +0.000 A 
ATOM      5  C   UNL     1       6.422   4.482  15.551  0.00  0.00    +0.000 A 
ATOM      6  C   UNL     1       5.124   4.203  16.006  0.00  0.00    +0.000 A 
ENDROOT
BRANCH   1  10
ATOM      7  C   UNL     1       1.837   4.036  19.316  0.00  0.00    +0.000 A 
ATOM      8  C   UNL     1       1.406   3.179  18.328  0.00  0.00    +0.000 A 
ATOM      9  C   UNL     1       2.473   3.060  17.405  0.00  0.00    +0.000 A 
ATOM     10  C   UNL     1       3.498   3.856  17.875  0.00  0.00    +0.000 A 
ATOM     11  O   UNL     1       3.115   4.444  19.051  0.00  0.00    +0.000 OA
BRANCH   7  13
ATOM     12  O   UNL     1       1.320   5.666  20.953  0.00  0.00    +0.000 OA
ATOM     13  C   UNL     1       1.183   4.534  20.495  0.00  0.00    +0.000 C 
ENDBRANCH   7  13
ENDBRANCH   1  10
BRANCH   5  14
ATOM     14  C   UNL     1       6.787   4.437  14.110  0.00  0.00    +0.000 C 
ATOM     15  O   UNL     1       7.461   5.305  13.579  0.00  0.00    +0.000 OA
BRANCH  14  16
ATOM     16  O   UNL     1       6.286   3.383  13.438  0.00  0.00    +0.000 OA
ATOM     17  H   UNL     1       6.653   2.514  13.680  0.00  0.00    +0.000 HD
ENDBRANCH  14  16
ENDBRANCH   5  14
TORSDOF 4
ENDMDL
MODEL 9
REMARK VINA RESULT:      -6.7      2.007      5.986
REMARK  Name = 
REMARK  4 active torsions:
REMARK  status: ('A' for Active; 'I' for Inactive)
REMARK    1  A    between atoms: C_2  and  C_3
REMARK    2  A    between atoms: C_6  and  C_7
REMARK    3  A    between atoms: C_11  and  C_12
REMARK    4  A    between atoms: C_12  and  O_14
REMARK                            x       y       z     vdW  Elec       q    Type
REMARK                         _______ _______ _______ _____ _____    ______ ____
ROOT
ATOM      1  C   UNL     1       3.780   4.358  18.362  0.00  0.00    +0.000 A 
ATOM      2  C   UNL     1       2.605   4.450  17.599  0.00  0.00    +0.000 A 
ATOM      3  C   UNL     1       1.387   3.976  18.090  0.00  0.00    +0.000 A 
ATOM      4  C   UNL     1       1.323   3.412  19.362  0.00  0.00    +0.000 A 
ATOM      5  C   UNL     1       2.474   3.334  20.153  0.00  0.00    +0.000 A 
ATOM      6  C   UNL     1       3.699   3.800  19.649  0.00  0.00    +0.000 A 
ENDROOT
BRANCH   1  10
ATOM      7  C   UNL     1       6.508   4.991  16.150  0.00  0.00    +0.000 A 
ATOM      8  C   UNL     1       7.050   5.657  17.227  0.00  0.00    +0.000 A 
ATOM      9  C   UNL     1       6.122   5.530  18.288  0.00  0.00    +0.000 A 
ATOM     10  C   UNL     1       5.058   4.797  17.801  0.00  0.00    +0.000 A 
ATOM     11  O   UNL     1       5.299   4.456  16.497  0.00  0.00    +0.000 OA
BRANCH   7  13
ATOM     12  O   UNL     1       7.828   5.504  14.253  0.00  0.00    +0.000 OA
ATOM     13  C   UNL     1       6.990   4.798  14.811  0.00  0.00    +0.000 C 
ENDBRANCH   7  13
ENDBRANCH   1  10
BRANCH   5  14
ATOM     14  C   UNL     1       2.356   2.683  21.485  0.00  0.00    +0.000 C 
ATOM     15  O   UNL     1       3.290   2.104  22.014  0.00  0.00    +0.000 OA
BRANCH  14  16
ATOM     16  O   UNL     1       1.130   2.755  22.036  0.00  0.00    +0.000 OA
ATOM     17  H   UNL     1       0.386   2.543  21.444  0.00  0.00    +0.000 HD
ENDBRANCH  14  16
ENDBRANCH   5  14
TORSDOF 4
ENDMDL
