MODEL 1
REMARK VINA RESULT:      -8.4      0.000      0.000
REMARK  Name = 
REMARK  6 active torsions:
REMARK  status: ('A' for Active; 'I' for Inactive)
REMARK    1  A    between atoms: C_1  and  C_2
REMARK    2  A    between atoms: N_4  and  C_5
REMARK    3  A    between atoms: C_5  and  C_6
REMARK    4  A    between atoms: N_8  and  C_9
REMARK    5  A    between atoms: C_12  and  C_13
REMARK    6  A    between atoms: C_14  and  C_16
REMARK                            x       y       z     vdW  Elec       q    Type
REMARK                         _______ _______ _______ _____ _____    ______ ____
ROOT
ATOM      1  C   UNL     1       2.879   6.943  18.583  0.00  0.00    +0.000 A 
ATOM      2  C   UNL     1       2.694   7.966  17.649  0.00  0.00    +0.000 A 
ATOM      3  C   UNL     1       1.916   9.096  17.944  0.00  0.00    +0.000 A 
ATOM      4  C   UNL     1       1.289   9.249  19.189  0.00  0.00    +0.000 A 
ATOM      5  C   UNL     1       1.488   8.230  20.122  0.00  0.00    +0.000 A 
ATOM      6  F   UNL     1       1.029   8.342  21.374  0.00  0.00    +0.000 F 
ATOM      7  C   UNL     1       2.236   7.084  19.819  0.00  0.00    +0.000 A 
ENDROOT
BRANCH   1  10
ATOM      8  C   UNL     1       5.570   4.453  18.107  0.00  0.00    +0.000 C 
ATOM      9  C   UNL     1       5.145   5.896  18.286  0.00  0.00    +0.000 C 
ATOM     10  N   UNL     1       3.714   5.820  18.322  0.00  0.00    +0.000 N 
ATOM     11  C   UNL     1       3.312   4.584  17.831  0.00  0.00    +0.000 C 
ATOM     12  O   UNL     1       2.183   4.181  17.599  0.00  0.00    +0.000 OA
ATOM     13  O   UNL     1       4.411   3.811  17.557  0.00  0.00    +0.000 OA
BRANCH   8  14
ATOM     14  C   UNL     1       6.751   4.310  17.146  0.00  0.00    +0.000 C 
BRANCH  14  18
ATOM     15  C   UNL     1       6.243   3.849  13.423  0.00  0.00    +0.000 C 
ATOM     16  C   UNL     1       6.799   4.450  14.682  0.00  0.00    +0.000 C 
ATOM     17  O   UNL     1       7.558   5.417  14.680  0.00  0.00    +0.000 OA
ATOM     18  N   UNL     1       6.351   3.845  15.831  0.00  0.00    +0.000 N 
ATOM     19  H   UNL     1       5.905   2.938  15.763  0.00  0.00    +0.000 HD
ENDBRANCH  14  18
ENDBRANCH   8  14
ENDBRANCH   1  10
BRANCH   4  20
ATOM     20  C   UNL     1       0.572  10.514  19.440  0.00  0.00    +0.000 C 
ATOM     21  C   UNL     1      -0.580  11.005  18.943  0.00  0.00    +0.000 C 
ATOM     22 BR   UNL     1      -1.692  10.213  17.673  0.00  0.00    +0.000 Br
BRANCH  21  23
ATOM     23  C   UNL     1      -0.954  12.372  19.361  0.00  0.00    +0.000 A 
ATOM     24  C   UNL     1      -0.175  13.463  18.950  0.00  0.00    +0.000 A 
ATOM     25  C   UNL     1      -0.436  14.744  19.439  0.00  0.00    +0.000 A 
ATOM     26  C   UNL     1      -1.484  14.946  20.336  0.00  0.00    +0.000 A 
ATOM     27  C   UNL     1      -2.287  13.874  20.723  0.00  0.00    +0.000 A 
ATOM     28  C   UNL     1      -2.026  12.591  20.238  0.00  0.00    +0.000 A 
ENDBRANCH  21  23
ENDBRANCH   4  20
TORSDOF 5
ENDMDL
MODEL 2
REMARK VINA RESULT:      -8.4      1.642      2.156
REMARK  Name = 
REMARK  6 active torsions:
REMARK  status: ('A' for Active; 'I' for Inactive)
REMARK    1  A    between atoms: C_1  and  C_2
REMARK    2  A    between atoms: N_4  and  C_5
REMARK    3  A    between atoms: C_5  and  C_6
REMARK    4  A    between atoms: N_8  and  C_9
REMARK    5  A    between atoms: C_12  and  C_13
REMARK    6  A    between atoms: C_14  and  C_16
REMARK                            x       y       z     vdW  Elec       q    Type
REMARK                         _______ _______ _______ _____ _____    ______ ____
ROOT
ATOM      1  C   UNL     1       2.855   6.814  18.869  0.00  0.00    +0.000 A 
ATOM      2  C   UNL     1       2.299   6.783  20.151  0.00  0.00    +0.000 A 
ATOM      3  C   UNL     1       1.429   7.789  20.598  0.00  0.00    +0.000 A 
ATOM      4  C   UNL     1       1.081   8.873  19.779  0.00  0.00    +0.000 A 
ATOM      5  C   UNL     1       1.629   8.893  18.495  0.00  0.00    +0.000 A 
ATOM      6  F   UNL     1       1.263   9.821  17.603  0.00  0.00    +0.000 F 
ATOM      7  C   UNL     1       2.524   7.907  18.057  0.00  0.00    +0.000 A 
ENDROOT
BRANCH   1  10
ATOM      8  C   UNL     1       5.550   4.504  17.834  0.00  0.00    +0.000 C 
ATOM      9  C   UNL     1       5.114   5.887  18.274  0.00  0.00    +0.000 C 
ATOM     10  N   UNL     1       3.689   5.771  18.378  0.00  0.00    +0.000 N 
ATOM     11  C   UNL     1       3.278   4.624  17.711  0.00  0.00    +0.000 C 
ATOM     12  O   UNL     1       2.142   4.237  17.478  0.00  0.00    +0.000 OA
ATOM     13  O   UNL     1       4.369   3.934  17.251  0.00  0.00    +0.000 OA
BRANCH   8  14
ATOM     14  C   UNL     1       6.673   4.552  16.798  0.00  0.00    +0.000 C 
BRANCH  14  18
ATOM     15  C   UNL     1       6.242   3.761  13.121  0.00  0.00    +0.000 C 
ATOM     16  C   UNL     1       6.797   4.449  14.334  0.00  0.00    +0.000 C 
ATOM     17  O   UNL     1       7.611   5.368  14.266  0.00  0.00    +0.000 OA
ATOM     18  N   UNL     1       6.283   3.985  15.521  0.00  0.00    +0.000 N 
ATOM     19  H   UNL     1       5.787   3.102  15.524  0.00  0.00    +0.000 HD
ENDBRANCH  14  18
ENDBRANCH   8  14
ENDBRANCH   1  10
BRANCH   4  20
ATOM     20  C   UNL     1       0.086   9.830  20.301  0.00  0.00    +0.000 C 
ATOM     21  C   UNL     1       0.135  11.164  20.482  0.00  0.00    +0.000 C 
ATOM     22 BR   UNL     1       1.575  12.299  20.140  0.00  0.00    +0.000 Br
BRANCH  21  23
ATOM     23  C   UNL     1      -1.039  11.791  21.124  0.00  0.00    +0.000 A 
ATOM     24  C   UNL     1      -1.157  11.775  22.522  0.00  0.00    +0.000 A 
ATOM     25  C   UNL     1      -2.317  12.245  23.139  0.00  0.00    +0.000 A 
ATOM     26  C   UNL     1      -3.364  12.744  22.365  0.00  0.00    +0.000 A 
ATOM     27  C   UNL     1      -3.242  12.797  20.977  0.00  0.00    +0.000 A 
ATOM     28  C   UNL     1      -2.083  12.324  20.356  0.00  0.00    +0.000 A 
ENDBRANCH  21  23
ENDBRANCH   4  20
TORSDOF 5
ENDMDL
MODEL 3
REMARK VINA RESULT:      -8.4      2.307      3.503
REMARK  Name = 
REMARK  6 active torsions:
REMARK  status: ('A' for Active; 'I' for Inactive)
REMARK    1  A    between atoms: C_1  and  C_2
REMARK    2  A    between atoms: N_4  and  C_5
REMARK    3  A    between atoms: C_5  and  C_6
REMARK    4  A    between atoms: N_8  and  C_9
REMARK    5  A    between atoms: C_12  and  C_13
REMARK    6  A    between atoms: C_14  and  C_16
REMARK                            x       y       z     vdW  Elec       q    Type
REMARK                         _______ _______ _______ _____ _____    ______ ____
ROOT
ATOM      1  C   UNL     1       4.553   6.065  17.377  0.00  0.00    +0.000 A 
ATOM      2  C   UNL     1       4.045   7.343  17.130  0.00  0.00    +0.000 A 
ATOM      3  C   UNL     1       3.099   7.933  17.982  0.00  0.00    +0.000 A 
ATOM      4  C   UNL     1       2.620   7.266  19.118  0.00  0.00    +0.000 A 
ATOM      5  C   UNL     1       3.140   5.995  19.368  0.00  0.00    +0.000 A 
ATOM      6  F   UNL     1       2.833   5.331  20.488  0.00  0.00    +0.000 F 
ATOM      7  C   UNL     1       4.060   5.389  18.500  0.00  0.00    +0.000 A 
ENDROOT
BRANCH   1  10
ATOM      8  C   UNL     1       6.772   4.776  14.715  0.00  0.00    +0.000 C 
ATOM      9  C   UNL     1       5.422   5.316  15.140  0.00  0.00    +0.000 C 
ATOM     10  N   UNL     1       5.558   5.476  16.558  0.00  0.00    +0.000 N 
ATOM     11  C   UNL     1       6.667   4.761  16.992  0.00  0.00    +0.000 C 
ATOM     12  O   UNL     1       7.052   4.557  18.133  0.00  0.00    +0.000 OA
ATOM     13  O   UNL     1       7.318   4.213  15.917  0.00  0.00    +0.000 OA
BRANCH   8  14
ATOM     14  C   UNL     1       6.652   3.696  13.640  0.00  0.00    +0.000 C 
BRANCH  14  18
ATOM     15  C   UNL     1       3.865   3.260  11.115  0.00  0.00    +0.000 C 
ATOM     16  C   UNL     1       5.143   2.942  11.838  0.00  0.00    +0.000 C 
ATOM     17  O   UNL     1       5.871   2.003  11.523  0.00  0.00    +0.000 OA
ATOM     18  N   UNL     1       5.440   3.820  12.852  0.00  0.00    +0.000 N 
ATOM     19  H   UNL     1       4.711   4.434  13.194  0.00  0.00    +0.000 HD
ENDBRANCH  14  18
ENDBRANCH   8  14
ENDBRANCH   1  10
BRANCH   4  20
ATOM     20  C   UNL     1       1.700   8.005  20.005  0.00  0.00    +0.000 C 
ATOM     21  C   UNL     1       0.891   9.058  19.779  0.00  0.00    +0.000 C 
ATOM     22 BR   UNL     1       0.683  10.003  18.185  0.00  0.00    +0.000 Br
BRANCH  21  23
ATOM     23  C   UNL     1       0.166   9.601  20.946  0.00  0.00    +0.000 A 
ATOM     24  C   UNL     1      -0.563  10.793  20.819  0.00  0.00    +0.000 A 
ATOM     25  C   UNL     1      -1.145  11.389  21.938  0.00  0.00    +0.000 A 
ATOM     26  C   UNL     1      -1.013  10.794  23.192  0.00  0.00    +0.000 A 
ATOM     27  C   UNL     1      -0.321   9.591  23.324  0.00  0.00    +0.000 A 
ATOM     28  C   UNL     1       0.266   8.993  22.205  0.00  0.00    +0.000 A 
ENDBRANCH  21  23
ENDBRANCH   4  20
TORSDOF 5
ENDMDL
MODEL 4
REMARK VINA RESULT:      -8.3      1.306      1.701
REMARK  Name = 
REMARK  6 active torsions:
REMARK  status: ('A' for Active; 'I' for Inactive)
REMARK    1  A    between atoms: C_1  and  C_2
REMARK    2  A    between atoms: N_4  and  C_5
REMARK    3  A    between atoms: C_5  and  C_6
REMARK    4  A    between atoms: N_8  and  C_9
REMARK    5  A    between atoms: C_12  and  C_13
REMARK    6  A    between atoms: C_14  and  C_16
REMARK                            x       y       z     vdW  Elec       q    Type
REMARK                         _______ _______ _______ _____ _____    ______ ____
ROOT
ATOM      1  C   UNL     1       3.027   6.809  18.700  0.00  0.00    +0.000 A 
ATOM      2  C   UNL     1       2.403   6.742  19.949  0.00  0.00    +0.000 A 
ATOM      3  C   UNL     1       1.596   7.787  20.423  0.00  0.00    +0.000 A 
ATOM      4  C   UNL     1       1.382   8.948  19.666  0.00  0.00    +0.000 A 
ATOM      5  C   UNL     1       1.997   9.005  18.414  0.00  0.00    +0.000 A 
ATOM      6  F   UNL     1       1.757  10.017  17.572  0.00  0.00    +0.000 F 
ATOM      7  C   UNL     1       2.831   7.977  17.952  0.00  0.00    +0.000 A 
ENDROOT
BRANCH   1  10
ATOM      8  C   UNL     1       5.584   4.402  17.542  0.00  0.00    +0.000 C 
ATOM      9  C   UNL     1       5.217   5.805  17.981  0.00  0.00    +0.000 C 
ATOM     10  N   UNL     1       3.799   5.733  18.178  0.00  0.00    +0.000 N 
ATOM     11  C   UNL     1       3.312   4.587  17.562  0.00  0.00    +0.000 C 
ATOM     12  O   UNL     1       2.154   4.229  17.410  0.00  0.00    +0.000 OA
ATOM     13  O   UNL     1       4.352   3.857  17.047  0.00  0.00    +0.000 OA
BRANCH   8  14
ATOM     14  C   UNL     1       6.639   4.398  16.436  0.00  0.00    +0.000 C 
BRANCH  14  18
ATOM     15  C   UNL     1       5.891   3.600  12.811  0.00  0.00    +0.000 C 
ATOM     16  C   UNL     1       6.533   4.306  13.971  0.00  0.00    +0.000 C 
ATOM     17  O   UNL     1       7.301   5.255  13.831  0.00  0.00    +0.000 OA
ATOM     18  N   UNL     1       6.150   3.819  15.197  0.00  0.00    +0.000 N 
ATOM     19  H   UNL     1       5.691   2.918  15.242  0.00  0.00    +0.000 HD
ENDBRANCH  14  18
ENDBRANCH   8  14
ENDBRANCH   1  10
BRANCH   4  20
ATOM     20  C   UNL     1       0.442   9.950  20.205  0.00  0.00    +0.000 C 
ATOM     21  C   UNL     1      -0.689  10.480  19.701  0.00  0.00    +0.000 C 
ATOM     22 BR   UNL     1      -1.464  10.123  18.043  0.00  0.00    +0.000 Br
BRANCH  21  23
ATOM     23  C   UNL     1      -1.335  11.545  20.496  0.00  0.00    +0.000 A 
ATOM     24  C   UNL     1      -2.267  12.399  19.887  0.00  0.00    +0.000 A 
ATOM     25  C   UNL     1      -2.789  13.489  20.584  0.00  0.00    +0.000 A 
ATOM     26  C   UNL     1      -2.393  13.728  21.899  0.00  0.00    +0.000 A 
ATOM     27  C   UNL     1      -1.495  12.865  22.526  0.00  0.00    +0.000 A 
ATOM     28  C   UNL     1      -0.967  11.775  21.829  0.00  0.00    +0.000 A 
ENDBRANCH  21  23
ENDBRANCH   4  20
TORSDOF 5
ENDMDL
MODEL 5
REMARK VINA RESULT:      -8.2      1.825      2.394
REMARK  Name = 
REMARK  6 active torsions:
REMARK  status: ('A' for Active; 'I' for Inactive)
REMARK    1  A    between atoms: C_1  and  C_2
REMARK    2  A    between atoms: N_4  and  C_5
REMARK    3  A    between atoms: C_5  and  C_6
REMARK    4  A    between atoms: N_8  and  C_9
REMARK    5  A    between atoms: C_12  and  C_13
REMARK    6  A    between atoms: C_14  and  C_16
REMARK                            x       y       z     vdW  Elec       q    Type
REMARK                         _______ _______ _______ _____ _____    ______ ____
ROOT
ATOM      1  C   UNL     1       3.764   6.110  17.955  0.00  0.00    +0.000 A 
ATOM      2  C   UNL     1       3.444   7.412  17.561  0.00  0.00    +0.000 A 
ATOM      3  C   UNL     1       2.554   8.205  18.302  0.00  0.00    +0.000 A 
ATOM      4  C   UNL     1       1.945   7.725  19.470  0.00  0.00    +0.000 A 
ATOM      5  C   UNL     1       2.278   6.429  19.867  0.00  0.00    +0.000 A 
ATOM      6  F   UNL     1       1.840   5.928  21.028  0.00  0.00    +0.000 F 
ATOM      7  C   UNL     1       3.140   5.622  19.110  0.00  0.00    +0.000 A 
ENDROOT
BRANCH   1  10
ATOM      8  C   UNL     1       6.525   4.661  15.969  0.00  0.00    +0.000 C 
ATOM      9  C   UNL     1       5.692   5.864  16.361  0.00  0.00    +0.000 C 
ATOM     10  N   UNL     1       4.710   5.315  17.250  0.00  0.00    +0.000 N 
ATOM     11  C   UNL     1       4.687   3.934  17.102  0.00  0.00    +0.000 C 
ATOM     12  O   UNL     1       3.919   3.121  17.596  0.00  0.00    +0.000 OA
ATOM     13  O   UNL     1       5.666   3.541  16.227  0.00  0.00    +0.000 OA
BRANCH   8  14
ATOM     14  C   UNL     1       6.920   4.686  14.492  0.00  0.00    +0.000 C 
BRANCH  14  18
ATOM     15  C   UNL     1       5.592   2.481  11.716  0.00  0.00    +0.000 C 
ATOM     16  C   UNL     1       6.443   3.538  12.359  0.00  0.00    +0.000 C 
ATOM     17  O   UNL     1       7.241   4.228  11.727  0.00  0.00    +0.000 OA
ATOM     18  N   UNL     1       6.218   3.689  13.706  0.00  0.00    +0.000 N 
ATOM     19  H   UNL     1       5.714   2.962  14.200  0.00  0.00    +0.000 HD
ENDBRANCH  14  18
ENDBRANCH   8  14
ENDBRANCH   1  10
BRANCH   4  20
ATOM     20  C   UNL     1       1.100   8.665  20.233  0.00  0.00    +0.000 C 
ATOM     21  C   UNL     1       0.213   9.597  19.835  0.00  0.00    +0.000 C 
ATOM     22 BR   UNL     1      -0.238  10.055  18.084  0.00  0.00    +0.000 Br
BRANCH  21  23
ATOM     23  C   UNL     1      -0.394  10.431  20.893  0.00  0.00    +0.000 A 
ATOM     24  C   UNL     1      -0.838  11.727  20.589  0.00  0.00    +0.000 A 
ATOM     25  C   UNL     1      -1.293  12.574  21.599  0.00  0.00    +0.000 A 
ATOM     26  C   UNL     1      -1.318  12.131  22.921  0.00  0.00    +0.000 A 
ATOM     27  C   UNL     1      -0.913  10.833  23.229  0.00  0.00    +0.000 A 
ATOM     28  C   UNL     1      -0.453   9.984  22.220  0.00  0.00    +0.000 A 
ENDBRANCH  21  23
ENDBRANCH   4  20
TORSDOF 5
ENDMDL
MODEL 6
REMARK VINA RESULT:      -8.2      1.668      2.291
REMARK  Name = 
REMARK  6 active torsions:
REMARK  status: ('A' for Active; 'I' for Inactive)
REMARK    1  A    between atoms: C_1  and  C_2
REMARK    2  A    between atoms: N_4  and  C_5
REMARK    3  A    between atoms: C_5  and  C_6
REMARK    4  A    between atoms: N_8  and  C_9
REMARK    5  A    between atoms: C_12  and  C_13
REMARK    6  A    between atoms: C_14  and  C_16
REMARK                            x       y       z     vdW  Elec       q    Type
REMARK                         _______ _______ _______ _____ _____    ______ ____
ROOT
ATOM      1  C   UNL     1       3.480   6.496  18.131  0.00  0.00    +0.000 A 
ATOM      2  C   UNL     1       2.901   6.260  19.381  0.00  0.00    +0.000 A 
ATOM      3  C   UNL     1       2.102   7.225  20.013  0.00  0.00    +0.000 A 
ATOM      4  C   UNL     1       1.852   8.471  19.420  0.00  0.00    +0.000 A 
ATOM      5  C   UNL     1       2.422   8.697  18.166  0.00  0.00    +0.000 A 
ATOM      6  F   UNL     1       2.144   9.806  17.471  0.00  0.00    +0.000 F 
ATOM      7  C   UNL     1       3.248   7.748  17.547  0.00  0.00    +0.000 A 
ENDROOT
BRANCH   1  10
ATOM      8  C   UNL     1       5.973   4.407  16.371  0.00  0.00    +0.000 C 
ATOM      9  C   UNL     1       5.515   5.772  16.844  0.00  0.00    +0.000 C 
ATOM     10  N   UNL     1       4.242   5.506  17.448  0.00  0.00    +0.000 N 
ATOM     11  C   UNL     1       3.801   4.252  17.046  0.00  0.00    +0.000 C 
ATOM     12  O   UNL     1       2.724   3.714  17.253  0.00  0.00    +0.000 OA
ATOM     13  O   UNL     1       4.761   3.644  16.279  0.00  0.00    +0.000 OA
BRANCH   8  14
ATOM     14  C   UNL     1       6.658   4.466  15.006  0.00  0.00    +0.000 C 
BRANCH  14  18
ATOM     15  C   UNL     1       5.591   2.697  11.833  0.00  0.00    +0.000 C 
ATOM     16  C   UNL     1       6.384   3.635  12.698  0.00  0.00    +0.000 C 
ATOM     17  O   UNL     1       7.248   4.386  12.249  0.00  0.00    +0.000 OA
ATOM     18  N   UNL     1       6.027   3.603  14.024  0.00  0.00    +0.000 N 
ATOM     19  H   UNL     1       5.469   2.828  14.360  0.00  0.00    +0.000 HD
ENDBRANCH  14  18
ENDBRANCH   8  14
ENDBRANCH   1  10
BRANCH   4  20
ATOM     20  C   UNL     1       0.922   9.382  20.116  0.00  0.00    +0.000 C 
ATOM     21  C   UNL     1      -0.198  10.007  19.702  0.00  0.00    +0.000 C 
ATOM     22 BR   UNL     1      -0.966   9.945  18.004  0.00  0.00    +0.000 Br
BRANCH  21  23
ATOM     23  C   UNL     1      -0.834  10.933  20.662  0.00  0.00    +0.000 A 
ATOM     24  C   UNL     1      -0.627  10.758  22.038  0.00  0.00    +0.000 A 
ATOM     25  C   UNL     1      -1.321  11.540  22.963  0.00  0.00    +0.000 A 
ATOM     26  C   UNL     1      -2.219  12.510  22.519  0.00  0.00    +0.000 A 
ATOM     27  C   UNL     1      -2.405  12.716  21.153  0.00  0.00    +0.000 A 
ATOM     28  C   UNL     1      -1.715  11.932  20.225  0.00  0.00    +0.000 A 
ENDBRANCH  21  23
ENDBRANCH   4  20
TORSDOF 5
ENDMDL
MODEL 7
REMARK VINA RESULT:      -8.1      0.973      1.224
REMARK  Name = 
REMARK  6 active torsions:
REMARK  status: ('A' for Active; 'I' for Inactive)
REMARK    1  A    between atoms: C_1  and  C_2
REMARK    2  A    between atoms: N_4  and  C_5
REMARK    3  A    between atoms: C_5  and  C_6
REMARK    4  A    between atoms: N_8  and  C_9
REMARK    5  A    between atoms: C_12  and  C_13
REMARK    6  A    between atoms: C_14  and  C_16
REMARK                            x       y       z     vdW  Elec       q    Type
REMARK                         _______ _______ _______ _____ _____    ______ ____
ROOT
ATOM      1  C   UNL     1       3.081   6.837  18.444  0.00  0.00    +0.000 A 
ATOM      2  C   UNL     1       2.793   8.015  17.749  0.00  0.00    +0.000 A 
ATOM      3  C   UNL     1       1.971   9.009  18.300  0.00  0.00    +0.000 A 
ATOM      4  C   UNL     1       1.399   8.865  19.572  0.00  0.00    +0.000 A 
ATOM      5  C   UNL     1       1.700   7.692  20.268  0.00  0.00    +0.000 A 
ATOM      6  F   UNL     1       1.299   7.517  21.532  0.00  0.00    +0.000 F 
ATOM      7  C   UNL     1       2.494   6.682  19.706  0.00  0.00    +0.000 A 
ENDROOT
BRANCH   1  10
ATOM      8  C   UNL     1       5.872   4.736  17.233  0.00  0.00    +0.000 C 
ATOM      9  C   UNL     1       5.339   6.100  17.621  0.00  0.00    +0.000 C 
ATOM     10  N   UNL     1       3.962   5.845  17.926  0.00  0.00    +0.000 N 
ATOM     11  C   UNL     1       3.604   4.606  17.412  0.00  0.00    +0.000 C 
ATOM     12  O   UNL     1       2.501   4.082  17.367  0.00  0.00    +0.000 OA
ATOM     13  O   UNL     1       4.701   3.994  16.862  0.00  0.00    +0.000 OA
BRANCH   8  14
ATOM     14  C   UNL     1       6.841   4.806  16.053  0.00  0.00    +0.000 C 
BRANCH  14  18
ATOM     15  C   UNL     1       6.160   3.507  12.562  0.00  0.00    +0.000 C 
ATOM     16  C   UNL     1       6.781   4.369  13.624  0.00  0.00    +0.000 C 
ATOM     17  O   UNL     1       7.555   5.289  13.367  0.00  0.00    +0.000 OA
ATOM     18  N   UNL     1       6.375   4.059  14.899  0.00  0.00    +0.000 N 
ATOM     19  H   UNL     1       5.912   3.173  15.061  0.00  0.00    +0.000 HD
ENDBRANCH  14  18
ENDBRANCH   8  14
ENDBRANCH   1  10
BRANCH   4  20
ATOM     20  C   UNL     1       0.628  10.004  20.106  0.00  0.00    +0.000 C 
ATOM     21  C   UNL     1      -0.452  10.655  19.633  0.00  0.00    +0.000 C 
ATOM     22 BR   UNL     1      -1.359  10.329  18.036  0.00  0.00    +0.000 Br
BRANCH  21  23
ATOM     23  C   UNL     1      -0.910  11.830  20.403  0.00  0.00    +0.000 A 
ATOM     24  C   UNL     1      -0.478  12.005  21.726  0.00  0.00    +0.000 A 
ATOM     25  C   UNL     1      -1.000  13.034  22.510  0.00  0.00    +0.000 A 
ATOM     26  C   UNL     1      -1.950  13.903  21.976  0.00  0.00    +0.000 A 
ATOM     27  C   UNL     1      -2.361  13.760  20.652  0.00  0.00    +0.000 A 
ATOM     28  C   UNL     1      -1.843  12.728  19.865  0.00  0.00    +0.000 A 
ENDBRANCH  21  23
ENDBRANCH   4  20
TORSDOF 5
ENDMDL
MODEL 8
REMARK VINA RESULT:      -8.1      1.199      1.554
REMARK  Name = 
REMARK  6 active torsions:
REMARK  status: ('A' for Active; 'I' for Inactive)
REMARK    1  A    between atoms: C_1  and  C_2
REMARK    2  A    between atoms: N_4  and  C_5
REMARK    3  A    between atoms: C_5  and  C_6
REMARK    4  A    between atoms: N_8  and  C_9
REMARK    5  A    between atoms: C_12  and  C_13
REMARK    6  A    between atoms: C_14  and  C_16
REMARK                            x       y       z     vdW  Elec       q    Type
REMARK                         _______ _______ _______ _____ _____    ______ ____
ROOT
ATOM      1  C   UNL     1       2.602   7.064  19.102  0.00  0.00    +0.000 A 
ATOM      2  C   UNL     1       1.922   7.196  20.316  0.00  0.00    +0.000 A 
ATOM      3  C   UNL     1       1.146   8.330  20.602  0.00  0.00    +0.000 A 
ATOM      4  C   UNL     1       1.020   9.382  19.684  0.00  0.00    +0.000 A 
ATOM      5  C   UNL     1       1.690   9.239  18.468  0.00  0.00    +0.000 A 
ATOM      6  F   UNL     1       1.535  10.133  17.485  0.00  0.00    +0.000 F 
ATOM      7  C   UNL     1       2.494   8.123  18.192  0.00  0.00    +0.000 A 
ENDROOT
BRANCH   1  10
ATOM      8  C   UNL     1       5.063   4.359  18.556  0.00  0.00    +0.000 C 
ATOM      9  C   UNL     1       4.769   5.806  18.895  0.00  0.00    +0.000 C 
ATOM     10  N   UNL     1       3.343   5.895  18.771  0.00  0.00    +0.000 N 
ATOM     11  C   UNL     1       2.879   4.790  18.069  0.00  0.00    +0.000 C 
ATOM     12  O   UNL     1       1.750   4.555  17.665  0.00  0.00    +0.000 OA
ATOM     13  O   UNL     1       3.918   3.936  17.802  0.00  0.00    +0.000 OA
BRANCH   8  14
ATOM     14  C   UNL     1       6.329   4.207  17.712  0.00  0.00    +0.000 C 
BRANCH  14  18
ATOM     15  C   UNL     1       6.182   3.942  13.938  0.00  0.00    +0.000 C 
ATOM     16  C   UNL     1       6.631   4.459  15.275  0.00  0.00    +0.000 C 
ATOM     17  O   UNL     1       7.421   5.393  15.398  0.00  0.00    +0.000 OA
ATOM     18  N   UNL     1       6.046   3.821  16.342  0.00  0.00    +0.000 N 
ATOM     19  H   UNL     1       5.576   2.938  16.183  0.00  0.00    +0.000 HD
ENDBRANCH  14  18
ENDBRANCH   8  14
ENDBRANCH   1  10
BRANCH   4  20
ATOM     20  C   UNL     1       0.106  10.487  20.034  0.00  0.00    +0.000 C 
ATOM     21  C   UNL     1      -1.028  10.929  19.457  0.00  0.00    +0.000 C 
ATOM     22 BR   UNL     1      -1.842  10.270  17.914  0.00  0.00    +0.000 Br
BRANCH  21  23
ATOM     23  C   UNL     1      -1.642  12.140  20.040  0.00  0.00    +0.000 A 
ATOM     24  C   UNL     1      -0.843  13.053  20.744  0.00  0.00    +0.000 A 
ATOM     25  C   UNL     1      -1.424  14.133  21.411  0.00  0.00    +0.000 A 
ATOM     26  C   UNL     1      -2.805  14.314  21.372  0.00  0.00    +0.000 A 
ATOM     27  C   UNL     1      -3.604  13.432  20.646  0.00  0.00    +0.000 A 
ATOM     28  C   UNL     1      -3.026  12.348  19.980  0.00  0.00    +0.000 A 
ENDBRANCH  21  23
ENDBRANCH   4  20
TORSDOF 5
ENDMDL
MODEL 9
REMARK VINA RESULT:      -8.0      1.778      2.320
REMARK  Name = 
REMARK  6 active torsions:
REMARK  status: ('A' for Active; 'I' for Inactive)
REMARK    1  A    between atoms: C_1  and  C_2
REMARK    2  A    between atoms: N_4  and  C_5
REMARK    3  A    between atoms: C_5  and  C_6
REMARK    4  A    between atoms: N_8  and  C_9
REMARK    5  A    between atoms: C_12  and  C_13
REMARK    6  A    between atoms: C_14  and  C_16
REMARK                            x       y       z     vdW  Elec       q    Type
REMARK                         _______ _______ _______ _____ _____    ______ ____
ROOT
ATOM      1  C   UNL     1       3.450   6.497  18.029  0.00  0.00    +0.000 A 
ATOM      2  C   UNL     1       2.867   6.239  19.273  0.00  0.00    +0.000 A 
ATOM      3  C   UNL     1       2.076   7.197  19.926  0.00  0.00    +0.000 A 
ATOM      4  C   UNL     1       1.837   8.457  19.360  0.00  0.00    +0.000 A 
ATOM      5  C   UNL     1       2.410   8.706  18.112  0.00  0.00    +0.000 A 
ATOM      6  F   UNL     1       2.142   9.832  17.440  0.00  0.00    +0.000 F 
ATOM      7  C   UNL     1       3.229   7.763  17.473  0.00  0.00    +0.000 A 
ENDROOT
BRANCH   1  10
ATOM      8  C   UNL     1       5.878   4.467  16.118  0.00  0.00    +0.000 C 
ATOM      9  C   UNL     1       5.369   5.827  16.551  0.00  0.00    +0.000 C 
ATOM     10  N   UNL     1       4.204   5.516  17.326  0.00  0.00    +0.000 N 
ATOM     11  C   UNL     1       3.823   4.206  17.068  0.00  0.00    +0.000 C 
ATOM     12  O   UNL     1       2.826   3.607  17.444  0.00  0.00    +0.000 OA
ATOM     13  O   UNL     1       4.731   3.612  16.230  0.00  0.00    +0.000 OA
BRANCH   8  14
ATOM     14  C   UNL     1       6.389   4.469  14.678  0.00  0.00    +0.000 C 
BRANCH  14  18
ATOM     15  C   UNL     1       4.522   3.211  11.633  0.00  0.00    +0.000 C 
ATOM     16  C   UNL     1       5.708   3.541  12.493  0.00  0.00    +0.000 C 
ATOM     17  O   UNL     1       6.868   3.394  12.114  0.00  0.00    +0.000 OA
ATOM     18  N   UNL     1       5.376   4.058  13.722  0.00  0.00    +0.000 N 
ATOM     19  H   UNL     1       4.424   3.958  14.052  0.00  0.00    +0.000 HD
ENDBRANCH  14  18
ENDBRANCH   8  14
ENDBRANCH   1  10
BRANCH   4  20
ATOM     20  C   UNL     1       0.915   9.362  20.075  0.00  0.00    +0.000 C 
ATOM     21  C   UNL     1      -0.205   9.996  19.678  0.00  0.00    +0.000 C 
ATOM     22 BR   UNL     1      -0.984   9.962  17.983  0.00  0.00    +0.000 Br
BRANCH  21  23
ATOM     23  C   UNL     1      -0.833  10.910  20.654  0.00  0.00    +0.000 A 
ATOM     24  C   UNL     1      -1.559  12.020  20.200  0.00  0.00    +0.000 A 
ATOM     25  C   UNL     1      -2.048  12.964  21.104  0.00  0.00    +0.000 A 
ATOM     26  C   UNL     1      -1.823  12.801  22.470  0.00  0.00    +0.000 A 
ATOM     27  C   UNL     1      -1.133  11.682  22.935  0.00  0.00    +0.000 A 
ATOM     28  C   UNL     1      -0.640  10.737  22.032  0.00  0.00    +0.000 A 
ENDBRANCH  21  23
ENDBRANCH   4  20
TORSDOF 5
ENDMDL
