MODEL 1
REMARK VINA RESULT:      -8.0      0.000      0.000
REMARK  Name = 
REMARK  10 active torsions:
REMARK  status: ('A' for Active; 'I' for Inactive)
REMARK    1  A    between atoms: C_1  and  N_2
REMARK    2  A    between atoms: N_2  and  C_3
REMARK    3  A    between atoms: N_2  and  C_14
REMARK    4  A    between atoms: C_3  and  C_4
REMARK    5  A    between atoms: C_14  and  C_15
REMARK    6  A    between atoms: C_15  and  O_16
REMARK    7  A    between atoms: C_15  and  C_17
REMARK    8  A    between atoms: C_17  and  O_18
REMARK    9  A    between atoms: O_18  and  C_19
REMARK   10  A    between atoms: C_22  and  N_23
REMARK                            x       y       z     vdW  Elec       q    Type
REMARK                         _______ _______ _______ _____ _____    ______ ____
ROOT
ATOM      1  C   UNL     1       6.112   6.624  17.272  0.00  0.00    +0.000 C 
ENDROOT
BRANCH   1   2
ATOM      2  O   UNL     1       6.923   7.780  17.015  0.00  0.00    +0.000 OA
ATOM      3  H   UNL     1       7.818   7.449  16.818  0.00  0.00    +0.000 HD
ENDBRANCH   1   2
BRANCH   1   4
ATOM      4  C   UNL     1       6.489   5.504  16.251  0.00  0.00    +0.000 C 
BRANCH   4   6
ATOM      5  C   UNL     1       5.782   4.326  14.275  0.00  0.00    +0.000 C 
ATOM      6  N   UNL     1       5.399   4.667  15.659  0.00  0.00    +0.000 NA
BRANCH   6   7
ATOM      7  C   UNL     1       5.183   3.415  16.411  0.00  0.00    +0.000 C 
BRANCH   7   8
ATOM      8  C   UNL     1       3.985   3.318  17.324  0.00  0.00    +0.000 A 
ATOM      9  C   UNL     1       2.739   3.734  16.868  0.00  0.00    +0.000 A 
ATOM     10  C   UNL     1       1.689   3.786  17.773  0.00  0.00    +0.000 A 
ATOM     11  C   UNL     1       1.908   3.407  19.099  0.00  0.00    +0.000 A 
ATOM     12  C   UNL     1       0.872   3.398  20.045  0.00  0.00    +0.000 A 
ATOM     13  C   UNL     1       1.122   2.999  21.354  0.00  0.00    +0.000 A 
ATOM     14  C   UNL     1       2.411   2.639  21.733  0.00  0.00    +0.000 A 
ATOM     15  C   UNL     1       3.443   2.661  20.794  0.00  0.00    +0.000 A 
ATOM     16  C   UNL     1       3.213   3.017  19.477  0.00  0.00    +0.000 A 
ATOM     17  N   UNL     1       4.233   2.980  18.609  0.00  0.00    +0.000 NA
ENDBRANCH   7   8
ENDBRANCH   6   7
ENDBRANCH   4   6
ENDBRANCH   1   4
BRANCH   1  18
ATOM     18  C   UNL     1       4.632   7.005  17.222  0.00  0.00    +0.000 C 
BRANCH  18  19
ATOM     19  O   UNL     1       3.847   6.465  18.278  0.00  0.00    +0.000 OA
BRANCH  19  20
ATOM     20  C   UNL     1       2.862   7.326  18.711  0.00  0.00    +0.000 A 
ATOM     21  C   UNL     1       2.509   8.291  17.779  0.00  0.00    +0.000 A 
ATOM     22  C   UNL     1       1.582   9.281  18.104  0.00  0.00    +0.000 A 
ATOM     23  C   UNL     1       0.976   9.310  19.369  0.00  0.00    +0.000 A 
ATOM     24  C   UNL     1       1.285   8.304  20.292  0.00  0.00    +0.000 A 
ATOM     25  C   UNL     1       2.220   7.318  19.959  0.00  0.00    +0.000 A 
BRANCH  23  26
ATOM     26  N   UNL     1       0.076  10.351  19.711  0.00  0.00    +0.000 N 
ATOM     27  C   UNL     1      -0.811  10.994  18.864  0.00  0.00    +0.000 A 
ATOM     28  C   UNL     1      -1.451  11.932  19.633  0.00  0.00    +0.000 A 
ATOM     29  N   UNL     1      -1.004  11.904  20.920  0.00  0.00    +0.000 NA
ATOM     30  C   UNL     1      -0.092  10.955  20.941  0.00  0.00    +0.000 A 
ENDBRANCH  23  26
ENDBRANCH  19  20
ENDBRANCH  18  19
ENDBRANCH   1  18
TORSDOF 9
ENDMDL
MODEL 2
REMARK VINA RESULT:      -7.9      1.007      1.474
REMARK  Name = 
REMARK  10 active torsions:
REMARK  status: ('A' for Active; 'I' for Inactive)
REMARK    1  A    between atoms: C_1  and  N_2
REMARK    2  A    between atoms: N_2  and  C_3
REMARK    3  A    between atoms: N_2  and  C_14
REMARK    4  A    between atoms: C_3  and  C_4
REMARK    5  A    between atoms: C_14  and  C_15
REMARK    6  A    between atoms: C_15  and  O_16
REMARK    7  A    between atoms: C_15  and  C_17
REMARK    8  A    between atoms: C_17  and  O_18
REMARK    9  A    between atoms: O_18  and  C_19
REMARK   10  A    between atoms: C_22  and  N_23
REMARK                            x       y       z     vdW  Elec       q    Type
REMARK                         _______ _______ _______ _____ _____    ______ ____
ROOT
ATOM      1  C   UNL     1       5.378   6.267  17.153  0.00  0.00    +0.000 C 
ENDROOT
BRANCH   1   2
ATOM      2  O   UNL     1       6.658   6.723  17.613  0.00  0.00    +0.000 OA
ATOM      3  H   UNL     1       6.973   7.369  16.955  0.00  0.00    +0.000 HD
ENDBRANCH   1   2
BRANCH   1   4
ATOM      4  C   UNL     1       5.505   5.819  15.664  0.00  0.00    +0.000 C 
BRANCH   4   6
ATOM      5  C   UNL     1       6.099   3.959  14.257  0.00  0.00    +0.000 C 
ATOM      6  N   UNL     1       5.156   4.411  15.298  0.00  0.00    +0.000 NA
BRANCH   6   7
ATOM      7  C   UNL     1       5.249   3.493  16.450  0.00  0.00    +0.000 C 
BRANCH   7   8
ATOM      8  C   UNL     1       4.042   3.327  17.341  0.00  0.00    +0.000 A 
ATOM      9  C   UNL     1       2.779   3.637  16.851  0.00  0.00    +0.000 A 
ATOM     10  C   UNL     1       1.708   3.630  17.733  0.00  0.00    +0.000 A 
ATOM     11  C   UNL     1       1.926   3.299  19.073  0.00  0.00    +0.000 A 
ATOM     12  C   UNL     1       0.874   3.233  19.997  0.00  0.00    +0.000 A 
ATOM     13  C   UNL     1       1.125   2.884  21.320  0.00  0.00    +0.000 A 
ATOM     14  C   UNL     1       2.429   2.631  21.733  0.00  0.00    +0.000 A 
ATOM     15  C   UNL     1       3.476   2.709  20.815  0.00  0.00    +0.000 A 
ATOM     16  C   UNL     1       3.248   3.017  19.485  0.00  0.00    +0.000 A 
ATOM     17  N   UNL     1       4.287   3.037  18.638  0.00  0.00    +0.000 NA
ENDBRANCH   7   8
ENDBRANCH   6   7
ENDBRANCH   4   6
ENDBRANCH   1   4
BRANCH   1  18
ATOM     18  C   UNL     1       4.330   7.362  17.362  0.00  0.00    +0.000 C 
BRANCH  18  19
ATOM     19  O   UNL     1       3.035   6.883  17.702  0.00  0.00    +0.000 OA
BRANCH  19  20
ATOM     20  C   UNL     1       2.360   7.724  18.560  0.00  0.00    +0.000 A 
ATOM     21  C   UNL     1       2.255   7.239  19.856  0.00  0.00    +0.000 A 
ATOM     22  C   UNL     1       1.529   7.943  20.817  0.00  0.00    +0.000 A 
ATOM     23  C   UNL     1       0.910   9.160  20.499  0.00  0.00    +0.000 A 
ATOM     24  C   UNL     1       1.062   9.682  19.210  0.00  0.00    +0.000 A 
ATOM     25  C   UNL     1       1.786   8.967  18.251  0.00  0.00    +0.000 A 
BRANCH  23  26
ATOM     26  N   UNL     1       0.129   9.844  21.466  0.00  0.00    +0.000 N 
ATOM     27  C   UNL     1      -0.597  11.007  21.275  0.00  0.00    +0.000 A 
ATOM     28  C   UNL     1      -1.168  11.297  22.489  0.00  0.00    +0.000 A 
ATOM     29  N   UNL     1      -0.830  10.369  23.427  0.00  0.00    +0.000 NA
ATOM     30  C   UNL     1      -0.054   9.514  22.794  0.00  0.00    +0.000 A 
ENDBRANCH  23  26
ENDBRANCH  19  20
ENDBRANCH  18  19
ENDBRANCH   1  18
TORSDOF 9
ENDMDL
MODEL 3
REMARK VINA RESULT:      -7.9      1.886      4.376
REMARK  Name = 
REMARK  10 active torsions:
REMARK  status: ('A' for Active; 'I' for Inactive)
REMARK    1  A    between atoms: C_1  and  N_2
REMARK    2  A    between atoms: N_2  and  C_3
REMARK    3  A    between atoms: N_2  and  C_14
REMARK    4  A    between atoms: C_3  and  C_4
REMARK    5  A    between atoms: C_14  and  C_15
REMARK    6  A    between atoms: C_15  and  O_16
REMARK    7  A    between atoms: C_15  and  C_17
REMARK    8  A    between atoms: C_17  and  O_18
REMARK    9  A    between atoms: O_18  and  C_19
REMARK   10  A    between atoms: C_22  and  N_23
REMARK                            x       y       z     vdW  Elec       q    Type
REMARK                         _______ _______ _______ _____ _____    ______ ____
ROOT
ATOM      1  C   UNL     1       2.047   3.647  20.875  0.00  0.00    +0.000 C 
ENDROOT
BRANCH   1   2
ATOM      2  O   UNL     1       1.812   3.039  22.153  0.00  0.00    +0.000 OA
ATOM      3  H   UNL     1       1.087   2.400  22.025  0.00  0.00    +0.000 HD
ENDBRANCH   1   2
BRANCH   1   4
ATOM      4  C   UNL     1       3.282   2.965  20.209  0.00  0.00    +0.000 C 
BRANCH   4   6
ATOM      5  C   UNL     1       1.744   2.403  18.444  0.00  0.00    +0.000 C 
ATOM      6  N   UNL     1       3.071   2.092  19.012  0.00  0.00    +0.000 NA
BRANCH   6   7
ATOM      7  C   UNL     1       4.092   2.311  17.970  0.00  0.00    +0.000 C 
BRANCH   7   8
ATOM      8  C   UNL     1       4.650   3.702  17.787  0.00  0.00    +0.000 A 
ATOM      9  C   UNL     1       4.108   4.538  16.818  0.00  0.00    +0.000 A 
ATOM     10  C   UNL     1       4.738   5.746  16.560  0.00  0.00    +0.000 A 
ATOM     11  C   UNL     1       5.879   6.093  17.287  0.00  0.00    +0.000 A 
ATOM     12  C   UNL     1       6.530   7.321  17.098  0.00  0.00    +0.000 A 
ATOM     13  C   UNL     1       7.655   7.640  17.852  0.00  0.00    +0.000 A 
ATOM     14  C   UNL     1       8.155   6.724  18.771  0.00  0.00    +0.000 A 
ATOM     15  C   UNL     1       7.514   5.497  18.948  0.00  0.00    +0.000 A 
ATOM     16  C   UNL     1       6.371   5.172  18.240  0.00  0.00    +0.000 A 
ATOM     17  N   UNL     1       5.773   3.997  18.480  0.00  0.00    +0.000 NA
ENDBRANCH   7   8
ENDBRANCH   6   7
ENDBRANCH   4   6
ENDBRANCH   1   4
BRANCH   1  18
ATOM     18  C   UNL     1       2.215   5.158  21.041  0.00  0.00    +0.000 C 
BRANCH  18  19
ATOM     19  O   UNL     1       2.694   5.830  19.882  0.00  0.00    +0.000 OA
BRANCH  19  20
ATOM     20  C   UNL     1       2.148   7.086  19.725  0.00  0.00    +0.000 A 
ATOM     21  C   UNL     1       2.337   7.628  18.462  0.00  0.00    +0.000 A 
ATOM     22  C   UNL     1       1.910   8.926  18.180  0.00  0.00    +0.000 A 
ATOM     23  C   UNL     1       1.265   9.698  19.157  0.00  0.00    +0.000 A 
ATOM     24  C   UNL     1       1.020   9.134  20.414  0.00  0.00    +0.000 A 
ATOM     25  C   UNL     1       1.457   7.834  20.691  0.00  0.00    +0.000 A 
BRANCH  23  26
ATOM     26  N   UNL     1       0.882  11.035  18.879  0.00  0.00    +0.000 N 
ATOM     27  C   UNL     1      -0.410  11.524  18.775  0.00  0.00    +0.000 A 
ATOM     28  C   UNL     1      -0.284  12.857  18.479  0.00  0.00    +0.000 A 
ATOM     29  N   UNL     1       1.026  13.222  18.393  0.00  0.00    +0.000 NA
ATOM     30  C   UNL     1       1.702  12.117  18.633  0.00  0.00    +0.000 A 
ENDBRANCH  23  26
ENDBRANCH  19  20
ENDBRANCH  18  19
ENDBRANCH   1  18
TORSDOF 9
ENDMDL
MODEL 4
REMARK VINA RESULT:      -7.9      1.789      4.361
REMARK  Name = 
REMARK  10 active torsions:
REMARK  status: ('A' for Active; 'I' for Inactive)
REMARK    1  A    between atoms: C_1  and  N_2
REMARK    2  A    between atoms: N_2  and  C_3
REMARK    3  A    between atoms: N_2  and  C_14
REMARK    4  A    between atoms: C_3  and  C_4
REMARK    5  A    between atoms: C_14  and  C_15
REMARK    6  A    between atoms: C_15  and  O_16
REMARK    7  A    between atoms: C_15  and  C_17
REMARK    8  A    between atoms: C_17  and  O_18
REMARK    9  A    between atoms: O_18  and  C_19
REMARK   10  A    between atoms: C_22  and  N_23
REMARK                            x       y       z     vdW  Elec       q    Type
REMARK                         _______ _______ _______ _____ _____    ______ ____
ROOT
ATOM      1  C   UNL     1       1.756   4.049  20.195  0.00  0.00    +0.000 C 
ENDROOT
BRANCH   1   2
ATOM      2  O   UNL     1       0.705   3.489  20.996  0.00  0.00    +0.000 OA
ATOM      3  H   UNL     1       0.651   4.037  21.800  0.00  0.00    +0.000 HD
ENDBRANCH   1   2
BRANCH   1   4
ATOM      4  C   UNL     1       2.955   3.051  20.162  0.00  0.00    +0.000 C 
BRANCH   4   6
ATOM      5  C   UNL     1       1.728   2.062  18.342  0.00  0.00    +0.000 C 
ATOM      6  N   UNL     1       2.996   2.001  19.096  0.00  0.00    +0.000 NA
BRANCH   6   7
ATOM      7  C   UNL     1       4.115   2.201  18.155  0.00  0.00    +0.000 C 
BRANCH   7   8
ATOM      8  C   UNL     1       4.632   3.603  17.935  0.00  0.00    +0.000 A 
ATOM      9  C   UNL     1       4.020   4.420  16.992  0.00  0.00    +0.000 A 
ATOM     10  C   UNL     1       4.610   5.640  16.694  0.00  0.00    +0.000 A 
ATOM     11  C   UNL     1       5.781   6.015  17.357  0.00  0.00    +0.000 A 
ATOM     12  C   UNL     1       6.394   7.256  17.127  0.00  0.00    +0.000 A 
ATOM     13  C   UNL     1       7.551   7.603  17.817  0.00  0.00    +0.000 A 
ATOM     14  C   UNL     1       8.118   6.704  18.713  0.00  0.00    +0.000 A 
ATOM     15  C   UNL     1       7.514   5.465  18.932  0.00  0.00    +0.000 A 
ATOM     16  C   UNL     1       6.342   5.111  18.287  0.00  0.00    +0.000 A 
ATOM     17  N   UNL     1       5.783   3.926  18.566  0.00  0.00    +0.000 NA
ENDBRANCH   7   8
ENDBRANCH   6   7
ENDBRANCH   4   6
ENDBRANCH   1   4
BRANCH   1  18
ATOM     18  C   UNL     1       2.140   5.429  20.732  0.00  0.00    +0.000 C 
BRANCH  18  19
ATOM     19  O   UNL     1       2.939   6.206  19.848  0.00  0.00    +0.000 OA
BRANCH  19  20
ATOM     20  C   UNL     1       2.327   7.379  19.462  0.00  0.00    +0.000 A 
ATOM     21  C   UNL     1       1.625   8.009  20.480  0.00  0.00    +0.000 A 
ATOM     22  C   UNL     1       0.889   9.165  20.219  0.00  0.00    +0.000 A 
ATOM     23  C   UNL     1       0.860   9.722  18.933  0.00  0.00    +0.000 A 
ATOM     24  C   UNL     1       1.614   9.124  17.917  0.00  0.00    +0.000 A 
ATOM     25  C   UNL     1       2.344   7.962  18.186  0.00  0.00    +0.000 A 
BRANCH  23  26
ATOM     26  N   UNL     1       0.066  10.867  18.663  0.00  0.00    +0.000 N 
ATOM     27  C   UNL     1      -1.229  10.882  18.172  0.00  0.00    +0.000 A 
ATOM     28  C   UNL     1      -1.571  12.206  18.057  0.00  0.00    +0.000 A 
ATOM     29  N   UNL     1      -0.549  13.016  18.453  0.00  0.00    +0.000 NA
ATOM     30  C   UNL     1       0.417  12.194  18.807  0.00  0.00    +0.000 A 
ENDBRANCH  23  26
ENDBRANCH  19  20
ENDBRANCH  18  19
ENDBRANCH   1  18
TORSDOF 9
ENDMDL
MODEL 5
REMARK VINA RESULT:      -7.5      1.851      4.595
REMARK  Name = 
REMARK  10 active torsions:
REMARK  status: ('A' for Active; 'I' for Inactive)
REMARK    1  A    between atoms: C_1  and  N_2
REMARK    2  A    between atoms: N_2  and  C_3
REMARK    3  A    between atoms: N_2  and  C_14
REMARK    4  A    between atoms: C_3  and  C_4
REMARK    5  A    between atoms: C_14  and  C_15
REMARK    6  A    between atoms: C_15  and  O_16
REMARK    7  A    between atoms: C_15  and  C_17
REMARK    8  A    between atoms: C_17  and  O_18
REMARK    9  A    between atoms: O_18  and  C_19
REMARK   10  A    between atoms: C_22  and  N_23
REMARK                            x       y       z     vdW  Elec       q    Type
REMARK                         _______ _______ _______ _____ _____    ______ ____
ROOT
ATOM      1  C   UNL     1       1.818   3.817  20.103  0.00  0.00    +0.000 C 
ENDROOT
BRANCH   1   2
ATOM      2  O   UNL     1       0.437   3.471  20.282  0.00  0.00    +0.000 OA
ATOM      3  H   UNL     1      -0.015   4.284  20.573  0.00  0.00    +0.000 HD
ENDBRANCH   1   2
BRANCH   1   4
ATOM      4  C   UNL     1       2.706   2.648  20.634  0.00  0.00    +0.000 C 
BRANCH   4   6
ATOM      5  C   UNL     1       4.696   1.293  20.647  0.00  0.00    +0.000 C 
ATOM      6  N   UNL     1       4.155   2.612  20.262  0.00  0.00    +0.000 NA
BRANCH   6   7
ATOM      7  C   UNL     1       4.367   2.805  18.815  0.00  0.00    +0.000 C 
BRANCH   7   8
ATOM      8  C   UNL     1       4.902   4.133  18.333  0.00  0.00    +0.000 A 
ATOM      9  C   UNL     1       4.350   4.726  17.204  0.00  0.00    +0.000 A 
ATOM     10  C   UNL     1       4.961   5.860  16.689  0.00  0.00    +0.000 A 
ATOM     11  C   UNL     1       6.091   6.379  17.326  0.00  0.00    +0.000 A 
ATOM     12  C   UNL     1       6.721   7.548  16.875  0.00  0.00    +0.000 A 
ATOM     13  C   UNL     1       7.836   8.044  17.543  0.00  0.00    +0.000 A 
ATOM     14  C   UNL     1       8.346   7.361  18.641  0.00  0.00    +0.000 A 
ATOM     15  C   UNL     1       7.725   6.191  19.081  0.00  0.00    +0.000 A 
ATOM     16  C   UNL     1       6.593   5.697  18.458  0.00  0.00    +0.000 A 
ATOM     17  N   UNL     1       6.014   4.592  18.948  0.00  0.00    +0.000 NA
ENDBRANCH   7   8
ENDBRANCH   6   7
ENDBRANCH   4   6
ENDBRANCH   1   4
BRANCH   1  18
ATOM     18  C   UNL     1       2.113   5.151  20.790  0.00  0.00    +0.000 C 
BRANCH  18  19
ATOM     19  O   UNL     1       2.814   6.090  19.982  0.00  0.00    +0.000 OA
BRANCH  19  20
ATOM     20  C   UNL     1       2.141   7.284  19.839  0.00  0.00    +0.000 A 
ATOM     21  C   UNL     1       2.340   7.899  18.612  0.00  0.00    +0.000 A 
ATOM     22  C   UNL     1       1.787   9.153  18.352  0.00  0.00    +0.000 A 
ATOM     23  C   UNL     1       1.006   9.806  19.316  0.00  0.00    +0.000 A 
ATOM     24  C   UNL     1       0.754   9.164  20.534  0.00  0.00    +0.000 A 
ATOM     25  C   UNL     1       1.317   7.909  20.788  0.00  0.00    +0.000 A 
BRANCH  23  26
ATOM     26  N   UNL     1       0.492  11.105  19.066  0.00  0.00    +0.000 N 
ATOM     27  C   UNL     1       1.222  12.271  18.910  0.00  0.00    +0.000 A 
ATOM     28  C   UNL     1       0.301  13.267  18.708  0.00  0.00    +0.000 A 
ATOM     29  N   UNL     1      -0.970  12.775  18.731  0.00  0.00    +0.000 NA
ATOM     30  C   UNL     1      -0.830  11.484  18.950  0.00  0.00    +0.000 A 
ENDBRANCH  23  26
ENDBRANCH  19  20
ENDBRANCH  18  19
ENDBRANCH   1  18
TORSDOF 9
ENDMDL
MODEL 6
REMARK VINA RESULT:      -7.4      1.252      2.003
REMARK  Name = 
REMARK  10 active torsions:
REMARK  status: ('A' for Active; 'I' for Inactive)
REMARK    1  A    between atoms: C_1  and  N_2
REMARK    2  A    between atoms: N_2  and  C_3
REMARK    3  A    between atoms: N_2  and  C_14
REMARK    4  A    between atoms: C_3  and  C_4
REMARK    5  A    between atoms: C_14  and  C_15
REMARK    6  A    between atoms: C_15  and  O_16
REMARK    7  A    between atoms: C_15  and  C_17
REMARK    8  A    between atoms: C_17  and  O_18
REMARK    9  A    between atoms: O_18  and  C_19
REMARK   10  A    between atoms: C_22  and  N_23
REMARK                            x       y       z     vdW  Elec       q    Type
REMARK                         _______ _______ _______ _____ _____    ______ ____
ROOT
ATOM      1  C   UNL     1       5.404   6.504  16.636  0.00  0.00    +0.000 C 
ENDROOT
BRANCH   1   2
ATOM      2  O   UNL     1       6.615   7.237  16.871  0.00  0.00    +0.000 OA
ATOM      3  H   UNL     1       6.570   7.553  17.792  0.00  0.00    +0.000 HD
ENDBRANCH   1   2
BRANCH   1   4
ATOM      4  C   UNL     1       5.454   5.890  15.202  0.00  0.00    +0.000 C 
BRANCH   4   6
ATOM      5  C   UNL     1       6.035   3.964  13.881  0.00  0.00    +0.000 C 
ATOM      6  N   UNL     1       5.235   4.420  15.034  0.00  0.00    +0.000 NA
BRANCH   6   7
ATOM      7  C   UNL     1       5.646   3.653  16.226  0.00  0.00    +0.000 C 
BRANCH   7   8
ATOM      8  C   UNL     1       4.796   3.741  17.471  0.00  0.00    +0.000 A 
ATOM      9  C   UNL     1       5.399   3.987  18.698  0.00  0.00    +0.000 A 
ATOM     10  C   UNL     1       4.622   3.904  19.844  0.00  0.00    +0.000 A 
ATOM     11  C   UNL     1       3.264   3.595  19.731  0.00  0.00    +0.000 A 
ATOM     12  C   UNL     1       2.423   3.542  20.852  0.00  0.00    +0.000 A 
ATOM     13  C   UNL     1       1.072   3.247  20.700  0.00  0.00    +0.000 A 
ATOM     14  C   UNL     1       0.562   2.971  19.436  0.00  0.00    +0.000 A 
ATOM     15  C   UNL     1       1.403   3.012  18.323  0.00  0.00    +0.000 A 
ATOM     16  C   UNL     1       2.742   3.341  18.442  0.00  0.00    +0.000 A 
ATOM     17  N   UNL     1       3.493   3.405  17.335  0.00  0.00    +0.000 NA
ENDBRANCH   7   8
ENDBRANCH   6   7
ENDBRANCH   4   6
ENDBRANCH   1   4
BRANCH   1  18
ATOM     18  C   UNL     1       4.195   7.414  16.855  0.00  0.00    +0.000 C 
BRANCH  18  19
ATOM     19  O   UNL     1       3.093   6.788  17.502  0.00  0.00    +0.000 OA
BRANCH  19  20
ATOM     20  C   UNL     1       2.446   7.621  18.389  0.00  0.00    +0.000 A 
ATOM     21  C   UNL     1       2.356   7.112  19.676  0.00  0.00    +0.000 A 
ATOM     22  C   UNL     1       1.658   7.807  20.664  0.00  0.00    +0.000 A 
ATOM     23  C   UNL     1       1.052   9.040  20.380  0.00  0.00    +0.000 A 
ATOM     24  C   UNL     1       1.190   9.585  19.099  0.00  0.00    +0.000 A 
ATOM     25  C   UNL     1       1.887   8.878  18.114  0.00  0.00    +0.000 A 
BRANCH  23  26
ATOM     26  N   UNL     1       0.298   9.715  21.374  0.00  0.00    +0.000 N 
ATOM     27  C   UNL     1      -0.374  10.918  21.232  0.00  0.00    +0.000 A 
ATOM     28  C   UNL     1      -0.936  11.181  22.456  0.00  0.00    +0.000 A 
ATOM     29  N   UNL     1      -0.644  10.198  23.354  0.00  0.00    +0.000 NA
ATOM     30  C   UNL     1       0.096   9.338  22.686  0.00  0.00    +0.000 A 
ENDBRANCH  23  26
ENDBRANCH  19  20
ENDBRANCH  18  19
ENDBRANCH   1  18
TORSDOF 9
ENDMDL
MODEL 7
REMARK VINA RESULT:      -7.3      1.243      1.595
REMARK  Name = 
REMARK  10 active torsions:
REMARK  status: ('A' for Active; 'I' for Inactive)
REMARK    1  A    between atoms: C_1  and  N_2
REMARK    2  A    between atoms: N_2  and  C_3
REMARK    3  A    between atoms: N_2  and  C_14
REMARK    4  A    between atoms: C_3  and  C_4
REMARK    5  A    between atoms: C_14  and  C_15
REMARK    6  A    between atoms: C_15  and  O_16
REMARK    7  A    between atoms: C_15  and  C_17
REMARK    8  A    between atoms: C_17  and  O_18
REMARK    9  A    between atoms: O_18  and  C_19
REMARK   10  A    between atoms: C_22  and  N_23
REMARK                            x       y       z     vdW  Elec       q    Type
REMARK                         _______ _______ _______ _____ _____    ______ ____
ROOT
ATOM      1  C   UNL     1       4.798   6.975  17.315  0.00  0.00    +0.000 C 
ENDROOT
BRANCH   1   2
ATOM      2  O   UNL     1       4.672   7.017  15.886  0.00  0.00    +0.000 OA
ATOM      3  H   UNL     1       5.579   7.003  15.530  0.00  0.00    +0.000 HD
ENDBRANCH   1   2
BRANCH   1   4
ATOM      4  C   UNL     1       5.620   5.709  17.714  0.00  0.00    +0.000 C 
BRANCH   4   6
ATOM      5  C   UNL     1       7.544   4.478  16.954  0.00  0.00    +0.000 C 
ATOM      6  N   UNL     1       6.142   4.814  16.634  0.00  0.00    +0.000 NA
BRANCH   6   7
ATOM      7  C   UNL     1       5.370   3.561  16.523  0.00  0.00    +0.000 C 
BRANCH   7   8
ATOM      8  C   UNL     1       4.137   3.394  17.377  0.00  0.00    +0.000 A 
ATOM      9  C   UNL     1       2.891   3.728  16.858  0.00  0.00    +0.000 A 
ATOM     10  C   UNL     1       1.797   3.719  17.710  0.00  0.00    +0.000 A 
ATOM     11  C   UNL     1       1.973   3.361  19.048  0.00  0.00    +0.000 A 
ATOM     12  C   UNL     1       0.895   3.292  19.942  0.00  0.00    +0.000 A 
ATOM     13  C   UNL     1       1.105   2.917  21.265  0.00  0.00    +0.000 A 
ATOM     14  C   UNL     1       2.394   2.641  21.710  0.00  0.00    +0.000 A 
ATOM     15  C   UNL     1       3.467   2.722  20.822  0.00  0.00    +0.000 A 
ATOM     16  C   UNL     1       3.280   3.056  19.492  0.00  0.00    +0.000 A 
ATOM     17  N   UNL     1       4.342   3.078  18.675  0.00  0.00    +0.000 NA
ENDBRANCH   7   8
ENDBRANCH   6   7
ENDBRANCH   4   6
ENDBRANCH   1   4
BRANCH   1  18
ATOM     18  C   UNL     1       3.412   7.017  17.961  0.00  0.00    +0.000 C 
BRANCH  18  19
ATOM     19  O   UNL     1       2.599   8.108  17.546  0.00  0.00    +0.000 OA
BRANCH  19  20
ATOM     20  C   UNL     1       1.826   8.619  18.565  0.00  0.00    +0.000 A 
ATOM     21  C   UNL     1       1.009   9.672  18.179  0.00  0.00    +0.000 A 
ATOM     22  C   UNL     1       0.228  10.343  19.120  0.00  0.00    +0.000 A 
ATOM     23  C   UNL     1       0.239   9.956  20.467  0.00  0.00    +0.000 A 
ATOM     24  C   UNL     1       1.016   8.858  20.852  0.00  0.00    +0.000 A 
ATOM     25  C   UNL     1       1.800   8.194  19.902  0.00  0.00    +0.000 A 
BRANCH  23  26
ATOM     26  N   UNL     1      -0.516  10.677  21.428  0.00  0.00    +0.000 N 
ATOM     27  C   UNL     1      -1.293  11.800  21.201  0.00  0.00    +0.000 A 
ATOM     28  C   UNL     1      -1.811  12.153  22.421  0.00  0.00    +0.000 A 
ATOM     29  N   UNL     1      -1.391  11.301  23.399  0.00  0.00    +0.000 NA
ATOM     30  C   UNL     1      -0.617  10.432  22.783  0.00  0.00    +0.000 A 
ENDBRANCH  23  26
ENDBRANCH  19  20
ENDBRANCH  18  19
ENDBRANCH   1  18
TORSDOF 9
ENDMDL
MODEL 8
REMARK VINA RESULT:      -7.3      1.899      4.620
REMARK  Name = 
REMARK  10 active torsions:
REMARK  status: ('A' for Active; 'I' for Inactive)
REMARK    1  A    between atoms: C_1  and  N_2
REMARK    2  A    between atoms: N_2  and  C_3
REMARK    3  A    between atoms: N_2  and  C_14
REMARK    4  A    between atoms: C_3  and  C_4
REMARK    5  A    between atoms: C_14  and  C_15
REMARK    6  A    between atoms: C_15  and  O_16
REMARK    7  A    between atoms: C_15  and  C_17
REMARK    8  A    between atoms: C_17  and  O_18
REMARK    9  A    between atoms: O_18  and  C_19
REMARK   10  A    between atoms: C_22  and  N_23
REMARK                            x       y       z     vdW  Elec       q    Type
REMARK                         _______ _______ _______ _____ _____    ______ ____
ROOT
ATOM      1  C   UNL     1       1.789   3.636  20.962  0.00  0.00    +0.000 C 
ENDROOT
BRANCH   1   2
ATOM      2  O   UNL     1       2.514   4.045  22.130  0.00  0.00    +0.000 OA
ATOM      3  H   UNL     1       2.555   5.019  22.101  0.00  0.00    +0.000 HD
ENDBRANCH   1   2
BRANCH   1   4
ATOM      4  C   UNL     1       2.548   2.455  20.281  0.00  0.00    +0.000 C 
BRANCH   4   6
ATOM      5  C   UNL     1       4.678   1.346  20.456  0.00  0.00    +0.000 C 
ATOM      6  N   UNL     1       4.015   2.591  20.019  0.00  0.00    +0.000 NA
BRANCH   6   7
ATOM      7  C   UNL     1       4.311   2.806  18.589  0.00  0.00    +0.000 C 
BRANCH   7   8
ATOM      8  C   UNL     1       4.889   4.133  18.163  0.00  0.00    +0.000 A 
ATOM      9  C   UNL     1       4.414   4.751  17.012  0.00  0.00    +0.000 A 
ATOM     10  C   UNL     1       5.069   5.885  16.554  0.00  0.00    +0.000 A 
ATOM     11  C   UNL     1       6.165   6.378  17.265  0.00  0.00    +0.000 A 
ATOM     12  C   UNL     1       6.836   7.546  16.872  0.00  0.00    +0.000 A 
ATOM     13  C   UNL     1       7.914   8.017  17.613  0.00  0.00    +0.000 A 
ATOM     14  C   UNL     1       8.349   7.310  18.729  0.00  0.00    +0.000 A 
ATOM     15  C   UNL     1       7.688   6.141  19.111  0.00  0.00    +0.000 A 
ATOM     16  C   UNL     1       6.589   5.673  18.414  0.00  0.00    +0.000 A 
ATOM     17  N   UNL     1       5.969   4.568  18.850  0.00  0.00    +0.000 NA
ENDBRANCH   7   8
ENDBRANCH   6   7
ENDBRANCH   4   6
ENDBRANCH   1   4
BRANCH   1  18
ATOM     18  C   UNL     1       1.585   4.832  20.030  0.00  0.00    +0.000 C 
BRANCH  18  19
ATOM     19  O   UNL     1       2.652   5.773  20.035  0.00  0.00    +0.000 OA
BRANCH  19  20
ATOM     20  C   UNL     1       2.253   7.040  19.668  0.00  0.00    +0.000 A 
ATOM     21  C   UNL     1       1.581   7.730  20.667  0.00  0.00    +0.000 A 
ATOM     22  C   UNL     1       1.047   8.994  20.416  0.00  0.00    +0.000 A 
ATOM     23  C   UNL     1       1.195   9.598  19.159  0.00  0.00    +0.000 A 
ATOM     24  C   UNL     1       1.922   8.932  18.167  0.00  0.00    +0.000 A 
ATOM     25  C   UNL     1       2.449   7.663  18.426  0.00  0.00    +0.000 A 
BRANCH  23  26
ATOM     26  N   UNL     1       0.602  10.860  18.894  0.00  0.00    +0.000 N 
ATOM     27  C   UNL     1      -0.743  11.120  18.694  0.00  0.00    +0.000 A 
ATOM     28  C   UNL     1      -0.833  12.468  18.455  0.00  0.00    +0.000 A 
ATOM     29  N   UNL     1       0.394  13.060  18.497  0.00  0.00    +0.000 NA
ATOM     30  C   UNL     1       1.234  12.080  18.757  0.00  0.00    +0.000 A 
ENDBRANCH  23  26
ENDBRANCH  19  20
ENDBRANCH  18  19
ENDBRANCH   1  18
TORSDOF 9
ENDMDL
MODEL 9
REMARK VINA RESULT:      -7.2      5.266      6.575
REMARK  Name = 
REMARK  10 active torsions:
REMARK  status: ('A' for Active; 'I' for Inactive)
REMARK    1  A    between atoms: C_1  and  N_2
REMARK    2  A    between atoms: N_2  and  C_3
REMARK    3  A    between atoms: N_2  and  C_14
REMARK    4  A    between atoms: C_3  and  C_4
REMARK    5  A    between atoms: C_14  and  C_15
REMARK    6  A    between atoms: C_15  and  O_16
REMARK    7  A    between atoms: C_15  and  C_17
REMARK    8  A    between atoms: C_17  and  O_18
REMARK    9  A    between atoms: O_18  and  C_19
REMARK   10  A    between atoms: C_22  and  N_23
REMARK                            x       y       z     vdW  Elec       q    Type
REMARK                         _______ _______ _______ _____ _____    ______ ____
ROOT
ATOM      1  C   UNL     1       7.520   6.363  18.817  0.00  0.00    +0.000 C 
ENDROOT
BRANCH   1   2
ATOM      2  O   UNL     1       8.187   5.653  19.870  0.00  0.00    +0.000 OA
ATOM      3  H   UNL     1       8.386   6.311  20.562  0.00  0.00    +0.000 HD
ENDBRANCH   1   2
BRANCH   1   4
ATOM      4  C   UNL     1       7.124   5.351  17.696  0.00  0.00    +0.000 C 
BRANCH   4   6
ATOM      5  C   UNL     1       7.243   4.893  15.336  0.00  0.00    +0.000 C 
ATOM      6  N   UNL     1       6.779   5.874  16.337  0.00  0.00    +0.000 NA
BRANCH   6   7
ATOM      7  C   UNL     1       5.327   6.072  16.165  0.00  0.00    +0.000 C 
BRANCH   7   8
ATOM      8  C   UNL     1       4.381   5.263  17.019  0.00  0.00    +0.000 A 
ATOM      9  C   UNL     1       3.947   4.020  16.574  0.00  0.00    +0.000 A 
ATOM     10  C   UNL     1       2.957   3.369  17.296  0.00  0.00    +0.000 A 
ATOM     11  C   UNL     1       2.443   3.968  18.448  0.00  0.00    +0.000 A 
ATOM     12  C   UNL     1       1.474   3.334  19.239  0.00  0.00    +0.000 A 
ATOM     13  C   UNL     1       0.995   3.954  20.389  0.00  0.00    +0.000 A 
ATOM     14  C   UNL     1       1.455   5.219  20.736  0.00  0.00    +0.000 A 
ATOM     15  C   UNL     1       2.410   5.854  19.940  0.00  0.00    +0.000 A 
ATOM     16  C   UNL     1       2.930   5.243  18.813  0.00  0.00    +0.000 A 
ATOM     17  N   UNL     1       3.875   5.882  18.109  0.00  0.00    +0.000 NA
ENDBRANCH   7   8
ENDBRANCH   6   7
ENDBRANCH   4   6
ENDBRANCH   1   4
BRANCH   1  18
ATOM     18  C   UNL     1       8.410   7.499  18.310  0.00  0.00    +0.000 C 
BRANCH  18  19
ATOM     19  O   UNL     1       7.716   8.700  17.998  0.00  0.00    +0.000 OA
BRANCH  19  20
ATOM     20  C   UNL     1       8.416   9.833  18.350  0.00  0.00    +0.000 A 
ATOM     21  C   UNL     1       8.115  10.945  17.576  0.00  0.00    +0.000 A 
ATOM     22  C   UNL     1       8.803  12.144  17.763  0.00  0.00    +0.000 A 
ATOM     23  C   UNL     1       9.796  12.254  18.747  0.00  0.00    +0.000 A 
ATOM     24  C   UNL     1      10.063  11.153  19.569  0.00  0.00    +0.000 A 
ATOM     25  C   UNL     1       9.372   9.954  19.371  0.00  0.00    +0.000 A 
BRANCH  23  26
ATOM     26  N   UNL     1      10.530  13.459  18.896  0.00  0.00    +0.000 N 
ATOM     27  C   UNL     1      11.359  13.802  19.951  0.00  0.00    +0.000 A 
ATOM     28  C   UNL     1      11.828  15.059  19.667  0.00  0.00    +0.000 A 
ATOM     29  N   UNL     1      11.330  15.516  18.484  0.00  0.00    +0.000 NA
ATOM     30  C   UNL     1      10.555  14.546  18.045  0.00  0.00    +0.000 A 
ENDBRANCH  23  26
ENDBRANCH  19  20
ENDBRANCH  18  19
ENDBRANCH   1  18
TORSDOF 9
ENDMDL
