MODEL 1
REMARK VINA RESULT:      -7.5      0.000      0.000
REMARK  Name = 
REMARK  13 active torsions:
REMARK  status: ('A' for Active; 'I' for Inactive)
REMARK    1  A    between atoms: C_1  and  C_2
REMARK    2  A    between atoms: C_2  and  C_3
REMARK    3  A    between atoms: C_3  and  N_4
REMARK    4  A    between atoms: N_4  and  C_5
REMARK    5  A    between atoms: N_4  and  C_8
REMARK    6  A    between atoms: C_5  and  C_6
REMARK    7  A    between atoms: C_6  and  C_7
REMARK    8  A    between atoms: C_13  and  C_14
REMARK    9  A    between atoms: C_14  and  N_15
REMARK   10  A    between atoms: N_15  and  C_19
REMARK   11  A    between atoms: C_16  and  C_17
REMARK   12  A    between atoms: C_22  and  O_23
REMARK   13  A    between atoms: O_23  and  C_24
REMARK                            x       y       z     vdW  Elec       q    Type
REMARK                         _______ _______ _______ _____ _____    ______ ____
ROOT
ATOM      1  C   UNL     1       1.478  10.626  19.698  0.00  0.00    +0.000 C 
ATOM      2  C   UNL     1       1.169  10.250  18.230  0.00  0.00    +0.000 C 
ATOM      3  C   UNL     1       2.044   9.068  17.755  0.00  0.00    +0.000 C 
ATOM      4  C   UNL     1       1.931   7.855  18.649  0.00  0.00    +0.000 A 
ATOM      5  C   UNL     1       2.247   6.553  18.198  0.00  0.00    +0.000 A 
ATOM      6  C   UNL     1       2.104   5.442  19.054  0.00  0.00    +0.000 A 
ATOM      7  C   UNL     1       1.638   5.654  20.360  0.00  0.00    +0.000 A 
ATOM      8  C   UNL     1       1.353   6.927  20.813  0.00  0.00    +0.000 A 
ATOM      9  C   UNL     1       1.531   8.033  19.977  0.00  0.00    +0.000 A 
ATOM     10  C   UNL     1       1.258   9.380  20.582  0.00  0.00    +0.000 C 
ENDROOT
BRANCH   1  11
ATOM     11  N   UNL     1       0.680  11.771  20.255  0.00  0.00    +0.000 NA
BRANCH  11  12
ATOM     12  C   UNL     1       0.493  12.852  19.254  0.00  0.00    +0.000 C 
BRANCH  12  14
ATOM     13  C   UNL     1       2.311  14.234  20.406  0.00  0.00    +0.000 C 
ATOM     14  C   UNL     1       1.022  14.252  19.598  0.00  0.00    +0.000 C 
ENDBRANCH  12  14
ENDBRANCH  11  12
BRANCH  11  15
ATOM     15  C   UNL     1      -0.596  11.363  20.885  0.00  0.00    +0.000 C 
BRANCH  15  16
ATOM     16  C   UNL     1      -0.806  11.845  22.324  0.00  0.00    +0.000 C 
ATOM     17  C   UNL     1      -1.235  10.709  23.239  0.00  0.00    +0.000 C 
ENDBRANCH  15  16
ENDBRANCH  11  15
ENDBRANCH   1  11
BRANCH   6  18
ATOM     18  C   UNL     1       2.488   4.025  18.692  0.00  0.00    +0.000 C 
BRANCH  18  19
ATOM     19  N   UNL     1       3.807   3.449  19.055  0.00  0.00    +0.000 N 
ATOM     20  C   UNL     1       4.102   2.556  20.097  0.00  0.00    +0.000 C 
ATOM     21  C   UNL     1       3.126   2.406  21.229  0.00  0.00    +0.000 C 
ATOM     22  O   UNL     1       5.175   1.951  20.212  0.00  0.00    +0.000 OA
BRANCH  19  23
ATOM     23  C   UNL     1       4.953   4.132  18.475  0.00  0.00    +0.000 A 
ATOM     24  C   UNL     1       5.750   4.991  19.239  0.00  0.00    +0.000 A 
ATOM     25  C   UNL     1       6.674   5.844  18.631  0.00  0.00    +0.000 A 
ATOM     26  C   UNL     1       6.855   5.840  17.249  0.00  0.00    +0.000 A 
ATOM     27  C   UNL     1       6.122   4.935  16.480  0.00  0.00    +0.000 A 
ATOM     28  C   UNL     1       5.199   4.079  17.089  0.00  0.00    +0.000 A 
BRANCH  26  29
ATOM     29  O   UNL     1       7.699   6.799  16.772  0.00  0.00    +0.000 OA
ATOM     30  C   UNL     1       7.794   8.000  17.526  0.00  0.00    +0.000 C 
ENDBRANCH  26  29
ENDBRANCH  19  23
ENDBRANCH  18  19
ENDBRANCH   6  18
TORSDOF 9
ENDMDL
MODEL 2
REMARK VINA RESULT:      -7.4      0.858      1.680
REMARK  Name = 
REMARK  13 active torsions:
REMARK  status: ('A' for Active; 'I' for Inactive)
REMARK    1  A    between atoms: C_1  and  C_2
REMARK    2  A    between atoms: C_2  and  C_3
REMARK    3  A    between atoms: C_3  and  N_4
REMARK    4  A    between atoms: N_4  and  C_5
REMARK    5  A    between atoms: N_4  and  C_8
REMARK    6  A    between atoms: C_5  and  C_6
REMARK    7  A    between atoms: C_6  and  C_7
REMARK    8  A    between atoms: C_13  and  C_14
REMARK    9  A    between atoms: C_14  and  N_15
REMARK   10  A    between atoms: N_15  and  C_19
REMARK   11  A    between atoms: C_16  and  C_17
REMARK   12  A    between atoms: C_22  and  O_23
REMARK   13  A    between atoms: O_23  and  C_24
REMARK                            x       y       z     vdW  Elec       q    Type
REMARK                         _______ _______ _______ _____ _____    ______ ____
ROOT
ATOM      1  C   UNL     1       0.692  10.564  20.834  0.00  0.00    +0.000 C 
ATOM      2  C   UNL     1       1.226   9.726  22.020  0.00  0.00    +0.000 C 
ATOM      3  C   UNL     1       0.917   8.222  21.832  0.00  0.00    +0.000 C 
ATOM      4  C   UNL     1       1.431   7.675  20.520  0.00  0.00    +0.000 A 
ATOM      5  C   UNL     1       1.680   6.298  20.324  0.00  0.00    +0.000 A 
ATOM      6  C   UNL     1       2.185   5.829  19.094  0.00  0.00    +0.000 A 
ATOM      7  C   UNL     1       2.439   6.755  18.071  0.00  0.00    +0.000 A 
ATOM      8  C   UNL     1       2.171   8.099  18.251  0.00  0.00    +0.000 A 
ATOM      9  C   UNL     1       1.635   8.560  19.456  0.00  0.00    +0.000 A 
ATOM     10  C   UNL     1       1.318  10.026  19.531  0.00  0.00    +0.000 C 
ENDROOT
BRANCH   1  11
ATOM     11  N   UNL     1       0.939  12.043  20.925  0.00  0.00    +0.000 NA
BRANCH  11  12
ATOM     12  C   UNL     1       1.423  12.602  19.637  0.00  0.00    +0.000 C 
BRANCH  12  14
ATOM     13  C   UNL     1       3.114  14.316  20.497  0.00  0.00    +0.000 C 
ATOM     14  C   UNL     1       1.899  14.062  19.619  0.00  0.00    +0.000 C 
ENDBRANCH  12  14
ENDBRANCH  11  12
BRANCH  11  15
ATOM     15  C   UNL     1      -0.201  12.809  21.477  0.00  0.00    +0.000 C 
BRANCH  15  16
ATOM     16  C   UNL     1      -1.576  12.152  21.319  0.00  0.00    +0.000 C 
ATOM     17  C   UNL     1      -2.345  12.738  20.145  0.00  0.00    +0.000 C 
ENDBRANCH  15  16
ENDBRANCH  11  15
ENDBRANCH   1  11
BRANCH   6  18
ATOM     18  C   UNL     1       2.412   4.371  18.759  0.00  0.00    +0.000 C 
BRANCH  18  19
ATOM     19  N   UNL     1       3.691   3.682  19.066  0.00  0.00    +0.000 N 
ATOM     20  C   UNL     1       3.938   2.723  20.060  0.00  0.00    +0.000 C 
ATOM     21  C   UNL     1       2.977   2.595  21.207  0.00  0.00    +0.000 C 
ATOM     22  O   UNL     1       4.964   2.036  20.123  0.00  0.00    +0.000 OA
BRANCH  19  23
ATOM     23  C   UNL     1       4.873   4.303  18.489  0.00  0.00    +0.000 A 
ATOM     24  C   UNL     1       5.710   5.122  19.254  0.00  0.00    +0.000 A 
ATOM     25  C   UNL     1       6.680   5.925  18.649  0.00  0.00    +0.000 A 
ATOM     26  C   UNL     1       6.867   5.907  17.268  0.00  0.00    +0.000 A 
ATOM     27  C   UNL     1       6.092   5.040  16.498  0.00  0.00    +0.000 A 
ATOM     28  C   UNL     1       5.123   4.234  17.104  0.00  0.00    +0.000 A 
BRANCH  26  29
ATOM     29  O   UNL     1       7.762   6.820  16.792  0.00  0.00    +0.000 OA
ATOM     30  C   UNL     1       7.899   8.026  17.532  0.00  0.00    +0.000 C 
ENDBRANCH  26  29
ENDBRANCH  19  23
ENDBRANCH  18  19
ENDBRANCH   6  18
TORSDOF 9
ENDMDL
MODEL 3
REMARK VINA RESULT:      -7.2      3.898      9.184
REMARK  Name = 
REMARK  13 active torsions:
REMARK  status: ('A' for Active; 'I' for Inactive)
REMARK    1  A    between atoms: C_1  and  C_2
REMARK    2  A    between atoms: C_2  and  C_3
REMARK    3  A    between atoms: C_3  and  N_4
REMARK    4  A    between atoms: N_4  and  C_5
REMARK    5  A    between atoms: N_4  and  C_8
REMARK    6  A    between atoms: C_5  and  C_6
REMARK    7  A    between atoms: C_6  and  C_7
REMARK    8  A    between atoms: C_13  and  C_14
REMARK    9  A    between atoms: C_14  and  N_15
REMARK   10  A    between atoms: N_15  and  C_19
REMARK   11  A    between atoms: C_16  and  C_17
REMARK   12  A    between atoms: C_22  and  O_23
REMARK   13  A    between atoms: O_23  and  C_24
REMARK                            x       y       z     vdW  Elec       q    Type
REMARK                         _______ _______ _______ _____ _____    ______ ____
ROOT
ATOM      1  C   UNL     1       3.411   5.511  18.037  0.00  0.00    +0.000 C 
ATOM      2  C   UNL     1       3.919   6.854  17.463  0.00  0.00    +0.000 C 
ATOM      3  C   UNL     1       2.785   7.903  17.392  0.00  0.00    +0.000 C 
ATOM      4  C   UNL     1       2.099   8.119  18.720  0.00  0.00    +0.000 A 
ATOM      5  C   UNL     1       1.383   9.301  19.016  0.00  0.00    +0.000 A 
ATOM      6  C   UNL     1       0.778   9.477  20.277  0.00  0.00    +0.000 A 
ATOM      7  C   UNL     1       0.905   8.459  21.234  0.00  0.00    +0.000 A 
ATOM      8  C   UNL     1       1.581   7.290  20.939  0.00  0.00    +0.000 A 
ATOM      9  C   UNL     1       2.148   7.099  19.676  0.00  0.00    +0.000 A 
ATOM     10  C   UNL     1       2.804   5.771  19.432  0.00  0.00    +0.000 C 
ENDROOT
BRANCH   1  11
ATOM     11  N   UNL     1       4.440   4.422  18.143  0.00  0.00    +0.000 NA
BRANCH  11  12
ATOM     12  C   UNL     1       5.821   4.955  18.030  0.00  0.00    +0.000 C 
BRANCH  12  14
ATOM     13  C   UNL     1       7.925   5.951  19.088  0.00  0.00    +0.000 C 
ATOM     14  C   UNL     1       6.552   5.342  19.324  0.00  0.00    +0.000 C 
ENDBRANCH  12  14
ENDBRANCH  11  12
BRANCH  11  15
ATOM     15  C   UNL     1       4.270   3.548  19.325  0.00  0.00    +0.000 C 
BRANCH  15  16
ATOM     16  C   UNL     1       3.694   2.157  19.042  0.00  0.00    +0.000 C 
ATOM     17  C   UNL     1       2.182   2.134  19.196  0.00  0.00    +0.000 C 
ENDBRANCH  15  16
ENDBRANCH  11  15
ENDBRANCH   1  11
BRANCH   6  18
ATOM     18  C   UNL     1      -0.071  10.668  20.663  0.00  0.00    +0.000 C 
BRANCH  18  19
ATOM     19  N   UNL     1      -0.323  11.792  19.727  0.00  0.00    +0.000 N 
ATOM     20  C   UNL     1       0.391  12.994  19.610  0.00  0.00    +0.000 C 
ATOM     21  C   UNL     1       1.274  13.433  20.742  0.00  0.00    +0.000 C 
ATOM     22  O   UNL     1       0.262  13.790  18.672  0.00  0.00    +0.000 OA
BRANCH  19  23
ATOM     23  C   UNL     1      -1.635  11.781  19.096  0.00  0.00    +0.000 A 
ATOM     24  C   UNL     1      -2.741  12.375  19.710  0.00  0.00    +0.000 A 
ATOM     25  C   UNL     1      -4.036  12.137  19.244  0.00  0.00    +0.000 A 
ATOM     26  C   UNL     1      -4.262  11.327  18.133  0.00  0.00    +0.000 A 
ATOM     27  C   UNL     1      -3.164  10.786  17.463  0.00  0.00    +0.000 A 
ATOM     28  C   UNL     1      -1.867  11.028  17.928  0.00  0.00    +0.000 A 
BRANCH  26  29
ATOM     29  O   UNL     1      -5.574  11.079  17.852  0.00  0.00    +0.000 OA
ATOM     30  C   UNL     1      -6.379  12.203  17.521  0.00  0.00    +0.000 C 
ENDBRANCH  26  29
ENDBRANCH  19  23
ENDBRANCH  18  19
ENDBRANCH   6  18
TORSDOF 9
ENDMDL
MODEL 4
REMARK VINA RESULT:      -7.2      1.893      3.130
REMARK  Name = 
REMARK  13 active torsions:
REMARK  status: ('A' for Active; 'I' for Inactive)
REMARK    1  A    between atoms: C_1  and  C_2
REMARK    2  A    between atoms: C_2  and  C_3
REMARK    3  A    between atoms: C_3  and  N_4
REMARK    4  A    between atoms: N_4  and  C_5
REMARK    5  A    between atoms: N_4  and  C_8
REMARK    6  A    between atoms: C_5  and  C_6
REMARK    7  A    between atoms: C_6  and  C_7
REMARK    8  A    between atoms: C_13  and  C_14
REMARK    9  A    between atoms: C_14  and  N_15
REMARK   10  A    between atoms: N_15  and  C_19
REMARK   11  A    between atoms: C_16  and  C_17
REMARK   12  A    between atoms: C_22  and  O_23
REMARK   13  A    between atoms: O_23  and  C_24
REMARK                            x       y       z     vdW  Elec       q    Type
REMARK                         _______ _______ _______ _____ _____    ______ ____
ROOT
ATOM      1  C   UNL     1      -0.445  10.574  19.459  0.00  0.00    +0.000 C 
ATOM      2  C   UNL     1       0.195  10.419  20.859  0.00  0.00    +0.000 C 
ATOM      3  C   UNL     1       0.514   8.939  21.171  0.00  0.00    +0.000 C 
ATOM      4  C   UNL     1       1.377   8.286  20.117  0.00  0.00    +0.000 A 
ATOM      5  C   UNL     1       2.159   7.139  20.385  0.00  0.00    +0.000 A 
ATOM      6  C   UNL     1       2.973   6.575  19.382  0.00  0.00    +0.000 A 
ATOM      7  C   UNL     1       2.995   7.176  18.114  0.00  0.00    +0.000 A 
ATOM      8  C   UNL     1       2.212   8.281  17.840  0.00  0.00    +0.000 A 
ATOM      9  C   UNL     1       1.376   8.818  18.823  0.00  0.00    +0.000 A 
ATOM     10  C   UNL     1       0.516   9.978  18.410  0.00  0.00    +0.000 C 
ENDROOT
BRANCH   1  11
ATOM     11  N   UNL     1      -0.797  11.980  19.061  0.00  0.00    +0.000 NA
BRANCH  11  12
ATOM     12  C   UNL     1      -2.267  12.186  19.005  0.00  0.00    +0.000 C 
BRANCH  12  14
ATOM     13  C   UNL     1      -4.569  11.441  18.176  0.00  0.00    +0.000 C 
ATOM     14  C   UNL     1      -3.065  11.400  17.954  0.00  0.00    +0.000 C 
ENDBRANCH  12  14
ENDBRANCH  11  12
BRANCH  11  15
ATOM     15  C   UNL     1      -0.114  13.019  19.864  0.00  0.00    +0.000 C 
BRANCH  15  16
ATOM     16  C   UNL     1       1.046  13.736  19.166  0.00  0.00    +0.000 C 
ATOM     17  C   UNL     1       0.955  15.244  19.333  0.00  0.00    +0.000 C 
ENDBRANCH  15  16
ENDBRANCH  11  15
ENDBRANCH   1  11
BRANCH   6  18
ATOM     18  C   UNL     1       3.784   5.309  19.546  0.00  0.00    +0.000 C 
BRANCH  18  19
ATOM     19  N   UNL     1       3.732   4.207  18.552  0.00  0.00    +0.000 N 
ATOM     20  C   UNL     1       3.020   3.001  18.637  0.00  0.00    +0.000 C 
ATOM     21  C   UNL     1       2.537   2.530  19.978  0.00  0.00    +0.000 C 
ATOM     22  O   UNL     1       2.850   2.226  17.688  0.00  0.00    +0.000 OA
BRANCH  19  23
ATOM     23  C   UNL     1       4.780   4.244  17.543  0.00  0.00    +0.000 A 
ATOM     24  C   UNL     1       6.125   4.382  17.898  0.00  0.00    +0.000 A 
ATOM     25  C   UNL     1       7.094   4.684  16.938  0.00  0.00    +0.000 A 
ATOM     26  C   UNL     1       6.755   4.823  15.594  0.00  0.00    +0.000 A 
ATOM     27  C   UNL     1       5.429   4.614  15.212  0.00  0.00    +0.000 A 
ATOM     28  C   UNL     1       4.459   4.308  16.173  0.00  0.00    +0.000 A 
BRANCH  26  29
ATOM     29  O   UNL     1       7.769   5.233  14.778  0.00  0.00    +0.000 OA
ATOM     30  C   UNL     1       7.545   5.129  13.378  0.00  0.00    +0.000 C 
ENDBRANCH  26  29
ENDBRANCH  19  23
ENDBRANCH  18  19
ENDBRANCH   6  18
TORSDOF 9
ENDMDL
MODEL 5
REMARK VINA RESULT:      -7.2      4.036      9.674
REMARK  Name = 
REMARK  13 active torsions:
REMARK  status: ('A' for Active; 'I' for Inactive)
REMARK    1  A    between atoms: C_1  and  C_2
REMARK    2  A    between atoms: C_2  and  C_3
REMARK    3  A    between atoms: C_3  and  N_4
REMARK    4  A    between atoms: N_4  and  C_5
REMARK    5  A    between atoms: N_4  and  C_8
REMARK    6  A    between atoms: C_5  and  C_6
REMARK    7  A    between atoms: C_6  and  C_7
REMARK    8  A    between atoms: C_13  and  C_14
REMARK    9  A    between atoms: C_14  and  N_15
REMARK   10  A    between atoms: N_15  and  C_19
REMARK   11  A    between atoms: C_16  and  C_17
REMARK   12  A    between atoms: C_22  and  O_23
REMARK   13  A    between atoms: O_23  and  C_24
REMARK                            x       y       z     vdW  Elec       q    Type
REMARK                         _______ _______ _______ _____ _____    ______ ____
ROOT
ATOM      1  C   UNL     1       3.403   5.559  18.062  0.00  0.00    +0.000 C 
ATOM      2  C   UNL     1       3.932   6.897  17.495  0.00  0.00    +0.000 C 
ATOM      3  C   UNL     1       2.804   7.950  17.390  0.00  0.00    +0.000 C 
ATOM      4  C   UNL     1       2.085   8.176  18.699  0.00  0.00    +0.000 A 
ATOM      5  C   UNL     1       1.366   9.362  18.970  0.00  0.00    +0.000 A 
ATOM      6  C   UNL     1       0.730   9.547  20.214  0.00  0.00    +0.000 A 
ATOM      7  C   UNL     1       0.827   8.533  21.178  0.00  0.00    +0.000 A 
ATOM      8  C   UNL     1       1.506   7.360  20.908  0.00  0.00    +0.000 A 
ATOM      9  C   UNL     1       2.105   7.160  19.661  0.00  0.00    +0.000 A 
ATOM     10  C   UNL     1       2.762   5.828  19.440  0.00  0.00    +0.000 C 
ENDROOT
BRANCH   1  11
ATOM     11  N   UNL     1       4.424   4.466  18.200  0.00  0.00    +0.000 NA
BRANCH  11  12
ATOM     12  C   UNL     1       3.892   3.305  18.957  0.00  0.00    +0.000 C 
BRANCH  12  14
ATOM     13  C   UNL     1       1.599   2.175  18.880  0.00  0.00    +0.000 C 
ATOM     14  C   UNL     1       2.960   2.330  18.221  0.00  0.00    +0.000 C 
ENDBRANCH  12  14
ENDBRANCH  11  12
BRANCH  11  15
ATOM     15  C   UNL     1       5.048   4.063  16.920  0.00  0.00    +0.000 C 
BRANCH  15  16
ATOM     16  C   UNL     1       6.487   4.544  16.707  0.00  0.00    +0.000 C 
ATOM     17  C   UNL     1       6.891   4.473  15.243  0.00  0.00    +0.000 C 
ENDBRANCH  15  16
ENDBRANCH  11  15
ENDBRANCH   1  11
BRANCH   6  18
ATOM     18  C   UNL     1      -0.124  10.743  20.572  0.00  0.00    +0.000 C 
BRANCH  18  19
ATOM     19  N   UNL     1      -0.642  11.678  19.541  0.00  0.00    +0.000 N 
ATOM     20  C   UNL     1      -0.061  12.871  19.087  0.00  0.00    +0.000 C 
ATOM     21  C   UNL     1       0.993  13.536  19.926  0.00  0.00    +0.000 C 
ATOM     22  O   UNL     1      -0.433  13.488  18.082  0.00  0.00    +0.000 OA
BRANCH  19  23
ATOM     23  C   UNL     1      -2.047  11.502  19.207  0.00  0.00    +0.000 A 
ATOM     24  C   UNL     1      -2.446  10.659  18.165  0.00  0.00    +0.000 A 
ATOM     25  C   UNL     1      -3.753  10.693  17.672  0.00  0.00    +0.000 A 
ATOM     26  C   UNL     1      -4.708  11.543  18.228  0.00  0.00    +0.000 A 
ATOM     27  C   UNL     1      -4.346  12.336  19.317  0.00  0.00    +0.000 A 
ATOM     28  C   UNL     1      -3.039  12.299  19.812  0.00  0.00    +0.000 A 
BRANCH  26  29
ATOM     29  O   UNL     1      -5.909  11.567  17.583  0.00  0.00    +0.000 OA
ATOM     30  C   UNL     1      -6.356  12.830  17.110  0.00  0.00    +0.000 C 
ENDBRANCH  26  29
ENDBRANCH  19  23
ENDBRANCH  18  19
ENDBRANCH   6  18
TORSDOF 9
ENDMDL
MODEL 6
REMARK VINA RESULT:      -7.1      0.856      1.942
REMARK  Name = 
REMARK  13 active torsions:
REMARK  status: ('A' for Active; 'I' for Inactive)
REMARK    1  A    between atoms: C_1  and  C_2
REMARK    2  A    between atoms: C_2  and  C_3
REMARK    3  A    between atoms: C_3  and  N_4
REMARK    4  A    between atoms: N_4  and  C_5
REMARK    5  A    between atoms: N_4  and  C_8
REMARK    6  A    between atoms: C_5  and  C_6
REMARK    7  A    between atoms: C_6  and  C_7
REMARK    8  A    between atoms: C_13  and  C_14
REMARK    9  A    between atoms: C_14  and  N_15
REMARK   10  A    between atoms: N_15  and  C_19
REMARK   11  A    between atoms: C_16  and  C_17
REMARK   12  A    between atoms: C_22  and  O_23
REMARK   13  A    between atoms: O_23  and  C_24
REMARK                            x       y       z     vdW  Elec       q    Type
REMARK                         _______ _______ _______ _____ _____    ______ ____
ROOT
ATOM      1  C   UNL     1       1.502  10.644  19.384  0.00  0.00    +0.000 C 
ATOM      2  C   UNL     1       1.202  10.182  17.938  0.00  0.00    +0.000 C 
ATOM      3  C   UNL     1       2.075   8.970  17.541  0.00  0.00    +0.000 C 
ATOM      4  C   UNL     1       1.952   7.813  18.505  0.00  0.00    +0.000 A 
ATOM      5  C   UNL     1       2.266   6.486  18.135  0.00  0.00    +0.000 A 
ATOM      6  C   UNL     1       2.112   5.429  19.054  0.00  0.00    +0.000 A 
ATOM      7  C   UNL     1       1.637   5.719  20.343  0.00  0.00    +0.000 A 
ATOM      8  C   UNL     1       1.355   7.019  20.717  0.00  0.00    +0.000 A 
ATOM      9  C   UNL     1       1.543   8.072  19.817  0.00  0.00    +0.000 A 
ATOM     10  C   UNL     1       1.271   9.454  20.338  0.00  0.00    +0.000 C 
ENDROOT
BRANCH   1  11
ATOM     11  N   UNL     1       0.705  11.823  19.865  0.00  0.00    +0.000 NA
BRANCH  11  12
ATOM     12  C   UNL     1      -0.695  11.448  20.187  0.00  0.00    +0.000 C 
BRANCH  12  14
ATOM     13  C   UNL     1      -2.286  10.882  18.267  0.00  0.00    +0.000 C 
ATOM     14  C   UNL     1      -1.807  11.940  19.249  0.00  0.00    +0.000 C 
ENDBRANCH  12  14
ENDBRANCH  11  12
BRANCH  11  15
ATOM     15  C   UNL     1       1.352  12.577  20.962  0.00  0.00    +0.000 C 
BRANCH  15  16
ATOM     16  C   UNL     1       1.975  13.919  20.563  0.00  0.00    +0.000 C 
ATOM     17  C   UNL     1       3.406  14.043  21.063  0.00  0.00    +0.000 C 
ENDBRANCH  15  16
ENDBRANCH  11  15
ENDBRANCH   1  11
BRANCH   6  18
ATOM     18  C   UNL     1       2.492   3.990  18.781  0.00  0.00    +0.000 C 
BRANCH  18  19
ATOM     19  N   UNL     1       3.818   3.441  19.160  0.00  0.00    +0.000 N 
ATOM     20  C   UNL     1       4.124   2.579  20.224  0.00  0.00    +0.000 C 
ATOM     21  C   UNL     1       3.150   2.444  21.358  0.00  0.00    +0.000 C 
ATOM     22  O   UNL     1       5.204   1.991  20.354  0.00  0.00    +0.000 OA
BRANCH  19  23
ATOM     23  C   UNL     1       4.956   4.124  18.563  0.00  0.00    +0.000 A 
ATOM     24  C   UNL     1       5.744   5.008  19.306  0.00  0.00    +0.000 A 
ATOM     25  C   UNL     1       6.658   5.858  18.679  0.00  0.00    +0.000 A 
ATOM     26  C   UNL     1       6.837   5.826  17.297  0.00  0.00    +0.000 A 
ATOM     27  C   UNL     1       6.113   4.897  16.549  0.00  0.00    +0.000 A 
ATOM     28  C   UNL     1       5.200   4.044  17.178  0.00  0.00    +0.000 A 
BRANCH  26  29
ATOM     29  O   UNL     1       7.670   6.784  16.798  0.00  0.00    +0.000 OA
ATOM     30  C   UNL     1       7.721   8.017  17.502  0.00  0.00    +0.000 C 
ENDBRANCH  26  29
ENDBRANCH  19  23
ENDBRANCH  18  19
ENDBRANCH   6  18
TORSDOF 9
ENDMDL
MODEL 7
REMARK VINA RESULT:      -7.1      1.850      2.775
REMARK  Name = 
REMARK  13 active torsions:
REMARK  status: ('A' for Active; 'I' for Inactive)
REMARK    1  A    between atoms: C_1  and  C_2
REMARK    2  A    between atoms: C_2  and  C_3
REMARK    3  A    between atoms: C_3  and  N_4
REMARK    4  A    between atoms: N_4  and  C_5
REMARK    5  A    between atoms: N_4  and  C_8
REMARK    6  A    between atoms: C_5  and  C_6
REMARK    7  A    between atoms: C_6  and  C_7
REMARK    8  A    between atoms: C_13  and  C_14
REMARK    9  A    between atoms: C_14  and  N_15
REMARK   10  A    between atoms: N_15  and  C_19
REMARK   11  A    between atoms: C_16  and  C_17
REMARK   12  A    between atoms: C_22  and  O_23
REMARK   13  A    between atoms: O_23  and  C_24
REMARK                            x       y       z     vdW  Elec       q    Type
REMARK                         _______ _______ _______ _____ _____    ______ ____
ROOT
ATOM      1  C   UNL     1      -0.934  11.346  20.491  0.00  0.00    +0.000 C 
ATOM      2  C   UNL     1      -0.190  10.984  21.798  0.00  0.00    +0.000 C 
ATOM      3  C   UNL     1       0.085   9.465  21.888  0.00  0.00    +0.000 C 
ATOM      4  C   UNL     1       0.830   8.929  20.688  0.00  0.00    +0.000 A 
ATOM      5  C   UNL     1       1.577   7.731  20.737  0.00  0.00    +0.000 A 
ATOM      6  C   UNL     1       2.281   7.277  19.603  0.00  0.00    +0.000 A 
ATOM      7  C   UNL     1       2.228   8.040  18.427  0.00  0.00    +0.000 A 
ATOM      8  C   UNL     1       1.477   9.197  18.367  0.00  0.00    +0.000 A 
ATOM      9  C   UNL     1       0.748   9.628  19.479  0.00  0.00    +0.000 A 
ATOM     10  C   UNL     1      -0.089  10.861  19.295  0.00  0.00    +0.000 C 
ENDROOT
BRANCH   1  11
ATOM     11  N   UNL     1      -1.253  12.803  20.310  0.00  0.00    +0.000 NA
BRANCH  11  12
ATOM     12  C   UNL     1      -0.845  13.295  18.970  0.00  0.00    +0.000 C 
BRANCH  12  14
ATOM     13  C   UNL     1       1.393  14.532  18.986  0.00  0.00    +0.000 C 
ATOM     14  C   UNL     1      -0.121  14.647  18.889  0.00  0.00    +0.000 C 
ENDBRANCH  12  14
ENDBRANCH  11  12
BRANCH  11  15
ATOM     15  C   UNL     1      -2.653  13.156  20.637  0.00  0.00    +0.000 C 
BRANCH  15  16
ATOM     16  C   UNL     1      -2.890  13.669  22.061  0.00  0.00    +0.000 C 
ATOM     17  C   UNL     1      -3.422  12.573  22.971  0.00  0.00    +0.000 C 
ENDBRANCH  15  16
ENDBRANCH  11  15
ENDBRANCH   1  11
BRANCH   6  18
ATOM     18  C   UNL     1       3.044   5.973  19.532  0.00  0.00    +0.000 C 
BRANCH  18  19
ATOM     19  N   UNL     1       3.020   5.112  18.322  0.00  0.00    +0.000 N 
ATOM     20  C   UNL     1       2.083   4.125  17.983  0.00  0.00    +0.000 C 
ATOM     21  C   UNL     1       1.198   3.558  19.056  0.00  0.00    +0.000 C 
ATOM     22  O   UNL     1       2.001   3.598  16.867  0.00  0.00    +0.000 OA
BRANCH  19  23
ATOM     23  C   UNL     1       4.271   5.067  17.579  0.00  0.00    +0.000 A 
ATOM     24  C   UNL     1       5.076   6.202  17.443  0.00  0.00    +0.000 A 
ATOM     25  C   UNL     1       6.125   6.233  16.520  0.00  0.00    +0.000 A 
ATOM     26  C   UNL     1       6.421   5.122  15.732  0.00  0.00    +0.000 A 
ATOM     27  C   UNL     1       5.675   3.956  15.909  0.00  0.00    +0.000 A 
ATOM     28  C   UNL     1       4.627   3.925  16.836  0.00  0.00    +0.000 A 
BRANCH  26  29
ATOM     29  O   UNL     1       7.389   5.319  14.791  0.00  0.00    +0.000 OA
ATOM     30  C   UNL     1       7.173   4.724  13.519  0.00  0.00    +0.000 C 
ENDBRANCH  26  29
ENDBRANCH  19  23
ENDBRANCH  18  19
ENDBRANCH   6  18
TORSDOF 9
ENDMDL
MODEL 8
REMARK VINA RESULT:      -7.1      3.922      9.034
REMARK  Name = 
REMARK  13 active torsions:
REMARK  status: ('A' for Active; 'I' for Inactive)
REMARK    1  A    between atoms: C_1  and  C_2
REMARK    2  A    between atoms: C_2  and  C_3
REMARK    3  A    between atoms: C_3  and  N_4
REMARK    4  A    between atoms: N_4  and  C_5
REMARK    5  A    between atoms: N_4  and  C_8
REMARK    6  A    between atoms: C_5  and  C_6
REMARK    7  A    between atoms: C_6  and  C_7
REMARK    8  A    between atoms: C_13  and  C_14
REMARK    9  A    between atoms: C_14  and  N_15
REMARK   10  A    between atoms: N_15  and  C_19
REMARK   11  A    between atoms: C_16  and  C_17
REMARK   12  A    between atoms: C_22  and  O_23
REMARK   13  A    between atoms: O_23  and  C_24
REMARK                            x       y       z     vdW  Elec       q    Type
REMARK                         _______ _______ _______ _____ _____    ______ ____
ROOT
ATOM      1  C   UNL     1       3.027   5.620  18.186  0.00  0.00    +0.000 C 
ATOM      2  C   UNL     1       3.831   6.805  17.601  0.00  0.00    +0.000 C 
ATOM      3  C   UNL     1       2.930   8.042  17.378  0.00  0.00    +0.000 C 
ATOM      4  C   UNL     1       2.192   8.466  18.627  0.00  0.00    +0.000 A 
ATOM      5  C   UNL     1       1.697   9.778  18.801  0.00  0.00    +0.000 A 
ATOM      6  C   UNL     1       1.036  10.143  19.992  0.00  0.00    +0.000 A 
ATOM      7  C   UNL     1       0.885   9.180  21.001  0.00  0.00    +0.000 A 
ATOM      8  C   UNL     1       1.344   7.889  20.824  0.00  0.00    +0.000 A 
ATOM      9  C   UNL     1       1.965   7.516  19.628  0.00  0.00    +0.000 A 
ATOM     10  C   UNL     1       2.370   6.075  19.506  0.00  0.00    +0.000 C 
ENDROOT
BRANCH   1  11
ATOM     11  N   UNL     1       3.814   4.364  18.435  0.00  0.00    +0.000 NA
BRANCH  11  12
ATOM     12  C   UNL     1       3.156   3.491  19.440  0.00  0.00    +0.000 C 
BRANCH  12  14
ATOM     13  C   UNL     1       0.815   2.606  18.918  0.00  0.00    +0.000 C 
ATOM     14  C   UNL     1       2.308   2.317  18.930  0.00  0.00    +0.000 C 
ENDBRANCH  12  14
ENDBRANCH  11  12
BRANCH  11  15
ATOM     15  C   UNL     1       4.176   3.629  17.203  0.00  0.00    +0.000 C 
BRANCH  15  16
ATOM     16  C   UNL     1       5.553   3.958  16.618  0.00  0.00    +0.000 C 
ATOM     17  C   UNL     1       5.451   4.434  15.178  0.00  0.00    +0.000 C 
ENDBRANCH  15  16
ENDBRANCH  11  15
ENDBRANCH   1  11
BRANCH   6  18
ATOM     18  C   UNL     1       0.404  11.494  20.244  0.00  0.00    +0.000 C 
BRANCH  18  19
ATOM     19  N   UNL     1      -1.051  11.728  20.066  0.00  0.00    +0.000 N 
ATOM     20  C   UNL     1      -1.995  12.078  21.043  0.00  0.00    +0.000 C 
ATOM     21  C   UNL     1      -1.666  11.852  22.491  0.00  0.00    +0.000 C 
ATOM     22  O   UNL     1      -3.143  12.466  20.794  0.00  0.00    +0.000 OA
BRANCH  19  23
ATOM     23  C   UNL     1      -1.603  11.227  18.816  0.00  0.00    +0.000 A 
ATOM     24  C   UNL     1      -1.614  12.014  17.660  0.00  0.00    +0.000 A 
ATOM     25  C   UNL     1      -2.373  11.645  16.547  0.00  0.00    +0.000 A 
ATOM     26  C   UNL     1      -3.114  10.465  16.542  0.00  0.00    +0.000 A 
ATOM     27  C   UNL     1      -3.054   9.631  17.659  0.00  0.00    +0.000 A 
ATOM     28  C   UNL     1      -2.292   9.999  18.772  0.00  0.00    +0.000 A 
BRANCH  26  29
ATOM     29  O   UNL     1      -3.902  10.279  15.444  0.00  0.00    +0.000 OA
ATOM     30  C   UNL     1      -3.235  10.075  14.206  0.00  0.00    +0.000 C 
ENDBRANCH  26  29
ENDBRANCH  19  23
ENDBRANCH  18  19
ENDBRANCH   6  18
TORSDOF 9
ENDMDL
MODEL 9
REMARK VINA RESULT:      -7.1      2.048      3.631
REMARK  Name = 
REMARK  13 active torsions:
REMARK  status: ('A' for Active; 'I' for Inactive)
REMARK    1  A    between atoms: C_1  and  C_2
REMARK    2  A    between atoms: C_2  and  C_3
REMARK    3  A    between atoms: C_3  and  N_4
REMARK    4  A    between atoms: N_4  and  C_5
REMARK    5  A    between atoms: N_4  and  C_8
REMARK    6  A    between atoms: C_5  and  C_6
REMARK    7  A    between atoms: C_6  and  C_7
REMARK    8  A    between atoms: C_13  and  C_14
REMARK    9  A    between atoms: C_14  and  N_15
REMARK   10  A    between atoms: N_15  and  C_19
REMARK   11  A    between atoms: C_16  and  C_17
REMARK   12  A    between atoms: C_22  and  O_23
REMARK   13  A    between atoms: O_23  and  C_24
REMARK                            x       y       z     vdW  Elec       q    Type
REMARK                         _______ _______ _______ _____ _____    ______ ____
ROOT
ATOM      1  C   UNL     1      -0.884  11.792  20.343  0.00  0.00    +0.000 C 
ATOM      2  C   UNL     1      -0.105  11.475  21.641  0.00  0.00    +0.000 C 
ATOM      3  C   UNL     1       0.122   9.954  21.805  0.00  0.00    +0.000 C 
ATOM      4  C   UNL     1       0.803   9.328  20.610  0.00  0.00    +0.000 A 
ATOM      5  C   UNL     1       1.512   8.109  20.699  0.00  0.00    +0.000 A 
ATOM      6  C   UNL     1       2.157   7.570  19.568  0.00  0.00    +0.000 A 
ATOM      7  C   UNL     1       2.087   8.270  18.354  0.00  0.00    +0.000 A 
ATOM      8  C   UNL     1       1.373   9.448  18.257  0.00  0.00    +0.000 A 
ATOM      9  C   UNL     1       0.701   9.964  19.369  0.00  0.00    +0.000 A 
ATOM     10  C   UNL     1      -0.100  11.214  19.146  0.00  0.00    +0.000 C 
ENDROOT
BRANCH   1  11
ATOM     11  N   UNL     1      -1.160  13.248  20.094  0.00  0.00    +0.000 NA
BRANCH  11  12
ATOM     12  C   UNL     1      -2.495  13.652  20.604  0.00  0.00    +0.000 C 
BRANCH  12  14
ATOM     13  C   UNL     1      -4.784  13.022  21.556  0.00  0.00    +0.000 C 
ATOM     14  C   UNL     1      -3.558  12.558  20.784  0.00  0.00    +0.000 C 
ENDBRANCH  12  14
ENDBRANCH  11  12
BRANCH  11  15
ATOM     15  C   UNL     1      -0.084  14.151  20.560  0.00  0.00    +0.000 C 
BRANCH  15  16
ATOM     16  C   UNL     1       0.483  15.104  19.503  0.00  0.00    +0.000 C 
ATOM     17  C   UNL     1       1.612  14.460  18.715  0.00  0.00    +0.000 C 
ENDBRANCH  15  16
ENDBRANCH  11  15
ENDBRANCH   1  11
BRANCH   6  18
ATOM     18  C   UNL     1       2.873   6.237  19.541  0.00  0.00    +0.000 C 
BRANCH  18  19
ATOM     19  N   UNL     1       2.770   5.311  18.385  0.00  0.00    +0.000 N 
ATOM     20  C   UNL     1       1.842   4.277  18.187  0.00  0.00    +0.000 C 
ATOM     21  C   UNL     1       1.082   3.742  19.366  0.00  0.00    +0.000 C 
ATOM     22  O   UNL     1       1.678   3.687  17.113  0.00  0.00    +0.000 OA
BRANCH  19  23
ATOM     23  C   UNL     1       3.947   5.266  17.532  0.00  0.00    +0.000 A 
ATOM     24  C   UNL     1       4.389   6.399  16.842  0.00  0.00    +0.000 A 
ATOM     25  C   UNL     1       5.344   6.297  15.827  0.00  0.00    +0.000 A 
ATOM     26  C   UNL     1       5.909   5.068  15.495  0.00  0.00    +0.000 A 
ATOM     27  C   UNL     1       5.534   3.938  16.223  0.00  0.00    +0.000 A 
ATOM     28  C   UNL     1       4.581   4.041  17.242  0.00  0.00    +0.000 A 
BRANCH  26  29
ATOM     29  O   UNL     1       6.738   5.084  14.411  0.00  0.00    +0.000 OA
ATOM     30  C   UNL     1       6.546   4.061  13.444  0.00  0.00    +0.000 C 
ENDBRANCH  26  29
ENDBRANCH  19  23
ENDBRANCH  18  19
ENDBRANCH   6  18
TORSDOF 9
ENDMDL
