MODEL 1
REMARK VINA RESULT:      -8.2      0.000      0.000
REMARK  Name = 
REMARK  6 active torsions:
REMARK  status: ('A' for Active; 'I' for Inactive)
REMARK    1  A    between atoms: C_1  and  N_2
REMARK    2  A    between atoms: N_2  and  C_3
REMARK    3  A    between atoms: N_2  and  C_4
REMARK    4  A    between atoms: C_4  and  C_5
REMARK    5  A    between atoms: C_5  and  N_6
REMARK    6  A    between atoms: C_19  and  N_20
REMARK                            x       y       z     vdW  Elec       q    Type
REMARK                         _______ _______ _______ _____ _____    ______ ____
ROOT
ATOM      1  N   UNL     1       5.419   5.110  16.670  0.00  0.00    +0.000 N 
ATOM      2  C   UNL     1       4.942   6.391  16.430  0.00  0.00    +0.000 C 
ATOM      3  O   UNL     1       5.264   7.079  15.463  0.00  0.00    +0.000 OA
ATOM      4  C   UNL     1       3.928   6.905  17.363  0.00  0.00    +0.000 A 
ATOM      5  C   UNL     1       3.459   8.215  17.180  0.00  0.00    +0.000 A 
ATOM      6  C   UNL     1       2.493   8.732  18.029  0.00  0.00    +0.000 A 
ATOM      7  C   UNL     1       2.006   7.940  19.062  0.00  0.00    +0.000 A 
ATOM      8  C   UNL     1       2.474   6.628  19.250  0.00  0.00    +0.000 A 
ATOM      9  C   UNL     1       1.953   5.845  20.277  0.00  0.00    +0.000 A 
ATOM     10  C   UNL     1       2.386   4.536  20.508  0.00  0.00    +0.000 A 
ATOM     11  C   UNL     1       1.784   3.857  21.579  0.00  0.00    +0.000 A 
ATOM     12  C   UNL     1       2.164   2.574  21.927  0.00  0.00    +0.000 A 
ATOM     13  C   UNL     1       3.177   1.962  21.214  0.00  0.00    +0.000 A 
ATOM     14  C   UNL     1       3.778   2.591  20.104  0.00  0.00    +0.000 A 
ATOM     15  C   UNL     1       3.393   3.930  19.699  0.00  0.00    +0.000 A 
ATOM     16  C   UNL     1       3.882   4.742  18.592  0.00  0.00    +0.000 A 
ATOM     17  C   UNL     1       3.448   6.081  18.396  0.00  0.00    +0.000 A 
ATOM     18  C   UNL     1       4.776   4.202  17.515  0.00  0.00    +0.000 C 
ATOM     19  O   UNL     1       4.850   2.989  17.320  0.00  0.00    +0.000 OA
ENDROOT
BRANCH  14  20
ATOM     20  N   UNL     1       4.938   1.943  19.617  0.00  0.00    +0.000 N 
ATOM     21  H   UNL     1       4.960   1.875  18.604  0.00  0.00    +0.000 HD
ATOM     22  H   UNL     1       5.794   2.409  19.937  0.00  0.00    +0.000 HD
ENDBRANCH  14  20
BRANCH   1  23
ATOM     23  C   UNL     1       6.371   4.580  15.689  0.00  0.00    +0.000 C 
BRANCH  23  24
ATOM     24  C   UNL     1       5.722   4.118  14.364  0.00  0.00    +0.000 C 
BRANCH  24  26
ATOM     25  C   UNL     1       5.996   3.282  12.093  0.00  0.00    +0.000 C 
ATOM     26  N   UNL     1       6.678   3.791  13.284  0.00  0.00    +0.000 NA
ATOM     27  C   UNL     1       7.461   4.982  12.941  0.00  0.00    +0.000 C 
ENDBRANCH  24  26
ENDBRANCH  23  24
ENDBRANCH   1  23
TORSDOF 4
ENDMDL
MODEL 2
REMARK VINA RESULT:      -7.5      2.806      6.614
REMARK  Name = 
REMARK  6 active torsions:
REMARK  status: ('A' for Active; 'I' for Inactive)
REMARK    1  A    between atoms: C_1  and  N_2
REMARK    2  A    between atoms: N_2  and  C_3
REMARK    3  A    between atoms: N_2  and  C_4
REMARK    4  A    between atoms: C_4  and  C_5
REMARK    5  A    between atoms: C_5  and  N_6
REMARK    6  A    between atoms: C_19  and  N_20
REMARK                            x       y       z     vdW  Elec       q    Type
REMARK                         _______ _______ _______ _____ _____    ______ ____
ROOT
ATOM      1  N   UNL     1       2.349   7.342  19.457  0.00  0.00    +0.000 N 
ATOM      2  C   UNL     1       1.654   6.421  20.228  0.00  0.00    +0.000 C 
ATOM      3  O   UNL     1       0.796   6.720  21.058  0.00  0.00    +0.000 OA
ATOM      4  C   UNL     1       1.919   4.999  19.960  0.00  0.00    +0.000 A 
ATOM      5  C   UNL     1       1.270   4.041  20.755  0.00  0.00    +0.000 A 
ATOM      6  C   UNL     1       1.483   2.690  20.526  0.00  0.00    +0.000 A 
ATOM      7  C   UNL     1       2.348   2.304  19.509  0.00  0.00    +0.000 A 
ATOM      8  C   UNL     1       3.000   3.261  18.713  0.00  0.00    +0.000 A 
ATOM      9  C   UNL     1       3.844   2.849  17.684  0.00  0.00    +0.000 A 
ATOM     10  C   UNL     1       4.519   3.760  16.865  0.00  0.00    +0.000 A 
ATOM     11  C   UNL     1       5.343   3.213  15.869  0.00  0.00    +0.000 A 
ATOM     12  C   UNL     1       6.091   4.018  15.029  0.00  0.00    +0.000 A 
ATOM     13  C   UNL     1       6.039   5.388  15.197  0.00  0.00    +0.000 A 
ATOM     14  C   UNL     1       5.192   5.979  16.156  0.00  0.00    +0.000 A 
ATOM     15  C   UNL     1       4.378   5.168  17.043  0.00  0.00    +0.000 A 
ATOM     16  C   UNL     1       3.445   5.580  18.084  0.00  0.00    +0.000 A 
ATOM     17  C   UNL     1       2.794   4.635  18.923  0.00  0.00    +0.000 A 
ATOM     18  C   UNL     1       3.008   7.002  18.272  0.00  0.00    +0.000 C 
ATOM     19  O   UNL     1       3.133   7.817  17.358  0.00  0.00    +0.000 OA
ENDROOT
BRANCH  14  20
ATOM     20  N   UNL     1       5.408   7.363  16.361  0.00  0.00    +0.000 N 
ATOM     21  H   UNL     1       4.665   7.807  16.890  0.00  0.00    +0.000 HD
ATOM     22  H   UNL     1       6.302   7.540  16.832  0.00  0.00    +0.000 HD
ENDBRANCH  14  20
BRANCH   1  23
ATOM     23  C   UNL     1       2.018   8.753  19.679  0.00  0.00    +0.000 C 
BRANCH  23  24
ATOM     24  C   UNL     1       0.954   9.314  18.707  0.00  0.00    +0.000 C 
BRANCH  24  26
ATOM     25  C   UNL     1      -1.224  10.395  18.585  0.00  0.00    +0.000 C 
ATOM     26  N   UNL     1       0.058  10.336  19.288  0.00  0.00    +0.000 NA
ATOM     27  C   UNL     1      -0.164  10.046  20.707  0.00  0.00    +0.000 C 
ENDBRANCH  24  26
ENDBRANCH  23  24
ENDBRANCH   1  23
TORSDOF 4
ENDMDL
MODEL 3
REMARK VINA RESULT:      -7.4      2.066      4.820
REMARK  Name = 
REMARK  6 active torsions:
REMARK  status: ('A' for Active; 'I' for Inactive)
REMARK    1  A    between atoms: C_1  and  N_2
REMARK    2  A    between atoms: N_2  and  C_3
REMARK    3  A    between atoms: N_2  and  C_4
REMARK    4  A    between atoms: C_4  and  C_5
REMARK    5  A    between atoms: C_5  and  N_6
REMARK    6  A    between atoms: C_19  and  N_20
REMARK                            x       y       z     vdW  Elec       q    Type
REMARK                         _______ _______ _______ _____ _____    ______ ____
ROOT
ATOM      1  N   UNL     1       4.223   5.595  17.151  0.00  0.00    +0.000 N 
ATOM      2  C   UNL     1       4.275   4.360  17.782  0.00  0.00    +0.000 C 
ATOM      3  O   UNL     1       4.994   3.429  17.423  0.00  0.00    +0.000 OA
ATOM      4  C   UNL     1       3.470   4.206  19.004  0.00  0.00    +0.000 A 
ATOM      5  C   UNL     1       3.460   2.956  19.641  0.00  0.00    +0.000 A 
ATOM      6  C   UNL     1       2.725   2.774  20.802  0.00  0.00    +0.000 A 
ATOM      7  C   UNL     1       1.997   3.840  21.316  0.00  0.00    +0.000 A 
ATOM      8  C   UNL     1       2.003   5.093  20.680  0.00  0.00    +0.000 A 
ATOM      9  C   UNL     1       1.285   6.153  21.228  0.00  0.00    +0.000 A 
ATOM     10  C   UNL     1       1.255   7.419  20.633  0.00  0.00    +0.000 A 
ATOM     11  C   UNL     1       0.490   8.398  21.284  0.00  0.00    +0.000 A 
ATOM     12  C   UNL     1       0.353   9.672  20.764  0.00  0.00    +0.000 A 
ATOM     13  C   UNL     1       0.968   9.973  19.564  0.00  0.00    +0.000 A 
ATOM     14  C   UNL     1       1.782   9.032  18.900  0.00  0.00    +0.000 A 
ATOM     15  C   UNL     1       1.963   7.691  19.425  0.00  0.00    +0.000 A 
ATOM     16  C   UNL     1       2.757   6.587  18.900  0.00  0.00    +0.000 A 
ATOM     17  C   UNL     1       2.747   5.302  19.506  0.00  0.00    +0.000 A 
ATOM     18  C   UNL     1       3.729   6.747  17.768  0.00  0.00    +0.000 C 
ATOM     19  O   UNL     1       4.158   7.862  17.469  0.00  0.00    +0.000 OA
ENDROOT
BRANCH  14  20
ATOM     20  N   UNL     1       2.161   9.402  17.588  0.00  0.00    +0.000 N 
ATOM     21  H   UNL     1       2.713   8.692  17.118  0.00  0.00    +0.000 HD
ATOM     22  H   UNL     1       1.345   9.626  17.008  0.00  0.00    +0.000 HD
ENDBRANCH  14  20
BRANCH   1  23
ATOM     23  C   UNL     1       5.090   5.760  15.980  0.00  0.00    +0.000 C 
BRANCH  23  24
ATOM     24  C   UNL     1       6.599   5.805  16.312  0.00  0.00    +0.000 C 
BRANCH  24  26
ATOM     25  C   UNL     1       7.714   5.415  18.442  0.00  0.00    +0.000 C 
ATOM     26  N   UNL     1       6.927   6.356  17.644  0.00  0.00    +0.000 NA
ATOM     27  C   UNL     1       7.660   7.615  17.489  0.00  0.00    +0.000 C 
ENDBRANCH  24  26
ENDBRANCH  23  24
ENDBRANCH   1  23
TORSDOF 4
ENDMDL
MODEL 4
REMARK VINA RESULT:      -7.1      1.630      4.310
REMARK  Name = 
REMARK  6 active torsions:
REMARK  status: ('A' for Active; 'I' for Inactive)
REMARK    1  A    between atoms: C_1  and  N_2
REMARK    2  A    between atoms: N_2  and  C_3
REMARK    3  A    between atoms: N_2  and  C_4
REMARK    4  A    between atoms: C_4  and  C_5
REMARK    5  A    between atoms: C_5  and  N_6
REMARK    6  A    between atoms: C_19  and  N_20
REMARK                            x       y       z     vdW  Elec       q    Type
REMARK                         _______ _______ _______ _____ _____    ______ ____
ROOT
ATOM      1  N   UNL     1       4.386   5.378  17.130  0.00  0.00    +0.000 N 
ATOM      2  C   UNL     1       4.450   4.166  17.804  0.00  0.00    +0.000 C 
ATOM      3  O   UNL     1       5.180   3.231  17.478  0.00  0.00    +0.000 OA
ATOM      4  C   UNL     1       3.644   4.046  19.028  0.00  0.00    +0.000 A 
ATOM      5  C   UNL     1       3.647   2.818  19.709  0.00  0.00    +0.000 A 
ATOM      6  C   UNL     1       2.911   2.668  20.874  0.00  0.00    +0.000 A 
ATOM      7  C   UNL     1       2.171   3.744  21.350  0.00  0.00    +0.000 A 
ATOM      8  C   UNL     1       2.165   4.975  20.671  0.00  0.00    +0.000 A 
ATOM      9  C   UNL     1       1.435   6.045  21.181  0.00  0.00    +0.000 A 
ATOM     10  C   UNL     1       1.393   7.289  20.543  0.00  0.00    +0.000 A 
ATOM     11  C   UNL     1       0.615   8.282  21.159  0.00  0.00    +0.000 A 
ATOM     12  C   UNL     1       0.466   9.536  20.595  0.00  0.00    +0.000 A 
ATOM     13  C   UNL     1       1.080   9.801  19.387  0.00  0.00    +0.000 A 
ATOM     14  C   UNL     1       1.906   8.847  18.757  0.00  0.00    +0.000 A 
ATOM     15  C   UNL     1       2.100   7.527  19.327  0.00  0.00    +0.000 A 
ATOM     16  C   UNL     1       2.906   6.415  18.842  0.00  0.00    +0.000 A 
ATOM     17  C   UNL     1       2.909   5.151  19.491  0.00  0.00    +0.000 A 
ATOM     18  C   UNL     1       3.879   6.545  17.706  0.00  0.00    +0.000 C 
ATOM     19  O   UNL     1       4.296   7.654  17.370  0.00  0.00    +0.000 OA
ENDROOT
BRANCH  14  20
ATOM     20  N   UNL     1       2.283   9.176  17.433  0.00  0.00    +0.000 N 
ATOM     21  H   UNL     1       1.519   9.562  16.886  0.00  0.00    +0.000 HD
ATOM     22  H   UNL     1       3.069   9.835  17.416  0.00  0.00    +0.000 HD
ENDBRANCH  14  20
BRANCH   1  23
ATOM     23  C   UNL     1       5.254   5.512  15.956  0.00  0.00    +0.000 C 
BRANCH  23  24
ATOM     24  C   UNL     1       5.019   4.437  14.870  0.00  0.00    +0.000 C 
BRANCH  24  26
ATOM     25  C   UNL     1       6.023   3.619  12.807  0.00  0.00    +0.000 C 
ATOM     26  N   UNL     1       6.246   3.930  14.220  0.00  0.00    +0.000 NA
ATOM     27  C   UNL     1       7.317   4.922  14.349  0.00  0.00    +0.000 C 
ENDBRANCH  24  26
ENDBRANCH  23  24
ENDBRANCH   1  23
TORSDOF 4
ENDMDL
MODEL 5
REMARK VINA RESULT:      -7.1      2.977      6.949
REMARK  Name = 
REMARK  6 active torsions:
REMARK  status: ('A' for Active; 'I' for Inactive)
REMARK    1  A    between atoms: C_1  and  N_2
REMARK    2  A    between atoms: N_2  and  C_3
REMARK    3  A    between atoms: N_2  and  C_4
REMARK    4  A    between atoms: C_4  and  C_5
REMARK    5  A    between atoms: C_5  and  N_6
REMARK    6  A    between atoms: C_19  and  N_20
REMARK                            x       y       z     vdW  Elec       q    Type
REMARK                         _______ _______ _______ _____ _____    ______ ____
ROOT
ATOM      1  N   UNL     1       2.192   7.233  19.653  0.00  0.00    +0.000 N 
ATOM      2  C   UNL     1       1.512   6.244  20.349  0.00  0.00    +0.000 C 
ATOM      3  O   UNL     1       0.631   6.463  21.179  0.00  0.00    +0.000 OA
ATOM      4  C   UNL     1       1.826   4.851  19.996  0.00  0.00    +0.000 A 
ATOM      5  C   UNL     1       1.193   3.824  20.714  0.00  0.00    +0.000 A 
ATOM      6  C   UNL     1       1.452   2.498  20.404  0.00  0.00    +0.000 A 
ATOM      7  C   UNL     1       2.347   2.206  19.381  0.00  0.00    +0.000 A 
ATOM      8  C   UNL     1       2.984   3.231  18.661  0.00  0.00    +0.000 A 
ATOM      9  C   UNL     1       3.858   2.912  17.626  0.00  0.00    +0.000 A 
ATOM     10  C   UNL     1       4.519   3.894  16.880  0.00  0.00    +0.000 A 
ATOM     11  C   UNL     1       5.377   3.438  15.867  0.00  0.00    +0.000 A 
ATOM     12  C   UNL     1       6.115   4.318  15.096  0.00  0.00    +0.000 A 
ATOM     13  C   UNL     1       6.017   5.672  15.350  0.00  0.00    +0.000 A 
ATOM     14  C   UNL     1       5.134   6.174  16.328  0.00  0.00    +0.000 A 
ATOM     15  C   UNL     1       4.331   5.282  17.145  0.00  0.00    +0.000 A 
ATOM     16  C   UNL     1       3.367   5.598  18.192  0.00  0.00    +0.000 A 
ATOM     17  C   UNL     1       2.731   4.582  18.955  0.00  0.00    +0.000 A 
ATOM     18  C   UNL     1       2.882   6.992  18.463  0.00  0.00    +0.000 C 
ATOM     19  O   UNL     1       2.998   7.867  17.605  0.00  0.00    +0.000 OA
ENDROOT
BRANCH  14  20
ATOM     20  N   UNL     1       5.304   7.547  16.626  0.00  0.00    +0.000 N 
ATOM     21  H   UNL     1       6.179   7.924  16.279  0.00  0.00    +0.000 HD
ATOM     22  H   UNL     1       4.530   8.112  16.260  0.00  0.00    +0.000 HD
ENDBRANCH  14  20
BRANCH   1  23
ATOM     23  C   UNL     1       1.812   8.617  19.958  0.00  0.00    +0.000 C 
BRANCH  23  24
ATOM     24  C   UNL     1       1.742   8.934  21.470  0.00  0.00    +0.000 C 
BRANCH  24  26
ATOM     25  C   UNL     1      -0.183  10.245  20.760  0.00  0.00    +0.000 C 
ATOM     26  N   UNL     1       0.767   9.981  21.841  0.00  0.00    +0.000 NA
ATOM     27  C   UNL     1       0.046   9.575  23.051  0.00  0.00    +0.000 C 
ENDBRANCH  24  26
ENDBRANCH  23  24
ENDBRANCH   1  23
TORSDOF 4
ENDMDL
MODEL 6
REMARK VINA RESULT:      -6.8      1.429      1.930
REMARK  Name = 
REMARK  6 active torsions:
REMARK  status: ('A' for Active; 'I' for Inactive)
REMARK    1  A    between atoms: C_1  and  N_2
REMARK    2  A    between atoms: N_2  and  C_3
REMARK    3  A    between atoms: N_2  and  C_4
REMARK    4  A    between atoms: C_4  and  C_5
REMARK    5  A    between atoms: C_5  and  N_6
REMARK    6  A    between atoms: C_19  and  N_20
REMARK                            x       y       z     vdW  Elec       q    Type
REMARK                         _______ _______ _______ _____ _____    ______ ____
ROOT
ATOM      1  N   UNL     1       4.795   5.599  16.648  0.00  0.00    +0.000 N 
ATOM      2  C   UNL     1       4.237   6.869  16.587  0.00  0.00    +0.000 C 
ATOM      3  O   UNL     1       4.413   7.659  15.662  0.00  0.00    +0.000 OA
ATOM      4  C   UNL     1       3.315   7.238  17.672  0.00  0.00    +0.000 A 
ATOM      5  C   UNL     1       2.769   8.532  17.670  0.00  0.00    +0.000 A 
ATOM      6  C   UNL     1       1.886   8.915  18.667  0.00  0.00    +0.000 A 
ATOM      7  C   UNL     1       1.557   8.006  19.665  0.00  0.00    +0.000 A 
ATOM      8  C   UNL     1       2.102   6.710  19.672  0.00  0.00    +0.000 A 
ATOM      9  C   UNL     1       1.738   5.810  20.669  0.00  0.00    +0.000 A 
ATOM     10  C   UNL     1       2.253   4.510  20.723  0.00  0.00    +0.000 A 
ATOM     11  C   UNL     1       1.808   3.705  21.783  0.00  0.00    +0.000 A 
ATOM     12  C   UNL     1       2.283   2.418  21.961  0.00  0.00    +0.000 A 
ATOM     13  C   UNL     1       3.233   1.930  21.084  0.00  0.00    +0.000 A 
ATOM     14  C   UNL     1       3.674   2.690  19.981  0.00  0.00    +0.000 A 
ATOM     15  C   UNL     1       3.185   4.038  19.753  0.00  0.00    +0.000 A 
ATOM     16  C   UNL     1       3.507   4.973  18.683  0.00  0.00    +0.000 A 
ATOM     17  C   UNL     1       2.994   6.298  18.667  0.00  0.00    +0.000 A 
ATOM     18  C   UNL     1       4.294   4.584  17.466  0.00  0.00    +0.000 C 
ATOM     19  O   UNL     1       4.399   3.400  17.147  0.00  0.00    +0.000 OA
ENDROOT
BRANCH  14  20
ATOM     20  N   UNL     1       4.798   2.155  19.308  0.00  0.00    +0.000 N 
ATOM     21  H   UNL     1       5.234   1.388  19.810  0.00  0.00    +0.000 HD
ATOM     22  H   UNL     1       4.556   1.838  18.363  0.00  0.00    +0.000 HD
ENDBRANCH  14  20
BRANCH   1  23
ATOM     23  C   UNL     1       5.650   5.214  15.520  0.00  0.00    +0.000 C 
BRANCH  23  24
ATOM     24  C   UNL     1       6.941   4.469  15.931  0.00  0.00    +0.000 C 
BRANCH  24  26
ATOM     25  C   UNL     1       7.481   6.636  16.902  0.00  0.00    +0.000 C 
ATOM     26  N   UNL     1       7.820   5.213  16.858  0.00  0.00    +0.000 NA
ATOM     27  C   UNL     1       7.721   4.634  18.201  0.00  0.00    +0.000 C 
ENDBRANCH  24  26
ENDBRANCH  23  24
ENDBRANCH   1  23
TORSDOF 4
ENDMDL
MODEL 7
REMARK VINA RESULT:      -6.6      4.826      7.526
REMARK  Name = 
REMARK  6 active torsions:
REMARK  status: ('A' for Active; 'I' for Inactive)
REMARK    1  A    between atoms: C_1  and  N_2
REMARK    2  A    between atoms: N_2  and  C_3
REMARK    3  A    between atoms: N_2  and  C_4
REMARK    4  A    between atoms: C_4  and  C_5
REMARK    5  A    between atoms: C_5  and  N_6
REMARK    6  A    between atoms: C_19  and  N_20
REMARK                            x       y       z     vdW  Elec       q    Type
REMARK                         _______ _______ _______ _____ _____    ______ ____
ROOT
ATOM      1  N   UNL     1       1.463  11.701  18.914  0.00  0.00    +0.000 N 
ATOM      2  C   UNL     1       0.668  12.143  19.962  0.00  0.00    +0.000 C 
ATOM      3  O   UNL     1       0.219  13.284  20.058  0.00  0.00    +0.000 OA
ATOM      4  C   UNL     1       0.284  11.141  20.969  0.00  0.00    +0.000 A 
ATOM      5  C   UNL     1      -0.479  11.563  22.069  0.00  0.00    +0.000 A 
ATOM      6  C   UNL     1      -0.872  10.648  23.033  0.00  0.00    +0.000 A 
ATOM      7  C   UNL     1      -0.495   9.317  22.896  0.00  0.00    +0.000 A 
ATOM      8  C   UNL     1       0.270   8.891  21.797  0.00  0.00    +0.000 A 
ATOM      9  C   UNL     1       0.615   7.548  21.670  0.00  0.00    +0.000 A 
ATOM     10  C   UNL     1       1.376   7.074  20.597  0.00  0.00    +0.000 A 
ATOM     11  C   UNL     1       1.659   5.699  20.590  0.00  0.00    +0.000 A 
ATOM     12  C   UNL     1       2.440   5.127  19.602  0.00  0.00    +0.000 A 
ATOM     13  C   UNL     1       2.969   5.937  18.617  0.00  0.00    +0.000 A 
ATOM     14  C   UNL     1       2.674   7.315  18.562  0.00  0.00    +0.000 A 
ATOM     15  C   UNL     1       1.844   7.948  19.572  0.00  0.00    +0.000 A 
ATOM     16  C   UNL     1       1.423   9.337  19.689  0.00  0.00    +0.000 A 
ATOM     17  C   UNL     1       0.674   9.801  20.805  0.00  0.00    +0.000 A 
ATOM     18  C   UNL     1       1.635  10.351  18.603  0.00  0.00    +0.000 C 
ATOM     19  O   UNL     1       1.848   9.986  17.447  0.00  0.00    +0.000 OA
ENDROOT
BRANCH  14  20
ATOM     20  N   UNL     1       3.457   8.049  17.639  0.00  0.00    +0.000 N 
ATOM     21  H   UNL     1       3.133   7.956  16.681  0.00  0.00    +0.000 HD
ATOM     22  H   UNL     1       3.492   9.045  17.882  0.00  0.00    +0.000 HD
ENDBRANCH  14  20
BRANCH   1  23
ATOM     23  C   UNL     1       1.773  12.691  17.877  0.00  0.00    +0.000 C 
BRANCH  23  24
ATOM     24  C   UNL     1       3.086  13.470  18.118  0.00  0.00    +0.000 C 
BRANCH  24  26
ATOM     25  C   UNL     1       3.343  15.095  19.913  0.00  0.00    +0.000 C 
ATOM     26  N   UNL     1       2.907  14.877  18.532  0.00  0.00    +0.000 NA
ATOM     27  C   UNL     1       3.655  15.756  17.629  0.00  0.00    +0.000 C 
ENDBRANCH  24  26
ENDBRANCH  23  24
ENDBRANCH   1  23
TORSDOF 4
ENDMDL
MODEL 8
REMARK VINA RESULT:      -6.6     10.308     12.179
REMARK  Name = 
REMARK  6 active torsions:
REMARK  status: ('A' for Active; 'I' for Inactive)
REMARK    1  A    between atoms: C_1  and  N_2
REMARK    2  A    between atoms: N_2  and  C_3
REMARK    3  A    between atoms: N_2  and  C_4
REMARK    4  A    between atoms: C_4  and  C_5
REMARK    5  A    between atoms: C_5  and  N_6
REMARK    6  A    between atoms: C_19  and  N_20
REMARK                            x       y       z     vdW  Elec       q    Type
REMARK                         _______ _______ _______ _____ _____    ______ ____
ROOT
ATOM      1  N   UNL     1      11.329  14.872  18.515  0.00  0.00    +0.000 N 
ATOM      2  C   UNL     1      11.242  13.673  17.820  0.00  0.00    +0.000 C 
ATOM      3  O   UNL     1      11.772  13.464  16.730  0.00  0.00    +0.000 OA
ATOM      4  C   UNL     1      10.531  12.572  18.489  0.00  0.00    +0.000 A 
ATOM      5  C   UNL     1      10.381  11.360  17.796  0.00  0.00    +0.000 A 
ATOM      6  C   UNL     1       9.730  10.294  18.395  0.00  0.00    +0.000 A 
ATOM      7  C   UNL     1       9.226  10.445  19.682  0.00  0.00    +0.000 A 
ATOM      8  C   UNL     1       9.373  11.657  20.378  0.00  0.00    +0.000 A 
ATOM      9  C   UNL     1       8.882  11.777  21.675  0.00  0.00    +0.000 A 
ATOM     10  C   UNL     1       9.000  12.961  22.411  0.00  0.00    +0.000 A 
ATOM     11  C   UNL     1       8.457  12.950  23.705  0.00  0.00    +0.000 A 
ATOM     12  C   UNL     1       8.478  14.078  24.506  0.00  0.00    +0.000 A 
ATOM     13  C   UNL     1       9.026  15.242  24.005  0.00  0.00    +0.000 A 
ATOM     14  C   UNL     1       9.621  15.284  22.727  0.00  0.00    +0.000 A 
ATOM     15  C   UNL     1       9.634  14.116  21.865  0.00  0.00    +0.000 A 
ATOM     16  C   UNL     1      10.196  13.953  20.530  0.00  0.00    +0.000 A 
ATOM     17  C   UNL     1      10.036  12.749  19.792  0.00  0.00    +0.000 A 
ATOM     18  C   UNL     1      11.079  14.980  19.885  0.00  0.00    +0.000 C 
ATOM     19  O   UNL     1      11.650  15.828  20.571  0.00  0.00    +0.000 OA
ENDROOT
BRANCH  14  20
ATOM     20  N   UNL     1       9.938  16.584  22.266  0.00  0.00    +0.000 N 
ATOM     21  H   UNL     1       9.515  17.318  22.825  0.00  0.00    +0.000 HD
ATOM     22  H   UNL     1      10.951  16.736  22.230  0.00  0.00    +0.000 HD
ENDBRANCH  14  20
BRANCH   1  23
ATOM     23  C   UNL     1      12.107  15.936  17.872  0.00  0.00    +0.000 C 
BRANCH  23  24
ATOM     24  C   UNL     1      11.253  16.950  17.075  0.00  0.00    +0.000 C 
BRANCH  24  26
ATOM     25  C   UNL     1       9.954  18.333  18.602  0.00  0.00    +0.000 C 
ATOM     26  N   UNL     1      11.113  18.278  17.709  0.00  0.00    +0.000 NA
ATOM     27  C   UNL     1      12.333  18.600  18.454  0.00  0.00    +0.000 C 
ENDBRANCH  24  26
ENDBRANCH  23  24
ENDBRANCH   1  23
TORSDOF 4
ENDMDL
MODEL 9
REMARK VINA RESULT:      -6.5      9.190     12.404
REMARK  Name = 
REMARK  6 active torsions:
REMARK  status: ('A' for Active; 'I' for Inactive)
REMARK    1  A    between atoms: C_1  and  N_2
REMARK    2  A    between atoms: N_2  and  C_3
REMARK    3  A    between atoms: N_2  and  C_4
REMARK    4  A    between atoms: C_4  and  C_5
REMARK    5  A    between atoms: C_5  and  N_6
REMARK    6  A    between atoms: C_19  and  N_20
REMARK                            x       y       z     vdW  Elec       q    Type
REMARK                         _______ _______ _______ _____ _____    ______ ____
ROOT
ATOM      1  N   UNL     1      -3.758  13.233  21.259  0.00  0.00    +0.000 N 
ATOM      2  C   UNL     1      -2.616  12.957  21.999  0.00  0.00    +0.000 C 
ATOM      3  O   UNL     1      -2.454  13.290  23.172  0.00  0.00    +0.000 OA
ATOM      4  C   UNL     1      -1.582  12.143  21.342  0.00  0.00    +0.000 A 
ATOM      5  C   UNL     1      -0.394  11.885  22.043  0.00  0.00    +0.000 A 
ATOM      6  C   UNL     1       0.600  11.111  21.464  0.00  0.00    +0.000 A 
ATOM      7  C   UNL     1       0.403  10.604  20.185  0.00  0.00    +0.000 A 
ATOM      8  C   UNL     1      -0.785  10.861  19.479  0.00  0.00    +0.000 A 
ATOM      9  C   UNL     1      -0.968  10.321  18.209  0.00  0.00    +0.000 A 
ATOM     10  C   UNL     1      -2.130  10.549  17.464  0.00  0.00    +0.000 A 
ATOM     11  C   UNL     1      -2.186   9.951  16.195  0.00  0.00    +0.000 A 
ATOM     12  C   UNL     1      -3.267  10.143  15.354  0.00  0.00    +0.000 A 
ATOM     13  C   UNL     1      -4.299  10.961  15.770  0.00  0.00    +0.000 A 
ATOM     14  C   UNL     1      -4.303  11.544  17.053  0.00  0.00    +0.000 A 
ATOM     15  C   UNL     1      -3.194  11.352  17.970  0.00  0.00    +0.000 A 
ATOM     16  C   UNL     1      -3.010  11.857  19.325  0.00  0.00    +0.000 A 
ATOM     17  C   UNL     1      -1.808  11.637  20.050  0.00  0.00    +0.000 A 
ATOM     18  C   UNL     1      -4.102  12.534  20.099  0.00  0.00    +0.000 C 
ATOM     19  O   UNL     1      -5.280  12.383  19.774  0.00  0.00    +0.000 OA
ENDROOT
BRANCH  14  20
ATOM     20  N   UNL     1      -5.305  12.524  17.253  0.00  0.00    +0.000 N 
ATOM     21  H   UNL     1      -5.399  12.804  18.224  0.00  0.00    +0.000 HD
ATOM     22  H   UNL     1      -5.137  13.358  16.681  0.00  0.00    +0.000 HD
ENDBRANCH  14  20
BRANCH   1  23
ATOM     23  C   UNL     1      -4.814  13.978  21.952  0.00  0.00    +0.000 C 
BRANCH  23  24
ATOM     24  C   UNL     1      -5.635  13.130  22.950  0.00  0.00    +0.000 C 
BRANCH  24  26
ATOM     25  C   UNL     1      -7.846  12.122  23.114  0.00  0.00    +0.000 C 
ATOM     26  N   UNL     1      -7.095  13.362  22.909  0.00  0.00    +0.000 NA
ATOM     27  C   UNL     1      -7.466  14.345  23.930  0.00  0.00    +0.000 C 
ENDBRANCH  24  26
ENDBRANCH  23  24
ENDBRANCH   1  23
TORSDOF 4
ENDMDL
