MODEL 1
REMARK VINA RESULT:      -7.9      0.000      0.000
REMARK  Name = 
REMARK  9 active torsions:
REMARK  status: ('A' for Active; 'I' for Inactive)
REMARK    1  A    between atoms: C_1  and  C_2
REMARK    2  A    between atoms: C_2  and  O_3
REMARK    3  A    between atoms: O_3  and  C_4
REMARK    4  A    between atoms: C_4  and  C_6
REMARK    5  A    between atoms: C_8  and  SE_9
REMARK    6  A    between atoms: SE_9  and  C_10
REMARK    7  A    between atoms: C_10  and  C_11
REMARK    8  A    between atoms: C_19  and  O_20
REMARK    9  A    between atoms: O_20  and  C_21
REMARK                            x       y       z     vdW  Elec       q    Type
REMARK                         _______ _______ _______ _____ _____    ______ ____
ROOT
ATOM      1  C   UNL     1       7.053   6.132  16.958  0.00  0.00    +0.000 A 
ATOM      2  C   UNL     1       5.841   5.488  17.252  0.00  0.00    +0.000 A 
ATOM      3  C   UNL     1       5.204   4.706  16.276  0.00  0.00    +0.000 A 
ATOM      4  C   UNL     1       5.812   4.564  15.003  0.00  0.00    +0.000 A 
ATOM      5  C   UNL     1       5.254   3.772  13.978  0.00  0.00    +0.000 A 
ATOM      6  C   UNL     1       5.900   3.634  12.739  0.00  0.00    +0.000 A 
ATOM      7  C   UNL     1       7.121   4.300  12.519  0.00  0.00    +0.000 A 
ATOM      8  C   UNL     1       7.680   5.092  13.522  0.00  0.00    +0.000 A 
ATOM      9  C   UNL     1       7.036   5.226  14.757  0.00  0.00    +0.000 A 
ATOM     10  N   UNL     1       7.608   5.985  15.727  0.00  0.00    +0.000 NA
ENDROOT
BRANCH   1  11
ATOM     11  C   UNL     1       7.759   6.944  17.971  0.00  0.00    +0.000 C 
ATOM     12  O   UNL     1       8.107   6.418  19.018  0.00  0.00    +0.000 OA
BRANCH  11  13
ATOM     13  O   UNL     1       7.988   8.267  17.748  0.00  0.00    +0.000 OA
BRANCH  13  15
ATOM     14  C   UNL     1       8.766  10.501  17.993  0.00  0.00    +0.000 C 
ATOM     15  C   UNL     1       8.644   9.121  18.619  0.00  0.00    +0.000 C 
ENDBRANCH  13  15
ENDBRANCH  11  13
ENDBRANCH   1  11
BRANCH   6  16
ATOM     16  O   UNL     1       5.319   2.847  11.794  0.00  0.00    +0.000 OA
ATOM     17  C   UNL     1       4.113   3.090  11.165  0.00  0.00    +0.000 C 
ENDBRANCH   6  16
BRANCH   3  18
ATOM     18 SE   UNL     1       3.565   3.768  16.748  0.00  0.00    +0.000 Se
BRANCH  18  19
ATOM     19  C   UNL     1       4.160   2.941  18.428  0.00  0.00    +0.000 C 
BRANCH  19  20
ATOM     20  C   UNL     1       3.108   3.005  19.497  0.00  0.00    +0.000 A 
ATOM     21  C   UNL     1       1.850   3.563  19.216  0.00  0.00    +0.000 A 
ATOM     22  C   UNL     1       0.869   3.624  20.209  0.00  0.00    +0.000 A 
ATOM     23  C   UNL     1       1.134   3.121  21.486  0.00  0.00    +0.000 A 
ATOM     24  C   UNL     1       2.379   2.553  21.770  0.00  0.00    +0.000 A 
ATOM     25  C   UNL     1       3.364   2.494  20.780  0.00  0.00    +0.000 A 
ENDBRANCH  19  20
ENDBRANCH  18  19
ENDBRANCH   3  18
TORSDOF 7
ENDMDL
MODEL 2
REMARK VINA RESULT:      -7.7      0.795      1.057
REMARK  Name = 
REMARK  9 active torsions:
REMARK  status: ('A' for Active; 'I' for Inactive)
REMARK    1  A    between atoms: C_1  and  C_2
REMARK    2  A    between atoms: C_2  and  O_3
REMARK    3  A    between atoms: O_3  and  C_4
REMARK    4  A    between atoms: C_4  and  C_6
REMARK    5  A    between atoms: C_8  and  SE_9
REMARK    6  A    between atoms: SE_9  and  C_10
REMARK    7  A    between atoms: C_10  and  C_11
REMARK    8  A    between atoms: C_19  and  O_20
REMARK    9  A    between atoms: O_20  and  C_21
REMARK                            x       y       z     vdW  Elec       q    Type
REMARK                         _______ _______ _______ _____ _____    ______ ____
ROOT
ATOM      1  C   UNL     1       7.007   6.067  16.928  0.00  0.00    +0.000 A 
ATOM      2  C   UNL     1       5.806   5.394  17.199  0.00  0.00    +0.000 A 
ATOM      3  C   UNL     1       5.192   4.620  16.202  0.00  0.00    +0.000 A 
ATOM      4  C   UNL     1       5.812   4.516  14.931  0.00  0.00    +0.000 A 
ATOM      5  C   UNL     1       5.277   3.734  13.886  0.00  0.00    +0.000 A 
ATOM      6  C   UNL     1       5.935   3.634  12.650  0.00  0.00    +0.000 A 
ATOM      7  C   UNL     1       7.144   4.329  12.453  0.00  0.00    +0.000 A 
ATOM      8  C   UNL     1       7.680   5.111  13.477  0.00  0.00    +0.000 A 
ATOM      9  C   UNL     1       7.025   5.206  14.709  0.00  0.00    +0.000 A 
ATOM     10  N   UNL     1       7.574   5.956  15.699  0.00  0.00    +0.000 NA
ENDROOT
BRANCH   1  11
ATOM     11  C   UNL     1       7.690   6.871  17.963  0.00  0.00    +0.000 C 
ATOM     12  O   UNL     1       7.825   6.406  19.086  0.00  0.00    +0.000 OA
BRANCH  11  13
ATOM     13  O   UNL     1       8.132   8.126  17.673  0.00  0.00    +0.000 OA
BRANCH  13  15
ATOM     14  C   UNL     1       8.591  10.432  18.028  0.00  0.00    +0.000 C 
ATOM     15  C   UNL     1       8.651   9.021  18.593  0.00  0.00    +0.000 C 
ENDBRANCH  13  15
ENDBRANCH  11  13
ENDBRANCH   1  11
BRANCH   6  16
ATOM     16  O   UNL     1       5.376   2.857  11.684  0.00  0.00    +0.000 OA
ATOM     17  C   UNL     1       4.119   3.020  11.137  0.00  0.00    +0.000 C 
ENDBRANCH   6  16
BRANCH   3  18
ATOM     18 SE   UNL     1       3.568   3.641  16.642  0.00  0.00    +0.000 Se
BRANCH  18  19
ATOM     19  C   UNL     1       2.793   4.900  17.937  0.00  0.00    +0.000 C 
BRANCH  19  20
ATOM     20  C   UNL     1       2.264   4.206  19.158  0.00  0.00    +0.000 A 
ATOM     21  C   UNL     1       2.662   4.628  20.438  0.00  0.00    +0.000 A 
ATOM     22  C   UNL     1       2.170   3.982  21.576  0.00  0.00    +0.000 A 
ATOM     23  C   UNL     1       1.273   2.919  21.445  0.00  0.00    +0.000 A 
ATOM     24  C   UNL     1       0.863   2.502  20.176  0.00  0.00    +0.000 A 
ATOM     25  C   UNL     1       1.355   3.141  19.035  0.00  0.00    +0.000 A 
ENDBRANCH  19  20
ENDBRANCH  18  19
ENDBRANCH   3  18
TORSDOF 7
ENDMDL
MODEL 3
REMARK VINA RESULT:      -7.7      0.977      1.072
REMARK  Name = 
REMARK  9 active torsions:
REMARK  status: ('A' for Active; 'I' for Inactive)
REMARK    1  A    between atoms: C_1  and  C_2
REMARK    2  A    between atoms: C_2  and  O_3
REMARK    3  A    between atoms: O_3  and  C_4
REMARK    4  A    between atoms: C_4  and  C_6
REMARK    5  A    between atoms: C_8  and  SE_9
REMARK    6  A    between atoms: SE_9  and  C_10
REMARK    7  A    between atoms: C_10  and  C_11
REMARK    8  A    between atoms: C_19  and  O_20
REMARK    9  A    between atoms: O_20  and  C_21
REMARK                            x       y       z     vdW  Elec       q    Type
REMARK                         _______ _______ _______ _____ _____    ______ ____
ROOT
ATOM      1  C   UNL     1       6.965   5.719  17.232  0.00  0.00    +0.000 A 
ATOM      2  C   UNL     1       5.747   5.048  17.417  0.00  0.00    +0.000 A 
ATOM      3  C   UNL     1       5.140   4.382  16.341  0.00  0.00    +0.000 A 
ATOM      4  C   UNL     1       5.784   4.384  15.077  0.00  0.00    +0.000 A 
ATOM      5  C   UNL     1       5.257   3.713  13.954  0.00  0.00    +0.000 A 
ATOM      6  C   UNL     1       5.938   3.716  12.726  0.00  0.00    +0.000 A 
ATOM      7  C   UNL     1       7.163   4.403  12.618  0.00  0.00    +0.000 A 
ATOM      8  C   UNL     1       7.692   5.076  13.720  0.00  0.00    +0.000 A 
ATOM      9  C   UNL     1       7.013   5.069  14.944  0.00  0.00    +0.000 A 
ATOM     10  N   UNL     1       7.555   5.713  16.008  0.00  0.00    +0.000 NA
ENDROOT
BRANCH   1  11
ATOM     11  C   UNL     1       7.640   6.411  18.350  0.00  0.00    +0.000 C 
ATOM     12  O   UNL     1       7.539   5.955  19.480  0.00  0.00    +0.000 OA
BRANCH  11  13
ATOM     13  O   UNL     1       8.337   7.559  18.123  0.00  0.00    +0.000 OA
BRANCH  13  15
ATOM     14  C   UNL     1       8.666   9.904  18.335  0.00  0.00    +0.000 C 
ATOM     15  C   UNL     1       7.774   8.786  17.817  0.00  0.00    +0.000 C 
ENDBRANCH  13  15
ENDBRANCH  11  13
ENDBRANCH   1  11
BRANCH   6  16
ATOM     16  O   UNL     1       5.386   3.043  11.682  0.00  0.00    +0.000 OA
ATOM     17  C   UNL     1       5.650   1.733  11.330  0.00  0.00    +0.000 C 
ENDBRANCH   6  16
BRANCH   3  18
ATOM     18 SE   UNL     1       3.491   3.398  16.657  0.00  0.00    +0.000 Se
BRANCH  18  19
ATOM     19  C   UNL     1       2.568   4.705  17.797  0.00  0.00    +0.000 C 
BRANCH  19  20
ATOM     20  C   UNL     1       2.229   4.144  19.147  0.00  0.00    +0.000 A 
ATOM     21  C   UNL     1       1.479   2.961  19.251  0.00  0.00    +0.000 A 
ATOM     22  C   UNL     1       1.162   2.436  20.507  0.00  0.00    +0.000 A 
ATOM     23  C   UNL     1       1.599   3.083  21.666  0.00  0.00    +0.000 A 
ATOM     24  C   UNL     1       2.357   4.253  21.570  0.00  0.00    +0.000 A 
ATOM     25  C   UNL     1       2.673   4.784  20.316  0.00  0.00    +0.000 A 
ENDBRANCH  19  20
ENDBRANCH  18  19
ENDBRANCH   3  18
TORSDOF 7
ENDMDL
MODEL 4
REMARK VINA RESULT:      -7.5      4.540      6.961
REMARK  Name = 
REMARK  9 active torsions:
REMARK  status: ('A' for Active; 'I' for Inactive)
REMARK    1  A    between atoms: C_1  and  C_2
REMARK    2  A    between atoms: C_2  and  O_3
REMARK    3  A    between atoms: O_3  and  C_4
REMARK    4  A    between atoms: C_4  and  C_6
REMARK    5  A    between atoms: C_8  and  SE_9
REMARK    6  A    between atoms: SE_9  and  C_10
REMARK    7  A    between atoms: C_10  and  C_11
REMARK    8  A    between atoms: C_19  and  O_20
REMARK    9  A    between atoms: O_20  and  C_21
REMARK                            x       y       z     vdW  Elec       q    Type
REMARK                         _______ _______ _______ _____ _____    ______ ____
ROOT
ATOM      1  C   UNL     1       2.843   4.067  18.315  0.00  0.00    +0.000 A 
ATOM      2  C   UNL     1       2.351   5.377  18.212  0.00  0.00    +0.000 A 
ATOM      3  C   UNL     1       3.230   6.442  17.962  0.00  0.00    +0.000 A 
ATOM      4  C   UNL     1       4.612   6.171  17.798  0.00  0.00    +0.000 A 
ATOM      5  C   UNL     1       5.556   7.179  17.514  0.00  0.00    +0.000 A 
ATOM      6  C   UNL     1       6.913   6.866  17.332  0.00  0.00    +0.000 A 
ATOM      7  C   UNL     1       7.334   5.527  17.439  0.00  0.00    +0.000 A 
ATOM      8  C   UNL     1       6.410   4.521  17.727  0.00  0.00    +0.000 A 
ATOM      9  C   UNL     1       5.058   4.833  17.904  0.00  0.00    +0.000 A 
ATOM     10  N   UNL     1       4.173   3.837  18.163  0.00  0.00    +0.000 NA
ENDROOT
BRANCH   1  11
ATOM     11  C   UNL     1       1.941   2.921  18.556  0.00  0.00    +0.000 C 
ATOM     12  O   UNL     1       2.067   1.912  17.877  0.00  0.00    +0.000 OA
BRANCH  11  13
ATOM     13  O   UNL     1       0.963   3.007  19.499  0.00  0.00    +0.000 OA
BRANCH  13  15
ATOM     14  C   UNL     1       2.035   2.626  21.586  0.00  0.00    +0.000 C 
ATOM     15  C   UNL     1       1.125   3.530  20.771  0.00  0.00    +0.000 C 
ENDBRANCH  13  15
ENDBRANCH  11  13
ENDBRANCH   1  11
BRANCH   6  16
ATOM     16  O   UNL     1       7.774   7.880  17.049  0.00  0.00    +0.000 OA
ATOM     17  C   UNL     1       8.170   8.876  17.921  0.00  0.00    +0.000 C 
ENDBRANCH   6  16
BRANCH   3  18
ATOM     18 SE   UNL     1       2.497   8.232  17.749  0.00  0.00    +0.000 Se
BRANCH  18  19
ATOM     19  C   UNL     1       1.776   8.485  19.560  0.00  0.00    +0.000 C 
BRANCH  19  20
ATOM     20  C   UNL     1       0.708   9.538  19.604  0.00  0.00    +0.000 A 
ATOM     21  C   UNL     1       0.259  10.037  20.839  0.00  0.00    +0.000 A 
ATOM     22  C   UNL     1      -0.735  11.018  20.883  0.00  0.00    +0.000 A 
ATOM     23  C   UNL     1      -1.282  11.514  19.696  0.00  0.00    +0.000 A 
ATOM     24  C   UNL     1      -0.831  11.032  18.464  0.00  0.00    +0.000 A 
ATOM     25  C   UNL     1       0.160  10.048  18.415  0.00  0.00    +0.000 A 
ENDBRANCH  19  20
ENDBRANCH  18  19
ENDBRANCH   3  18
TORSDOF 7
ENDMDL
MODEL 5
REMARK VINA RESULT:      -7.3      3.976      5.893
REMARK  Name = 
REMARK  9 active torsions:
REMARK  status: ('A' for Active; 'I' for Inactive)
REMARK    1  A    between atoms: C_1  and  C_2
REMARK    2  A    between atoms: C_2  and  O_3
REMARK    3  A    between atoms: O_3  and  C_4
REMARK    4  A    between atoms: C_4  and  C_6
REMARK    5  A    between atoms: C_8  and  SE_9
REMARK    6  A    between atoms: SE_9  and  C_10
REMARK    7  A    between atoms: C_10  and  C_11
REMARK    8  A    between atoms: C_19  and  O_20
REMARK    9  A    between atoms: O_20  and  C_21
REMARK                            x       y       z     vdW  Elec       q    Type
REMARK                         _______ _______ _______ _____ _____    ______ ____
ROOT
ATOM      1  C   UNL     1       5.783   5.881  17.089  0.00  0.00    +0.000 A 
ATOM      2  C   UNL     1       4.747   6.817  17.227  0.00  0.00    +0.000 A 
ATOM      3  C   UNL     1       3.583   6.481  17.935  0.00  0.00    +0.000 A 
ATOM      4  C   UNL     1       3.481   5.193  18.520  0.00  0.00    +0.000 A 
ATOM      5  C   UNL     1       2.360   4.787  19.273  0.00  0.00    +0.000 A 
ATOM      6  C   UNL     1       2.307   3.513  19.859  0.00  0.00    +0.000 A 
ATOM      7  C   UNL     1       3.389   2.628  19.688  0.00  0.00    +0.000 A 
ATOM      8  C   UNL     1       4.502   3.015  18.940  0.00  0.00    +0.000 A 
ATOM      9  C   UNL     1       4.554   4.287  18.359  0.00  0.00    +0.000 A 
ATOM     10  N   UNL     1       5.654   4.651  17.652  0.00  0.00    +0.000 NA
ENDROOT
BRANCH   1  11
ATOM     11  C   UNL     1       7.030   6.212  16.368  0.00  0.00    +0.000 C 
ATOM     12  O   UNL     1       7.415   5.473  15.473  0.00  0.00    +0.000 OA
BRANCH  11  13
ATOM     13  O   UNL     1       7.755   7.309  16.724  0.00  0.00    +0.000 OA
BRANCH  13  15
ATOM     14  C   UNL     1       8.290   9.190  18.075  0.00  0.00    +0.000 C 
ATOM     15  C   UNL     1       8.036   7.692  18.024  0.00  0.00    +0.000 C 
ENDBRANCH  13  15
ENDBRANCH  11  13
ENDBRANCH   1  11
BRANCH   6  16
ATOM     16  O   UNL     1       1.204   3.182  20.584  0.00  0.00    +0.000 OA
ATOM     17  C   UNL     1       1.200   2.598  21.835  0.00  0.00    +0.000 C 
ENDBRANCH   6  16
BRANCH   3  18
ATOM     18 SE   UNL     1       2.204   7.834  18.169  0.00  0.00    +0.000 Se
BRANCH  18  19
ATOM     19  C   UNL     1       2.028   7.754  20.125  0.00  0.00    +0.000 C 
BRANCH  19  20
ATOM     20  C   UNL     1       1.112   8.818  20.656  0.00  0.00    +0.000 A 
ATOM     21  C   UNL     1       0.530   9.751  19.781  0.00  0.00    +0.000 A 
ATOM     22  C   UNL     1      -0.323  10.742  20.274  0.00  0.00    +0.000 A 
ATOM     23  C   UNL     1      -0.609  10.803  21.641  0.00  0.00    +0.000 A 
ATOM     24  C   UNL     1      -0.045   9.871  22.516  0.00  0.00    +0.000 A 
ATOM     25  C   UNL     1       0.813   8.881  22.028  0.00  0.00    +0.000 A 
ENDBRANCH  19  20
ENDBRANCH  18  19
ENDBRANCH   3  18
TORSDOF 7
ENDMDL
MODEL 6
REMARK VINA RESULT:      -7.3      1.274      1.558
REMARK  Name = 
REMARK  9 active torsions:
REMARK  status: ('A' for Active; 'I' for Inactive)
REMARK    1  A    between atoms: C_1  and  C_2
REMARK    2  A    between atoms: C_2  and  O_3
REMARK    3  A    between atoms: O_3  and  C_4
REMARK    4  A    between atoms: C_4  and  C_6
REMARK    5  A    between atoms: C_8  and  SE_9
REMARK    6  A    between atoms: SE_9  and  C_10
REMARK    7  A    between atoms: C_10  and  C_11
REMARK    8  A    between atoms: C_19  and  O_20
REMARK    9  A    between atoms: O_20  and  C_21
REMARK                            x       y       z     vdW  Elec       q    Type
REMARK                         _______ _______ _______ _____ _____    ______ ____
ROOT
ATOM      1  C   UNL     1       6.988   5.957  17.044  0.00  0.00    +0.000 A 
ATOM      2  C   UNL     1       5.996   5.031  17.404  0.00  0.00    +0.000 A 
ATOM      3  C   UNL     1       5.470   4.154  16.443  0.00  0.00    +0.000 A 
ATOM      4  C   UNL     1       5.968   4.206  15.116  0.00  0.00    +0.000 A 
ATOM      5  C   UNL     1       5.516   3.339  14.099  0.00  0.00    +0.000 A 
ATOM      6  C   UNL     1       6.053   3.405  12.804  0.00  0.00    +0.000 A 
ATOM      7  C   UNL     1       7.054   4.352  12.518  0.00  0.00    +0.000 A 
ATOM      8  C   UNL     1       7.505   5.220  13.513  0.00  0.00    +0.000 A 
ATOM      9  C   UNL     1       6.972   5.152  14.805  0.00  0.00    +0.000 A 
ATOM     10  N   UNL     1       7.439   5.991  15.763  0.00  0.00    +0.000 NA
ENDROOT
BRANCH   1  11
ATOM     11  C   UNL     1       7.577   6.879  18.037  0.00  0.00    +0.000 C 
ATOM     12  O   UNL     1       8.231   6.418  18.963  0.00  0.00    +0.000 OA
BRANCH  11  13
ATOM     13  O   UNL     1       7.365   8.220  17.936  0.00  0.00    +0.000 OA
BRANCH  13  15
ATOM     14  C   UNL     1       8.893   9.798  18.846  0.00  0.00    +0.000 C 
ATOM     15  C   UNL     1       8.325   9.156  17.590  0.00  0.00    +0.000 C 
ENDBRANCH  13  15
ENDBRANCH  11  13
ENDBRANCH   1  11
BRANCH   6  16
ATOM     16  O   UNL     1       5.585   2.535  11.869  0.00  0.00    +0.000 OA
ATOM     17  C   UNL     1       6.313   1.537  11.251  0.00  0.00    +0.000 C 
ENDBRANCH   6  16
BRANCH   3  18
ATOM     18 SE   UNL     1       4.154   2.833  17.000  0.00  0.00    +0.000 Se
BRANCH  18  19
ATOM     19  C   UNL     1       2.547   3.963  16.948  0.00  0.00    +0.000 C 
BRANCH  19  20
ATOM     20  C   UNL     1       2.224   4.553  18.290  0.00  0.00    +0.000 A 
ATOM     21  C   UNL     1       2.618   5.867  18.597  0.00  0.00    +0.000 A 
ATOM     22  C   UNL     1       2.318   6.418  19.846  0.00  0.00    +0.000 A 
ATOM     23  C   UNL     1       1.617   5.667  20.792  0.00  0.00    +0.000 A 
ATOM     24  C   UNL     1       1.211   4.364  20.490  0.00  0.00    +0.000 A 
ATOM     25  C   UNL     1       1.512   3.807  19.244  0.00  0.00    +0.000 A 
ENDBRANCH  19  20
ENDBRANCH  18  19
ENDBRANCH   3  18
TORSDOF 7
ENDMDL
MODEL 7
REMARK VINA RESULT:      -7.3      4.005      6.364
REMARK  Name = 
REMARK  9 active torsions:
REMARK  status: ('A' for Active; 'I' for Inactive)
REMARK    1  A    between atoms: C_1  and  C_2
REMARK    2  A    between atoms: C_2  and  O_3
REMARK    3  A    between atoms: O_3  and  C_4
REMARK    4  A    between atoms: C_4  and  C_6
REMARK    5  A    between atoms: C_8  and  SE_9
REMARK    6  A    between atoms: SE_9  and  C_10
REMARK    7  A    between atoms: C_10  and  C_11
REMARK    8  A    between atoms: C_19  and  O_20
REMARK    9  A    between atoms: O_20  and  C_21
REMARK                            x       y       z     vdW  Elec       q    Type
REMARK                         _______ _______ _______ _____ _____    ______ ____
ROOT
ATOM      1  C   UNL     1       5.816   5.681  17.190  0.00  0.00    +0.000 A 
ATOM      2  C   UNL     1       4.795   6.641  17.259  0.00  0.00    +0.000 A 
ATOM      3  C   UNL     1       3.638   6.385  18.012  0.00  0.00    +0.000 A 
ATOM      4  C   UNL     1       3.528   5.157  18.711  0.00  0.00    +0.000 A 
ATOM      5  C   UNL     1       2.413   4.835  19.513  0.00  0.00    +0.000 A 
ATOM      6  C   UNL     1       2.353   3.619  20.212  0.00  0.00    +0.000 A 
ATOM      7  C   UNL     1       3.421   2.707  20.104  0.00  0.00    +0.000 A 
ATOM      8  C   UNL     1       4.527   3.010  19.308  0.00  0.00    +0.000 A 
ATOM      9  C   UNL     1       4.586   4.224  18.615  0.00  0.00    +0.000 A 
ATOM     10  N   UNL     1       5.679   4.508  17.863  0.00  0.00    +0.000 NA
ENDROOT
BRANCH   1  11
ATOM     11  C   UNL     1       7.055   5.928  16.425  0.00  0.00    +0.000 C 
ATOM     12  O   UNL     1       7.658   6.979  16.591  0.00  0.00    +0.000 OA
BRANCH  11  13
ATOM     13  O   UNL     1       7.498   5.009  15.523  0.00  0.00    +0.000 OA
BRANCH  13  15
ATOM     14  C   UNL     1       6.054   3.916  13.984  0.00  0.00    +0.000 C 
ATOM     15  C   UNL     1       7.137   4.963  14.187  0.00  0.00    +0.000 C 
ENDBRANCH  13  15
ENDBRANCH  11  13
ENDBRANCH   1  11
BRANCH   6  16
ATOM     16  O   UNL     1       1.258   3.370  20.979  0.00  0.00    +0.000 OA
ATOM     17  C   UNL     1       1.198   2.500  22.050  0.00  0.00    +0.000 C 
ENDBRANCH   6  16
BRANCH   3  18
ATOM     18 SE   UNL     1       2.280   7.774  18.145  0.00  0.00    +0.000 Se
BRANCH  18  19
ATOM     19  C   UNL     1       2.015   7.756  20.092  0.00  0.00    +0.000 C 
BRANCH  19  20
ATOM     20  C   UNL     1       1.098   8.851  20.551  0.00  0.00    +0.000 A 
ATOM     21  C   UNL     1       0.638   9.816  19.638  0.00  0.00    +0.000 A 
ATOM     22  C   UNL     1      -0.216  10.837  20.063  0.00  0.00    +0.000 A 
ATOM     23  C   UNL     1      -0.625  10.897  21.398  0.00  0.00    +0.000 A 
ATOM     24  C   UNL     1      -0.182   9.934  22.309  0.00  0.00    +0.000 A 
ATOM     25  C   UNL     1       0.676   8.914  21.889  0.00  0.00    +0.000 A 
ENDBRANCH  19  20
ENDBRANCH  18  19
ENDBRANCH   3  18
TORSDOF 7
ENDMDL
MODEL 8
REMARK VINA RESULT:      -7.3      2.689      5.523
REMARK  Name = 
REMARK  9 active torsions:
REMARK  status: ('A' for Active; 'I' for Inactive)
REMARK    1  A    between atoms: C_1  and  C_2
REMARK    2  A    between atoms: C_2  and  O_3
REMARK    3  A    between atoms: O_3  and  C_4
REMARK    4  A    between atoms: C_4  and  C_6
REMARK    5  A    between atoms: C_8  and  SE_9
REMARK    6  A    between atoms: SE_9  and  C_10
REMARK    7  A    between atoms: C_10  and  C_11
REMARK    8  A    between atoms: C_19  and  O_20
REMARK    9  A    between atoms: O_20  and  C_21
REMARK                            x       y       z     vdW  Elec       q    Type
REMARK                         _______ _______ _______ _____ _____    ______ ____
ROOT
ATOM      1  C   UNL     1       5.906   5.131  16.030  0.00  0.00    +0.000 A 
ATOM      2  C   UNL     1       6.121   4.369  17.189  0.00  0.00    +0.000 A 
ATOM      3  C   UNL     1       5.380   4.632  18.352  0.00  0.00    +0.000 A 
ATOM      4  C   UNL     1       4.404   5.660  18.330  0.00  0.00    +0.000 A 
ATOM      5  C   UNL     1       3.596   5.966  19.444  0.00  0.00    +0.000 A 
ATOM      6  C   UNL     1       2.621   6.974  19.375  0.00  0.00    +0.000 A 
ATOM      7  C   UNL     1       2.453   7.691  18.174  0.00  0.00    +0.000 A 
ATOM      8  C   UNL     1       3.251   7.402  17.066  0.00  0.00    +0.000 A 
ATOM      9  C   UNL     1       4.219   6.395  17.136  0.00  0.00    +0.000 A 
ATOM     10  N   UNL     1       4.970   6.116  16.041  0.00  0.00    +0.000 NA
ENDROOT
BRANCH   1  11
ATOM     11  C   UNL     1       6.654   4.865  14.784  0.00  0.00    +0.000 C 
ATOM     12  O   UNL     1       7.595   5.587  14.489  0.00  0.00    +0.000 OA
BRANCH  11  13
ATOM     13  O   UNL     1       6.274   3.849  13.961  0.00  0.00    +0.000 OA
BRANCH  13  15
ATOM     14  C   UNL     1       5.387   3.069  11.898  0.00  0.00    +0.000 C 
ATOM     15  C   UNL     1       6.528   3.785  12.602  0.00  0.00    +0.000 C 
ENDBRANCH  13  15
ENDBRANCH  11  13
ENDBRANCH   1  11
BRANCH   6  16
ATOM     16  O   UNL     1       1.865   7.216  20.479  0.00  0.00    +0.000 OA
ATOM     17  C   UNL     1       1.281   8.422  20.815  0.00  0.00    +0.000 C 
ENDBRANCH   6  16
BRANCH   3  18
ATOM     18 SE   UNL     1       5.654   3.502  19.913  0.00  0.00    +0.000 Se
BRANCH  18  19
ATOM     19  C   UNL     1       4.418   2.044  19.456  0.00  0.00    +0.000 C 
BRANCH  19  20
ATOM     20  C   UNL     1       2.981   2.450  19.603  0.00  0.00    +0.000 A 
ATOM     21  C   UNL     1       2.141   2.497  18.478  0.00  0.00    +0.000 A 
ATOM     22  C   UNL     1       0.802   2.874  18.613  0.00  0.00    +0.000 A 
ATOM     23  C   UNL     1       0.290   3.199  19.872  0.00  0.00    +0.000 A 
ATOM     24  C   UNL     1       1.116   3.142  20.999  0.00  0.00    +0.000 A 
ATOM     25  C   UNL     1       2.457   2.769  20.867  0.00  0.00    +0.000 A 
ENDBRANCH  19  20
ENDBRANCH  18  19
ENDBRANCH   3  18
TORSDOF 7
ENDMDL
MODEL 9
REMARK VINA RESULT:      -7.2      0.868      1.284
REMARK  Name = 
REMARK  9 active torsions:
REMARK  status: ('A' for Active; 'I' for Inactive)
REMARK    1  A    between atoms: C_1  and  C_2
REMARK    2  A    between atoms: C_2  and  O_3
REMARK    3  A    between atoms: O_3  and  C_4
REMARK    4  A    between atoms: C_4  and  C_6
REMARK    5  A    between atoms: C_8  and  SE_9
REMARK    6  A    between atoms: SE_9  and  C_10
REMARK    7  A    between atoms: C_10  and  C_11
REMARK    8  A    between atoms: C_19  and  O_20
REMARK    9  A    between atoms: O_20  and  C_21
REMARK                            x       y       z     vdW  Elec       q    Type
REMARK                         _______ _______ _______ _____ _____    ______ ____
ROOT
ATOM      1  C   UNL     1       6.997   5.207  17.191  0.00  0.00    +0.000 A 
ATOM      2  C   UNL     1       5.712   4.662  17.332  0.00  0.00    +0.000 A 
ATOM      3  C   UNL     1       5.038   4.150  16.213  0.00  0.00    +0.000 A 
ATOM      4  C   UNL     1       5.681   4.175  14.949  0.00  0.00    +0.000 A 
ATOM      5  C   UNL     1       5.086   3.653  13.782  0.00  0.00    +0.000 A 
ATOM      6  C   UNL     1       5.767   3.672  12.554  0.00  0.00    +0.000 A 
ATOM      7  C   UNL     1       7.061   4.225  12.490  0.00  0.00    +0.000 A 
ATOM      8  C   UNL     1       7.658   4.751  13.637  0.00  0.00    +0.000 A 
ATOM      9  C   UNL     1       6.979   4.728  14.860  0.00  0.00    +0.000 A 
ATOM     10  N   UNL     1       7.586   5.226  15.967  0.00  0.00    +0.000 NA
ENDROOT
BRANCH   1  11
ATOM     11  C   UNL     1       7.742   5.734  18.353  0.00  0.00    +0.000 C 
ATOM     12  O   UNL     1       8.218   4.949  19.161  0.00  0.00    +0.000 OA
BRANCH  11  13
ATOM     13  O   UNL     1       7.866   7.078  18.535  0.00  0.00    +0.000 OA
BRANCH  13  15
ATOM     14  C   UNL     1       8.306   9.355  18.012  0.00  0.00    +0.000 C 
ATOM     15  C   UNL     1       7.718   8.033  17.543  0.00  0.00    +0.000 C 
ENDBRANCH  13  15
ENDBRANCH  11  13
ENDBRANCH   1  11
BRANCH   6  16
ATOM     16  O   UNL     1       5.146   3.143  11.466  0.00  0.00    +0.000 OA
ATOM     17  C   UNL     1       3.823   3.330  11.115  0.00  0.00    +0.000 C 
ENDBRANCH   6  16
BRANCH   3  18
ATOM     18 SE   UNL     1       3.289   3.334  16.464  0.00  0.00    +0.000 Se
BRANCH  18  19
ATOM     19  C   UNL     1       3.639   2.371  18.141  0.00  0.00    +0.000 C 
BRANCH  19  20
ATOM     20  C   UNL     1       3.043   3.066  19.330  0.00  0.00    +0.000 A 
ATOM     21  C   UNL     1       2.888   2.378  20.545  0.00  0.00    +0.000 A 
ATOM     22  C   UNL     1       2.332   3.023  21.654  0.00  0.00    +0.000 A 
ATOM     23  C   UNL     1       1.937   4.360  21.560  0.00  0.00    +0.000 A 
ATOM     24  C   UNL     1       2.099   5.055  20.358  0.00  0.00    +0.000 A 
ATOM     25  C   UNL     1       2.650   4.413  19.246  0.00  0.00    +0.000 A 
ENDBRANCH  19  20
ENDBRANCH  18  19
ENDBRANCH   3  18
TORSDOF 7
ENDMDL
