MODEL 1
REMARK VINA RESULT:      -7.1      0.000      0.000
REMARK  Name = 
REMARK  6 active torsions:
REMARK  status: ('A' for Active; 'I' for Inactive)
REMARK    1  A    between atoms: C_1  and  O_2
REMARK    2  A    between atoms: O_2  and  C_3
REMARK    3  A    between atoms: C_6  and  C_7
REMARK    4  A    between atoms: C_7  and  N_8
REMARK    5  A    between atoms: C_9  and  S_10
REMARK    6  A    between atoms: N_11  and  C_12
REMARK                            x       y       z     vdW  Elec       q    Type
REMARK                         _______ _______ _______ _____ _____    ______ ____
ROOT
ATOM      1  N   UNL     1       3.726   4.997  18.619  0.00  0.00    +0.000 NA
ATOM      2  C   UNL     1       4.082   3.766  18.616  0.00  0.00    +0.000 C 
ATOM      3  N   UNL     1       4.719   3.147  17.567  0.00  0.00    +0.000 N 
ATOM      4  H   UNL     1       4.830   2.149  17.670  0.00  0.00    +0.000 HD
ENDROOT
BRANCH   3   5
ATOM      5  C   UNL     1       5.473   3.739  16.538  0.00  0.00    +0.000 A 
ATOM      6  C   UNL     1       6.469   4.669  16.880  0.00  0.00    +0.000 A 
ATOM      7  C   UNL     1       7.276   5.258  15.901  0.00  0.00    +0.000 A 
ATOM      8  C   UNL     1       7.105   4.911  14.566  0.00  0.00    +0.000 A 
ATOM      9  F   UNL     1       7.892   5.483  13.643  0.00  0.00    +0.000 F 
ATOM     10  C   UNL     1       6.136   3.987  14.205  0.00  0.00    +0.000 A 
ATOM     11 CL   UNL     1       5.913   3.546  12.552  0.00  0.00    +0.000 Cl
ATOM     12  C   UNL     1       5.329   3.404  15.182  0.00  0.00    +0.000 A 
ENDBRANCH   3   5
BRANCH   2  13
ATOM     13  S   UNL     1       3.810   2.633  19.932  0.00  0.00    +0.000 S 
ATOM     14  H   UNL     1       3.108   1.720  19.254  0.00  0.00    +0.000 HD
ENDBRANCH   2  13
BRANCH   1  15
ATOM     15  C   UNL     1       3.107   5.701  19.726  0.00  0.00    +0.000 C 
BRANCH  15  19
ATOM     16  C   UNL     1       1.345   9.520  18.723  0.00  0.00    +0.000 A 
ATOM     17  C   UNL     1       1.191   8.975  19.998  0.00  0.00    +0.000 A 
ATOM     18  C   UNL     1       1.758   7.741  20.315  0.00  0.00    +0.000 A 
ATOM     19  C   UNL     1       2.467   7.014  19.351  0.00  0.00    +0.000 A 
ATOM     20  C   UNL     1       2.621   7.568  18.072  0.00  0.00    +0.000 A 
ATOM     21  C   UNL     1       2.057   8.811  17.756  0.00  0.00    +0.000 A 
BRANCH  16  23
ATOM     22  C   UNL     1       0.528  11.509  19.701  0.00  0.00    +0.000 C 
ATOM     23  O   UNL     1       0.732  10.728  18.530  0.00  0.00    +0.000 OA
ENDBRANCH  16  23
ENDBRANCH  15  19
ENDBRANCH   1  15
TORSDOF 5
ENDMDL
MODEL 2
REMARK VINA RESULT:      -7.1      4.212      7.318
REMARK  Name = 
REMARK  6 active torsions:
REMARK  status: ('A' for Active; 'I' for Inactive)
REMARK    1  A    between atoms: C_1  and  O_2
REMARK    2  A    between atoms: O_2  and  C_3
REMARK    3  A    between atoms: C_6  and  C_7
REMARK    4  A    between atoms: C_7  and  N_8
REMARK    5  A    between atoms: C_9  and  S_10
REMARK    6  A    between atoms: N_11  and  C_12
REMARK                            x       y       z     vdW  Elec       q    Type
REMARK                         _______ _______ _______ _____ _____    ______ ____
ROOT
ATOM      1  N   UNL     1       4.672   5.456  19.371  0.00  0.00    +0.000 NA
ATOM      2  C   UNL     1       3.576   4.969  19.823  0.00  0.00    +0.000 C 
ATOM      3  N   UNL     1       2.479   5.722  20.166  0.00  0.00    +0.000 N 
ATOM      4  H   UNL     1       1.736   5.206  20.614  0.00  0.00    +0.000 HD
ENDROOT
BRANCH   3   5
ATOM      5  C   UNL     1       2.141   7.015  19.729  0.00  0.00    +0.000 A 
ATOM      6  C   UNL     1       2.345   7.345  18.378  0.00  0.00    +0.000 A 
ATOM      7  C   UNL     1       1.990   8.603  17.879  0.00  0.00    +0.000 A 
ATOM      8  C   UNL     1       1.412   9.543  18.725  0.00  0.00    +0.000 A 
ATOM      9  F   UNL     1       1.075  10.741  18.227  0.00  0.00    +0.000 F 
ATOM     10  C   UNL     1       1.191   9.236  20.060  0.00  0.00    +0.000 A 
ATOM     11 CL   UNL     1       0.474  10.392  21.121  0.00  0.00    +0.000 Cl
ATOM     12  C   UNL     1       1.550   7.983  20.557  0.00  0.00    +0.000 A 
ENDBRANCH   3   5
BRANCH   2  13
ATOM     13  S   UNL     1       3.271   3.262  20.109  0.00  0.00    +0.000 S 
ATOM     14  H   UNL     1       4.510   2.810  19.891  0.00  0.00    +0.000 HD
ENDBRANCH   2  13
BRANCH   1  15
ATOM     15  C   UNL     1       5.829   4.692  18.942  0.00  0.00    +0.000 C 
BRANCH  15  19
ATOM     16  C   UNL     1       6.390   4.353  14.668  0.00  0.00    +0.000 A 
ATOM     17  C   UNL     1       7.376   4.922  15.475  0.00  0.00    +0.000 A 
ATOM     18  C   UNL     1       7.187   5.032  16.853  0.00  0.00    +0.000 A 
ATOM     19  C   UNL     1       5.995   4.600  17.445  0.00  0.00    +0.000 A 
ATOM     20  C   UNL     1       5.009   4.027  16.629  0.00  0.00    +0.000 A 
ATOM     21  C   UNL     1       5.202   3.910  15.247  0.00  0.00    +0.000 A 
BRANCH  16  23
ATOM     22  C   UNL     1       5.883   3.438  12.549  0.00  0.00    +0.000 C 
ATOM     23  O   UNL     1       6.686   4.313  13.333  0.00  0.00    +0.000 OA
ENDBRANCH  16  23
ENDBRANCH  15  19
ENDBRANCH   1  15
TORSDOF 5
ENDMDL
MODEL 3
REMARK VINA RESULT:      -7.1      2.984      4.051
REMARK  Name = 
REMARK  6 active torsions:
REMARK  status: ('A' for Active; 'I' for Inactive)
REMARK    1  A    between atoms: C_1  and  O_2
REMARK    2  A    between atoms: O_2  and  C_3
REMARK    3  A    between atoms: C_6  and  C_7
REMARK    4  A    between atoms: C_7  and  N_8
REMARK    5  A    between atoms: C_9  and  S_10
REMARK    6  A    between atoms: N_11  and  C_12
REMARK                            x       y       z     vdW  Elec       q    Type
REMARK                         _______ _______ _______ _____ _____    ______ ____
ROOT
ATOM      1  N   UNL     1       5.033   5.880  16.638  0.00  0.00    +0.000 NA
ATOM      2  C   UNL     1       6.195   5.471  16.990  0.00  0.00    +0.000 C 
ATOM      3  N   UNL     1       7.042   4.755  16.178  0.00  0.00    +0.000 N 
ATOM      4  H   UNL     1       7.871   4.406  16.635  0.00  0.00    +0.000 HD
ENDROOT
BRANCH   3   5
ATOM      5  C   UNL     1       7.052   4.693  14.773  0.00  0.00    +0.000 A 
ATOM      6  C   UNL     1       7.937   5.525  14.067  0.00  0.00    +0.000 A 
ATOM      7  C   UNL     1       8.019   5.477  12.672  0.00  0.00    +0.000 A 
ATOM      8  C   UNL     1       7.224   4.582  11.965  0.00  0.00    +0.000 A 
ATOM      9  F   UNL     1       7.320   4.547  10.629  0.00  0.00    +0.000 F 
ATOM     10  C   UNL     1       6.350   3.743  12.641  0.00  0.00    +0.000 A 
ATOM     11 CL   UNL     1       5.358   2.627  11.777  0.00  0.00    +0.000 Cl
ATOM     12  C   UNL     1       6.267   3.796  14.032  0.00  0.00    +0.000 A 
ENDBRANCH   3   5
BRANCH   2  13
ATOM     13  S   UNL     1       6.919   5.725  18.571  0.00  0.00    +0.000 S 
ATOM     14  H   UNL     1       6.668   7.032  18.686  0.00  0.00    +0.000 HD
ENDBRANCH   2  13
BRANCH   1  15
ATOM     15  C   UNL     1       4.136   6.688  17.444  0.00  0.00    +0.000 C 
BRANCH  15  19
ATOM     16  C   UNL     1       1.554   4.334  19.991  0.00  0.00    +0.000 A 
ATOM     17  C   UNL     1       1.959   3.853  18.746  0.00  0.00    +0.000 A 
ATOM     18  C   UNL     1       2.790   4.619  17.927  0.00  0.00    +0.000 A 
ATOM     19  C   UNL     1       3.206   5.894  18.327  0.00  0.00    +0.000 A 
ATOM     20  C   UNL     1       2.796   6.371  19.581  0.00  0.00    +0.000 A 
ATOM     21  C   UNL     1       1.968   5.599  20.406  0.00  0.00    +0.000 A 
BRANCH  16  23
ATOM     22  C   UNL     1       1.379   2.613  21.601  0.00  0.00    +0.000 C 
ATOM     23  O   UNL     1       0.731   3.498  20.695  0.00  0.00    +0.000 OA
ENDBRANCH  16  23
ENDBRANCH  15  19
ENDBRANCH   1  15
TORSDOF 5
ENDMDL
MODEL 4
REMARK VINA RESULT:      -7.0      0.231      1.076
REMARK  Name = 
REMARK  6 active torsions:
REMARK  status: ('A' for Active; 'I' for Inactive)
REMARK    1  A    between atoms: C_1  and  O_2
REMARK    2  A    between atoms: O_2  and  C_3
REMARK    3  A    between atoms: C_6  and  C_7
REMARK    4  A    between atoms: C_7  and  N_8
REMARK    5  A    between atoms: C_9  and  S_10
REMARK    6  A    between atoms: N_11  and  C_12
REMARK                            x       y       z     vdW  Elec       q    Type
REMARK                         _______ _______ _______ _____ _____    ______ ____
ROOT
ATOM      1  N   UNL     1       3.643   4.933  18.709  0.00  0.00    +0.000 NA
ATOM      2  C   UNL     1       4.022   3.709  18.706  0.00  0.00    +0.000 C 
ATOM      3  N   UNL     1       4.682   3.106  17.662  0.00  0.00    +0.000 N 
ATOM      4  H   UNL     1       4.810   2.110  17.762  0.00  0.00    +0.000 HD
ENDROOT
BRANCH   3   5
ATOM      5  C   UNL     1       5.434   3.715  16.642  0.00  0.00    +0.000 A 
ATOM      6  C   UNL     1       6.421   4.651  16.998  0.00  0.00    +0.000 A 
ATOM      7  C   UNL     1       7.226   5.258  16.029  0.00  0.00    +0.000 A 
ATOM      8  C   UNL     1       7.064   4.923  14.689  0.00  0.00    +0.000 A 
ATOM      9  F   UNL     1       7.849   5.512  13.776  0.00  0.00    +0.000 F 
ATOM     10  C   UNL     1       6.104   3.994  14.315  0.00  0.00    +0.000 A 
ATOM     11 CL   UNL     1       5.892   3.569  12.656  0.00  0.00    +0.000 Cl
ATOM     12  C   UNL     1       5.299   3.394  15.282  0.00  0.00    +0.000 A 
ENDBRANCH   3   5
BRANCH   2  13
ATOM     13  S   UNL     1       3.758   2.568  20.015  0.00  0.00    +0.000 S 
ATOM     14  H   UNL     1       5.037   2.282  20.278  0.00  0.00    +0.000 HD
ENDBRANCH   2  13
BRANCH   1  15
ATOM     15  C   UNL     1       2.999   5.621  19.812  0.00  0.00    +0.000 C 
BRANCH  15  19
ATOM     16  C   UNL     1       1.328   9.461  18.733  0.00  0.00    +0.000 A 
ATOM     17  C   UNL     1       2.031   8.700  17.799  0.00  0.00    +0.000 A 
ATOM     18  C   UNL     1       2.570   7.463  18.154  0.00  0.00    +0.000 A 
ATOM     19  C   UNL     1       2.442   6.979  19.460  0.00  0.00    +0.000 A 
ATOM     20  C   UNL     1       1.733   7.748  20.395  0.00  0.00    +0.000 A 
ATOM     21  C   UNL     1       1.185   8.986  20.036  0.00  0.00    +0.000 A 
BRANCH  16  23
ATOM     22  C   UNL     1      -0.085  11.317  19.106  0.00  0.00    +0.000 C 
ATOM     23  O   UNL     1       0.859  10.660  18.270  0.00  0.00    +0.000 OA
ENDBRANCH  16  23
ENDBRANCH  15  19
ENDBRANCH   1  15
TORSDOF 5
ENDMDL
MODEL 5
REMARK VINA RESULT:      -7.0      4.203      7.274
REMARK  Name = 
REMARK  6 active torsions:
REMARK  status: ('A' for Active; 'I' for Inactive)
REMARK    1  A    between atoms: C_1  and  O_2
REMARK    2  A    between atoms: O_2  and  C_3
REMARK    3  A    between atoms: C_6  and  C_7
REMARK    4  A    between atoms: C_7  and  N_8
REMARK    5  A    between atoms: C_9  and  S_10
REMARK    6  A    between atoms: N_11  and  C_12
REMARK                            x       y       z     vdW  Elec       q    Type
REMARK                         _______ _______ _______ _____ _____    ______ ____
ROOT
ATOM      1  N   UNL     1       3.710   4.979  19.653  0.00  0.00    +0.000 NA
ATOM      2  C   UNL     1       2.740   4.897  20.486  0.00  0.00    +0.000 C 
ATOM      3  N   UNL     1       1.990   5.969  20.908  0.00  0.00    +0.000 N 
ATOM      4  H   UNL     1       1.340   5.763  21.651  0.00  0.00    +0.000 HD
ENDROOT
BRANCH   3   5
ATOM      5  C   UNL     1       1.806   7.207  20.266  0.00  0.00    +0.000 A 
ATOM      6  C   UNL     1       2.238   7.348  18.936  0.00  0.00    +0.000 A 
ATOM      7  C   UNL     1       2.044   8.543  18.235  0.00  0.00    +0.000 A 
ATOM      8  C   UNL     1       1.401   9.609  18.854  0.00  0.00    +0.000 A 
ATOM      9  F   UNL     1       1.221  10.744  18.164  0.00  0.00    +0.000 F 
ATOM     10  C   UNL     1       0.957   9.489  20.163  0.00  0.00    +0.000 A 
ATOM     11 CL   UNL     1       0.157  10.803  20.943  0.00  0.00    +0.000 Cl
ATOM     12  C   UNL     1       1.155   8.299  20.861  0.00  0.00    +0.000 A 
ENDBRANCH   3   5
BRANCH   2  13
ATOM     13  S   UNL     1       2.196   3.417  21.260  0.00  0.00    +0.000 S 
ATOM     14  H   UNL     1       3.273   2.665  21.011  0.00  0.00    +0.000 HD
ENDBRANCH   2  13
BRANCH   1  15
ATOM     15  C   UNL     1       4.485   3.865  19.138  0.00  0.00    +0.000 C 
BRANCH  15  19
ATOM     16  C   UNL     1       6.856   4.913  15.677  0.00  0.00    +0.000 A 
ATOM     17  C   UNL     1       5.538   4.478  15.535  0.00  0.00    +0.000 A 
ATOM     18  C   UNL     1       4.779   4.137  16.655  0.00  0.00    +0.000 A 
ATOM     19  C   UNL     1       5.336   4.199  17.938  0.00  0.00    +0.000 A 
ATOM     20  C   UNL     1       6.660   4.639  18.075  0.00  0.00    +0.000 A 
ATOM     21  C   UNL     1       7.420   4.988  16.950  0.00  0.00    +0.000 A 
BRANCH  16  23
ATOM     22  C   UNL     1       7.006   4.540  13.349  0.00  0.00    +0.000 C 
ATOM     23  O   UNL     1       7.500   5.204  14.506  0.00  0.00    +0.000 OA
ENDBRANCH  16  23
ENDBRANCH  15  19
ENDBRANCH   1  15
TORSDOF 5
ENDMDL
MODEL 6
REMARK VINA RESULT:      -6.9      4.249      7.295
REMARK  Name = 
REMARK  6 active torsions:
REMARK  status: ('A' for Active; 'I' for Inactive)
REMARK    1  A    between atoms: C_1  and  O_2
REMARK    2  A    between atoms: O_2  and  C_3
REMARK    3  A    between atoms: C_6  and  C_7
REMARK    4  A    between atoms: C_7  and  N_8
REMARK    5  A    between atoms: C_9  and  S_10
REMARK    6  A    between atoms: N_11  and  C_12
REMARK                            x       y       z     vdW  Elec       q    Type
REMARK                         _______ _______ _______ _____ _____    ______ ____
ROOT
ATOM      1  N   UNL     1       3.717   5.094  19.722  0.00  0.00    +0.000 NA
ATOM      2  C   UNL     1       2.701   4.977  20.494  0.00  0.00    +0.000 C 
ATOM      3  N   UNL     1       1.912   6.027  20.900  0.00  0.00    +0.000 N 
ATOM      4  H   UNL     1       1.223   5.792  21.598  0.00  0.00    +0.000 HD
ENDROOT
BRANCH   3   5
ATOM      5  C   UNL     1       1.748   7.279  20.281  0.00  0.00    +0.000 A 
ATOM      6  C   UNL     1       2.161   7.432  18.947  0.00  0.00    +0.000 A 
ATOM      7  C   UNL     1       1.985   8.643  18.269  0.00  0.00    +0.000 A 
ATOM      8  C   UNL     1       1.378   9.713  18.915  0.00  0.00    +0.000 A 
ATOM      9  F   UNL     1       1.214  10.864  18.247  0.00  0.00    +0.000 F 
ATOM     10  C   UNL     1       0.952   9.583  20.229  0.00  0.00    +0.000 A 
ATOM     11 CL   UNL     1       0.197  10.902  21.044  0.00  0.00    +0.000 Cl
ATOM     12  C   UNL     1       1.133   8.376  20.905  0.00  0.00    +0.000 A 
ENDBRANCH   3   5
BRANCH   2  13
ATOM     13  S   UNL     1       2.134   3.469  21.196  0.00  0.00    +0.000 S 
ATOM     14  H   UNL     1       0.891   3.854  21.496  0.00  0.00    +0.000 HD
ENDBRANCH   2  13
BRANCH   1  15
ATOM     15  C   UNL     1       4.536   4.004  19.224  0.00  0.00    +0.000 C 
BRANCH  15  19
ATOM     16  C   UNL     1       6.851   4.859  15.673  0.00  0.00    +0.000 A 
ATOM     17  C   UNL     1       7.392   5.058  16.943  0.00  0.00    +0.000 A 
ATOM     18  C   UNL     1       6.639   4.784  18.085  0.00  0.00    +0.000 A 
ATOM     19  C   UNL     1       5.318   4.333  17.976  0.00  0.00    +0.000 A 
ATOM     20  C   UNL     1       4.781   4.132  16.697  0.00  0.00    +0.000 A 
ATOM     21  C   UNL     1       5.540   4.400  15.550  0.00  0.00    +0.000 A 
BRANCH  16  23
ATOM     22  C   UNL     1       7.202   4.836  13.336  0.00  0.00    +0.000 C 
ATOM     23  O   UNL     1       7.681   5.175  14.633  0.00  0.00    +0.000 OA
ENDBRANCH  16  23
ENDBRANCH  15  19
ENDBRANCH   1  15
TORSDOF 5
ENDMDL
MODEL 7
REMARK VINA RESULT:      -6.9      5.030      7.423
REMARK  Name = 
REMARK  6 active torsions:
REMARK  status: ('A' for Active; 'I' for Inactive)
REMARK    1  A    between atoms: C_1  and  O_2
REMARK    2  A    between atoms: O_2  and  C_3
REMARK    3  A    between atoms: C_6  and  C_7
REMARK    4  A    between atoms: C_7  and  N_8
REMARK    5  A    between atoms: C_9  and  S_10
REMARK    6  A    between atoms: N_11  and  C_12
REMARK                            x       y       z     vdW  Elec       q    Type
REMARK                         _______ _______ _______ _____ _____    ______ ____
ROOT
ATOM      1  N   UNL     1       5.942   5.398  17.117  0.00  0.00    +0.000 NA
ATOM      2  C   UNL     1       6.115   5.521  18.381  0.00  0.00    +0.000 C 
ATOM      3  N   UNL     1       5.112   5.413  19.313  0.00  0.00    +0.000 N 
ATOM      4  H   UNL     1       5.384   5.649  20.256  0.00  0.00    +0.000 HD
ENDROOT
BRANCH   3   5
ATOM      5  C   UNL     1       3.874   4.759  19.185  0.00  0.00    +0.000 A 
ATOM      6  C   UNL     1       3.290   4.663  17.910  0.00  0.00    +0.000 A 
ATOM      7  C   UNL     1       2.079   3.989  17.717  0.00  0.00    +0.000 A 
ATOM      8  C   UNL     1       1.445   3.387  18.798  0.00  0.00    +0.000 A 
ATOM      9  F   UNL     1       0.289   2.742  18.592  0.00  0.00    +0.000 F 
ATOM     10  C   UNL     1       2.008   3.459  20.064  0.00  0.00    +0.000 A 
ATOM     11 CL   UNL     1       1.233   2.717  21.415  0.00  0.00    +0.000 Cl
ATOM     12  C   UNL     1       3.213   4.136  20.255  0.00  0.00    +0.000 A 
ENDBRANCH   3   5
BRANCH   2  13
ATOM     13  S   UNL     1       7.652   5.869  19.159  0.00  0.00    +0.000 S 
ATOM     14  H   UNL     1       7.279   5.643  20.423  0.00  0.00    +0.000 HD
ENDBRANCH   2  13
BRANCH   1  15
ATOM     15  C   UNL     1       6.983   5.445  16.107  0.00  0.00    +0.000 C 
BRANCH  15  19
ATOM     16  C   UNL     1       5.850   3.606  12.361  0.00  0.00    +0.000 A 
ATOM     17  C   UNL     1       5.030   3.502  13.485  0.00  0.00    +0.000 A 
ATOM     18  C   UNL     1       5.402   4.095  14.692  0.00  0.00    +0.000 A 
ATOM     19  C   UNL     1       6.619   4.778  14.804  0.00  0.00    +0.000 A 
ATOM     20  C   UNL     1       7.438   4.881  13.671  0.00  0.00    +0.000 A 
ATOM     21  C   UNL     1       7.060   4.292  12.457  0.00  0.00    +0.000 A 
BRANCH  16  23
ATOM     22  C   UNL     1       3.980   3.060  11.024  0.00  0.00    +0.000 C 
ATOM     23  O   UNL     1       5.384   2.973  11.242  0.00  0.00    +0.000 OA
ENDBRANCH  16  23
ENDBRANCH  15  19
ENDBRANCH   1  15
TORSDOF 5
ENDMDL
MODEL 8
REMARK VINA RESULT:      -6.8      5.522      7.740
REMARK  Name = 
REMARK  6 active torsions:
REMARK  status: ('A' for Active; 'I' for Inactive)
REMARK    1  A    between atoms: C_1  and  O_2
REMARK    2  A    between atoms: O_2  and  C_3
REMARK    3  A    between atoms: C_6  and  C_7
REMARK    4  A    between atoms: C_7  and  N_8
REMARK    5  A    between atoms: C_9  and  S_10
REMARK    6  A    between atoms: N_11  and  C_12
REMARK                            x       y       z     vdW  Elec       q    Type
REMARK                         _______ _______ _______ _____ _____    ______ ____
ROOT
ATOM      1  N   UNL     1       5.428   5.298  16.923  0.00  0.00    +0.000 NA
ATOM      2  C   UNL     1       6.067   4.662  17.834  0.00  0.00    +0.000 C 
ATOM      3  N   UNL     1       5.468   3.952  18.847  0.00  0.00    +0.000 N 
ATOM      4  H   UNL     1       6.102   3.605  19.551  0.00  0.00    +0.000 HD
ENDROOT
BRANCH   3   5
ATOM      5  C   UNL     1       4.169   3.415  18.881  0.00  0.00    +0.000 A 
ATOM      6  C   UNL     1       3.637   2.861  17.704  0.00  0.00    +0.000 A 
ATOM      7  C   UNL     1       2.367   2.276  17.689  0.00  0.00    +0.000 A 
ATOM      8  C   UNL     1       1.618   2.224  18.859  0.00  0.00    +0.000 A 
ATOM      9  F   UNL     1       0.404   1.655  18.825  0.00  0.00    +0.000 F 
ATOM     10  C   UNL     1       2.126   2.755  20.035  0.00  0.00    +0.000 A 
ATOM     11 CL   UNL     1       1.208   2.697  21.495  0.00  0.00    +0.000 Cl
ATOM     12  C   UNL     1       3.391   3.342  20.047  0.00  0.00    +0.000 A 
ENDBRANCH   3   5
BRANCH   2  13
ATOM     13  S   UNL     1       7.817   4.590  17.977  0.00  0.00    +0.000 S 
ATOM     14  H   UNL     1       7.885   4.005  19.176  0.00  0.00    +0.000 HD
ENDBRANCH   2  13
BRANCH   1  15
ATOM     15  C   UNL     1       6.022   6.007  15.805  0.00  0.00    +0.000 C 
BRANCH  15  19
ATOM     16  C   UNL     1       6.766   3.529  12.340  0.00  0.00    +0.000 A 
ATOM     17  C   UNL     1       7.649   4.552  12.690  0.00  0.00    +0.000 A 
ATOM     18  C   UNL     1       7.402   5.350  13.808  0.00  0.00    +0.000 A 
ATOM     19  C   UNL     1       6.249   5.159  14.579  0.00  0.00    +0.000 A 
ATOM     20  C   UNL     1       5.367   4.129  14.223  0.00  0.00    +0.000 A 
ATOM     21  C   UNL     1       5.619   3.322  13.105  0.00  0.00    +0.000 A 
BRANCH  16  23
ATOM     22  C   UNL     1       6.510   1.542  11.089  0.00  0.00    +0.000 C 
ATOM     23  O   UNL     1       7.110   2.826  11.219  0.00  0.00    +0.000 OA
ENDBRANCH  16  23
ENDBRANCH  15  19
ENDBRANCH   1  15
TORSDOF 5
ENDMDL
MODEL 9
REMARK VINA RESULT:      -6.8      2.035      2.787
REMARK  Name = 
REMARK  6 active torsions:
REMARK  status: ('A' for Active; 'I' for Inactive)
REMARK    1  A    between atoms: C_1  and  O_2
REMARK    2  A    between atoms: O_2  and  C_3
REMARK    3  A    between atoms: C_6  and  C_7
REMARK    4  A    between atoms: C_7  and  N_8
REMARK    5  A    between atoms: C_9  and  S_10
REMARK    6  A    between atoms: N_11  and  C_12
REMARK                            x       y       z     vdW  Elec       q    Type
REMARK                         _______ _______ _______ _____ _____    ______ ____
ROOT
ATOM      1  N   UNL     1       2.488   5.598  19.922  0.00  0.00    +0.000 NA
ATOM      2  C   UNL     1       2.707   4.352  20.129  0.00  0.00    +0.000 C 
ATOM      3  N   UNL     1       3.503   3.563  19.333  0.00  0.00    +0.000 N 
ATOM      4  H   UNL     1       3.484   2.580  19.560  0.00  0.00    +0.000 HD
ENDROOT
BRANCH   3   5
ATOM      5  C   UNL     1       4.531   3.966  18.462  0.00  0.00    +0.000 A 
ATOM      6  C   UNL     1       4.445   3.607  17.106  0.00  0.00    +0.000 A 
ATOM      7  C   UNL     1       5.417   4.014  16.187  0.00  0.00    +0.000 A 
ATOM      8  C   UNL     1       6.482   4.800  16.612  0.00  0.00    +0.000 A 
ATOM      9  F   UNL     1       7.401   5.184  15.715  0.00  0.00    +0.000 F 
ATOM     10  C   UNL     1       6.582   5.176  17.944  0.00  0.00    +0.000 A 
ATOM     11 CL   UNL     1       7.898   6.151  18.486  0.00  0.00    +0.000 Cl
ATOM     12  C   UNL     1       5.614   4.765  18.860  0.00  0.00    +0.000 A 
ENDBRANCH   3   5
BRANCH   2  13
ATOM     13  S   UNL     1       2.023   3.413  21.448  0.00  0.00    +0.000 S 
ATOM     14  H   UNL     1       2.068   4.355  22.395  0.00  0.00    +0.000 HD
ENDBRANCH   2  13
BRANCH   1  15
ATOM     15  C   UNL     1       1.704   6.476  20.770  0.00  0.00    +0.000 C 
BRANCH  15  19
ATOM     16  C   UNL     1       1.150  10.448  19.153  0.00  0.00    +0.000 A 
ATOM     17  C   UNL     1       1.753   9.445  18.393  0.00  0.00    +0.000 A 
ATOM     18  C   UNL     1       1.932   8.166  18.921  0.00  0.00    +0.000 A 
ATOM     19  C   UNL     1       1.537   7.876  20.233  0.00  0.00    +0.000 A 
ATOM     20  C   UNL     1       0.930   8.887  20.991  0.00  0.00    +0.000 A 
ATOM     21  C   UNL     1       0.744  10.169  20.457  0.00  0.00    +0.000 A 
BRANCH  16  23
ATOM     22  C   UNL     1       2.263  12.367  18.339  0.00  0.00    +0.000 C 
ATOM     23  O   UNL     1       1.042  11.661  18.530  0.00  0.00    +0.000 OA
ENDBRANCH  16  23
ENDBRANCH  15  19
ENDBRANCH   1  15
TORSDOF 5
ENDMDL
