MODEL 1
REMARK VINA RESULT:      -7.3      0.000      0.000
REMARK  Name = 
REMARK  8 active torsions:
REMARK  status: ('A' for Active; 'I' for Inactive)
REMARK    1  A    between atoms: C_2  and  C_3
REMARK    2  A    between atoms: C_3  and  C_4
REMARK    3  A    between atoms: C_4  and  C_5
REMARK    4  A    between atoms: C_5  and  C_6
REMARK    5  A    between atoms: C_6  and  C_7
REMARK    6  A    between atoms: N_13  and  C_14
REMARK    7  A    between atoms: C_14  and  C_15
REMARK    8  A    between atoms: N_23  and  O_24
REMARK                            x       y       z     vdW  Elec       q    Type
REMARK                         _______ _______ _______ _____ _____    ______ ____
ROOT
ATOM      1  C   UNL     1       5.289   4.246  18.043  0.00  0.00    +0.000 C 
ATOM      2  C   UNL     1       4.328   3.542  19.027  0.00  0.00    +0.000 C 
ATOM      3  C   UNL     1       2.888   4.054  18.921  0.00  0.00    +0.000 C 
ATOM      4  N   UNL     1       2.834   5.515  19.012  0.00  0.00    +0.000 N 
ATOM      5  C   UNL     1       2.110   6.096  20.041  0.00  0.00    +0.000 C 
ATOM      6  O   UNL     1       1.502   5.438  20.883  0.00  0.00    +0.000 OA
ATOM      7  N   UNL     1       2.139   7.465  20.087  0.00  0.00    +0.000 N 
ATOM      8  C   UNL     1       3.680   6.212  18.045  0.00  0.00    +0.000 C 
ATOM      9  C   UNL     1       5.134   5.770  18.196  0.00  0.00    +0.000 C 
ATOM     10  H   UNL     1       2.199   7.942  19.205  0.00  0.00    +0.000 HD
ENDROOT
BRANCH   1  11
ATOM     11  C   UNL     1       5.077   3.761  16.592  0.00  0.00    +0.000 C 
BRANCH  11  12
ATOM     12  C   UNL     1       6.204   4.192  15.641  0.00  0.00    +0.000 C 
BRANCH  12  13
ATOM     13  C   UNL     1       5.653   4.620  14.284  0.00  0.00    +0.000 C 
BRANCH  13  14
ATOM     14  C   UNL     1       6.570   4.207  13.135  0.00  0.00    +0.000 C 
BRANCH  14  16
ATOM     15  O   UNL     1       4.744   3.210  11.868  0.00  0.00    +0.000 OA
ATOM     16  C   UNL     1       5.916   3.178  12.228  0.00  0.00    +0.000 C 
ATOM     17  N   UNL     1       6.781   2.196  11.826  0.00  0.00    +0.000 N 
ATOM     18  H   UNL     1       7.747   2.122  12.104  0.00  0.00    +0.000 HD
BRANCH  17  19
ATOM     19  O   UNL     1       6.285   1.185  10.971  0.00  0.00    +0.000 OA
ATOM     20  H   UNL     1       6.062   1.678  10.155  0.00  0.00    +0.000 HD
ENDBRANCH  17  19
ENDBRANCH  14  16
ENDBRANCH  13  14
ENDBRANCH  12  13
ENDBRANCH  11  12
ENDBRANCH   1  11
BRANCH   7  21
ATOM     21  C   UNL     1       1.430   8.193  21.119  0.00  0.00    +0.000 C 
BRANCH  21  22
ATOM     22  C   UNL     1       0.651   9.346  20.533  0.00  0.00    +0.000 A 
ATOM     23  C   UNL     1       0.655   9.597  19.154  0.00  0.00    +0.000 A 
ATOM     24  C   UNL     1      -0.071  10.669  18.626  0.00  0.00    +0.000 A 
ATOM     25  C   UNL     1      -0.809  11.499  19.468  0.00  0.00    +0.000 A 
ATOM     26  C   UNL     1      -0.837  11.250  20.836  0.00  0.00    +0.000 A 
ATOM     27  C   UNL     1      -0.117  10.176  21.366  0.00  0.00    +0.000 A 
ENDBRANCH  21  22
ENDBRANCH   7  21
TORSDOF 8
ENDMDL
MODEL 2
REMARK VINA RESULT:      -7.3      3.830      8.592
REMARK  Name = 
REMARK  8 active torsions:
REMARK  status: ('A' for Active; 'I' for Inactive)
REMARK    1  A    between atoms: C_2  and  C_3
REMARK    2  A    between atoms: C_3  and  C_4
REMARK    3  A    between atoms: C_4  and  C_5
REMARK    4  A    between atoms: C_5  and  C_6
REMARK    5  A    between atoms: C_6  and  C_7
REMARK    6  A    between atoms: N_13  and  C_14
REMARK    7  A    between atoms: C_14  and  C_15
REMARK    8  A    between atoms: N_23  and  O_24
REMARK                            x       y       z     vdW  Elec       q    Type
REMARK                         _______ _______ _______ _____ _____    ______ ____
ROOT
ATOM      1  C   UNL     1       4.015   5.020  19.162  0.00  0.00    +0.000 C 
ATOM      2  C   UNL     1       5.516   5.375  19.251  0.00  0.00    +0.000 C 
ATOM      3  C   UNL     1       5.960   6.361  18.165  0.00  0.00    +0.000 C 
ATOM      4  N   UNL     1       5.556   5.903  16.834  0.00  0.00    +0.000 N 
ATOM      5  C   UNL     1       6.535   5.664  15.881  0.00  0.00    +0.000 C 
ATOM      6  O   UNL     1       7.733   5.823  16.103  0.00  0.00    +0.000 OA
ATOM      7  N   UNL     1       6.085   5.198  14.674  0.00  0.00    +0.000 N 
ATOM      8  C   UNL     1       4.127   5.627  16.698  0.00  0.00    +0.000 C 
ATOM      9  C   UNL     1       3.688   4.583  17.723  0.00  0.00    +0.000 C 
ATOM     10  H   UNL     1       5.185   5.528  14.374  0.00  0.00    +0.000 HD
ENDROOT
BRANCH   1  11
ATOM     11  C   UNL     1       3.124   6.180  19.657  0.00  0.00    +0.000 C 
BRANCH  11  12
ATOM     12  C   UNL     1       1.894   5.703  20.443  0.00  0.00    +0.000 C 
BRANCH  12  13
ATOM     13  C   UNL     1       2.098   4.295  20.994  0.00  0.00    +0.000 C 
BRANCH  13  14
ATOM     14  C   UNL     1       0.955   3.357  20.612  0.00  0.00    +0.000 C 
BRANCH  14  16
ATOM     15  O   UNL     1       0.570   2.322  18.440  0.00  0.00    +0.000 OA
ATOM     16  C   UNL     1       1.304   2.499  19.407  0.00  0.00    +0.000 C 
ATOM     17  N   UNL     1       2.550   1.937  19.495  0.00  0.00    +0.000 N 
ATOM     18  H   UNL     1       3.182   2.044  20.274  0.00  0.00    +0.000 HD
BRANCH  17  19
ATOM     19  O   UNL     1       2.987   1.122  18.426  0.00  0.00    +0.000 OA
ATOM     20  H   UNL     1       3.798   1.578  18.120  0.00  0.00    +0.000 HD
ENDBRANCH  17  19
ENDBRANCH  14  16
ENDBRANCH  13  14
ENDBRANCH  12  13
ENDBRANCH  11  12
ENDBRANCH   1  11
BRANCH   7  21
ATOM     21  C   UNL     1       7.008   4.901  13.598  0.00  0.00    +0.000 C 
BRANCH  21  22
ATOM     22  C   UNL     1       6.452   3.836  12.683  0.00  0.00    +0.000 A 
ATOM     23  C   UNL     1       5.074   3.733  12.445  0.00  0.00    +0.000 A 
ATOM     24  C   UNL     1       4.574   2.742  11.596  0.00  0.00    +0.000 A 
ATOM     25  C   UNL     1       5.442   1.845  10.975  0.00  0.00    +0.000 A 
ATOM     26  C   UNL     1       6.813   1.947  11.188  0.00  0.00    +0.000 A 
ATOM     27  C   UNL     1       7.316   2.941  12.032  0.00  0.00    +0.000 A 
ENDBRANCH  21  22
ENDBRANCH   7  21
TORSDOF 8
ENDMDL
MODEL 3
REMARK VINA RESULT:      -7.2      0.797      1.432
REMARK  Name = 
REMARK  8 active torsions:
REMARK  status: ('A' for Active; 'I' for Inactive)
REMARK    1  A    between atoms: C_2  and  C_3
REMARK    2  A    between atoms: C_3  and  C_4
REMARK    3  A    between atoms: C_4  and  C_5
REMARK    4  A    between atoms: C_5  and  C_6
REMARK    5  A    between atoms: C_6  and  C_7
REMARK    6  A    between atoms: N_13  and  C_14
REMARK    7  A    between atoms: C_14  and  C_15
REMARK    8  A    between atoms: N_23  and  O_24
REMARK                            x       y       z     vdW  Elec       q    Type
REMARK                         _______ _______ _______ _____ _____    ______ ____
ROOT
ATOM      1  C   UNL     1       5.320   4.420  17.674  0.00  0.00    +0.000 C 
ATOM      2  C   UNL     1       4.611   3.654  18.813  0.00  0.00    +0.000 C 
ATOM      3  C   UNL     1       3.115   3.976  18.905  0.00  0.00    +0.000 C 
ATOM      4  N   UNL     1       2.884   5.422  18.954  0.00  0.00    +0.000 N 
ATOM      5  C   UNL     1       2.244   5.961  20.060  0.00  0.00    +0.000 C 
ATOM      6  O   UNL     1       1.856   5.278  21.004  0.00  0.00    +0.000 OA
ATOM      7  N   UNL     1       2.100   7.323  20.054  0.00  0.00    +0.000 N 
ATOM      8  C   UNL     1       3.484   6.167  17.849  0.00  0.00    +0.000 C 
ATOM      9  C   UNL     1       4.990   5.919  17.796  0.00  0.00    +0.000 C 
ATOM     10  H   UNL     1       1.969   7.756  19.157  0.00  0.00    +0.000 HD
ENDROOT
BRANCH   1  11
ATOM     11  C   UNL     1       4.968   3.837  16.288  0.00  0.00    +0.000 C 
BRANCH  11  12
ATOM     12  C   UNL     1       6.125   3.930  15.282  0.00  0.00    +0.000 C 
BRANCH  12  13
ATOM     13  C   UNL     1       5.624   4.316  13.893  0.00  0.00    +0.000 C 
BRANCH  13  14
ATOM     14  C   UNL     1       6.380   3.584  12.786  0.00  0.00    +0.000 C 
BRANCH  14  16
ATOM     15  O   UNL     1       5.647   1.701  11.425  0.00  0.00    +0.000 OA
ATOM     16  C   UNL     1       5.441   2.830  11.860  0.00  0.00    +0.000 C 
ATOM     17  N   UNL     1       4.308   3.537  11.558  0.00  0.00    +0.000 N 
ATOM     18  H   UNL     1       4.102   4.469  11.881  0.00  0.00    +0.000 HD
BRANCH  17  19
ATOM     19  O   UNL     1       3.355   2.931  10.707  0.00  0.00    +0.000 OA
ATOM     20  H   UNL     1       2.573   3.511  10.805  0.00  0.00    +0.000 HD
ENDBRANCH  17  19
ENDBRANCH  14  16
ENDBRANCH  13  14
ENDBRANCH  12  13
ENDBRANCH  11  12
ENDBRANCH   1  11
BRANCH   7  21
ATOM     21  C   UNL     1       1.457   8.011  21.155  0.00  0.00    +0.000 C 
BRANCH  21  22
ATOM     22  C   UNL     1       0.736   9.248  20.676  0.00  0.00    +0.000 A 
ATOM     23  C   UNL     1       0.105  10.115  21.580  0.00  0.00    +0.000 A 
ATOM     24  C   UNL     1      -0.559  11.256  21.120  0.00  0.00    +0.000 A 
ATOM     25  C   UNL     1      -0.599  11.545  19.757  0.00  0.00    +0.000 A 
ATOM     26  C   UNL     1       0.039  10.703  18.852  0.00  0.00    +0.000 A 
ATOM     27  C   UNL     1       0.708   9.564  19.308  0.00  0.00    +0.000 A 
ENDBRANCH  21  22
ENDBRANCH   7  21
TORSDOF 8
ENDMDL
MODEL 4
REMARK VINA RESULT:      -7.1      3.367      8.305
REMARK  Name = 
REMARK  8 active torsions:
REMARK  status: ('A' for Active; 'I' for Inactive)
REMARK    1  A    between atoms: C_2  and  C_3
REMARK    2  A    between atoms: C_3  and  C_4
REMARK    3  A    between atoms: C_4  and  C_5
REMARK    4  A    between atoms: C_5  and  C_6
REMARK    5  A    between atoms: C_6  and  C_7
REMARK    6  A    between atoms: N_13  and  C_14
REMARK    7  A    between atoms: C_14  and  C_15
REMARK    8  A    between atoms: N_23  and  O_24
REMARK                            x       y       z     vdW  Elec       q    Type
REMARK                         _______ _______ _______ _____ _____    ______ ____
ROOT
ATOM      1  C   UNL     1       2.531   1.960  18.976  0.00  0.00    +0.000 C 
ATOM      2  C   UNL     1       3.849   2.196  19.746  0.00  0.00    +0.000 C 
ATOM      3  C   UNL     1       4.364   3.634  19.617  0.00  0.00    +0.000 C 
ATOM      4  N   UNL     1       4.436   4.050  18.215  0.00  0.00    +0.000 N 
ATOM      5  C   UNL     1       5.663   4.420  17.687  0.00  0.00    +0.000 C 
ATOM      6  O   UNL     1       6.700   4.420  18.347  0.00  0.00    +0.000 OA
ATOM      7  N   UNL     1       5.660   4.757  16.360  0.00  0.00    +0.000 N 
ATOM      8  C   UNL     1       3.182   3.905  17.477  0.00  0.00    +0.000 C 
ATOM      9  C   UNL     1       2.700   2.457  17.529  0.00  0.00    +0.000 C 
ATOM     10  H   UNL     1       4.828   5.200  16.012  0.00  0.00    +0.000 HD
ENDROOT
BRANCH   1  11
ATOM     11  C   UNL     1       1.326   2.603  19.697  0.00  0.00    +0.000 C 
BRANCH  11  12
ATOM     12  C   UNL     1       1.738   3.612  20.779  0.00  0.00    +0.000 C 
BRANCH  12  13
ATOM     13  C   UNL     1       1.145   4.992  20.507  0.00  0.00    +0.000 C 
BRANCH  13  14
ATOM     14  C   UNL     1       2.097   6.117  20.911  0.00  0.00    +0.000 C 
BRANCH  14  16
ATOM     15  O   UNL     1       1.409   8.325  20.144  0.00  0.00    +0.000 OA
ATOM     16  C   UNL     1       2.034   7.288  19.945  0.00  0.00    +0.000 C 
ATOM     17  N   UNL     1       2.770   7.081  18.809  0.00  0.00    +0.000 N 
ATOM     18  H   UNL     1       3.289   6.244  18.596  0.00  0.00    +0.000 HD
BRANCH  17  19
ATOM     19  O   UNL     1       2.792   8.109  17.838  0.00  0.00    +0.000 OA
ATOM     20  H   UNL     1       3.743   8.336  17.779  0.00  0.00    +0.000 HD
ENDBRANCH  17  19
ENDBRANCH  14  16
ENDBRANCH  13  14
ENDBRANCH  12  13
ENDBRANCH  11  12
ENDBRANCH   1  11
BRANCH   7  21
ATOM     21  C   UNL     1       6.880   5.154  15.686  0.00  0.00    +0.000 C 
BRANCH  21  22
ATOM     22  C   UNL     1       6.871   4.715  14.242  0.00  0.00    +0.000 A 
ATOM     23  C   UNL     1       5.993   3.719  13.792  0.00  0.00    +0.000 A 
ATOM     24  C   UNL     1       5.997   3.324  12.451  0.00  0.00    +0.000 A 
ATOM     25  C   UNL     1       6.874   3.918  11.546  0.00  0.00    +0.000 A 
ATOM     26  C   UNL     1       7.737   4.921  11.974  0.00  0.00    +0.000 A 
ATOM     27  C   UNL     1       7.732   5.323  13.313  0.00  0.00    +0.000 A 
ENDBRANCH  21  22
ENDBRANCH   7  21
TORSDOF 8
ENDMDL
MODEL 5
REMARK VINA RESULT:      -7.1      1.271      1.640
REMARK  Name = 
REMARK  8 active torsions:
REMARK  status: ('A' for Active; 'I' for Inactive)
REMARK    1  A    between atoms: C_2  and  C_3
REMARK    2  A    between atoms: C_3  and  C_4
REMARK    3  A    between atoms: C_4  and  C_5
REMARK    4  A    between atoms: C_5  and  C_6
REMARK    5  A    between atoms: C_6  and  C_7
REMARK    6  A    between atoms: N_13  and  C_14
REMARK    7  A    between atoms: C_14  and  C_15
REMARK    8  A    between atoms: N_23  and  O_24
REMARK                            x       y       z     vdW  Elec       q    Type
REMARK                         _______ _______ _______ _____ _____    ______ ____
ROOT
ATOM      1  C   UNL     1       5.041   5.627  17.953  0.00  0.00    +0.000 C 
ATOM      2  C   UNL     1       4.521   5.425  19.394  0.00  0.00    +0.000 C 
ATOM      3  C   UNL     1       3.001   5.584  19.505  0.00  0.00    +0.000 C 
ATOM      4  N   UNL     1       2.551   6.841  18.904  0.00  0.00    +0.000 N 
ATOM      5  C   UNL     1       1.896   7.768  19.699  0.00  0.00    +0.000 C 
ATOM      6  O   UNL     1       1.669   7.581  20.892  0.00  0.00    +0.000 OA
ATOM      7  N   UNL     1       1.542   8.936  19.078  0.00  0.00    +0.000 N 
ATOM      8  C   UNL     1       2.969   7.029  17.515  0.00  0.00    +0.000 C 
ATOM      9  C   UNL     1       4.490   6.955  17.403  0.00  0.00    +0.000 C 
ATOM     10  H   UNL     1       1.298   8.871  18.105  0.00  0.00    +0.000 HD
ENDROOT
BRANCH   1  11
ATOM     11  C   UNL     1       4.710   4.418  17.052  0.00  0.00    +0.000 C 
BRANCH  11  12
ATOM     12  C   UNL     1       5.800   4.126  16.009  0.00  0.00    +0.000 C 
BRANCH  12  13
ATOM     13  C   UNL     1       5.339   4.502  14.604  0.00  0.00    +0.000 C 
BRANCH  13  14
ATOM     14  C   UNL     1       6.376   4.141  13.542  0.00  0.00    +0.000 C 
BRANCH  14  16
ATOM     15  O   UNL     1       4.685   3.429  11.939  0.00  0.00    +0.000 OA
ATOM     16  C   UNL     1       5.789   3.264  12.449  0.00  0.00    +0.000 C 
ATOM     17  N   UNL     1       6.632   2.256  12.064  0.00  0.00    +0.000 N 
ATOM     18  H   UNL     1       7.541   2.075  12.461  0.00  0.00    +0.000 HD
BRANCH  17  19
ATOM     19  O   UNL     1       6.194   1.379  11.045  0.00  0.00    +0.000 OA
ATOM     20  H   UNL     1       6.450   0.498  11.389  0.00  0.00    +0.000 HD
ENDBRANCH  17  19
ENDBRANCH  14  16
ENDBRANCH  13  14
ENDBRANCH  12  13
ENDBRANCH  11  12
ENDBRANCH   1  11
BRANCH   7  21
ATOM     21  C   UNL     1       0.860   9.990  19.801  0.00  0.00    +0.000 C 
BRANCH  21  22
ATOM     22  C   UNL     1      -0.395  10.419  19.079  0.00  0.00    +0.000 A 
ATOM     23  C   UNL     1      -0.742   9.868  17.838  0.00  0.00    +0.000 A 
ATOM     24  C   UNL     1      -1.907  10.277  17.182  0.00  0.00    +0.000 A 
ATOM     25  C   UNL     1      -2.738  11.237  17.758  0.00  0.00    +0.000 A 
ATOM     26  C   UNL     1      -2.415  11.779  18.997  0.00  0.00    +0.000 A 
ATOM     27  C   UNL     1      -1.254  11.368  19.658  0.00  0.00    +0.000 A 
ENDBRANCH  21  22
ENDBRANCH   7  21
TORSDOF 8
ENDMDL
MODEL 6
REMARK VINA RESULT:      -7.1      3.441      8.779
REMARK  Name = 
REMARK  8 active torsions:
REMARK  status: ('A' for Active; 'I' for Inactive)
REMARK    1  A    between atoms: C_2  and  C_3
REMARK    2  A    between atoms: C_3  and  C_4
REMARK    3  A    between atoms: C_4  and  C_5
REMARK    4  A    between atoms: C_5  and  C_6
REMARK    5  A    between atoms: C_6  and  C_7
REMARK    6  A    between atoms: N_13  and  C_14
REMARK    7  A    between atoms: C_14  and  C_15
REMARK    8  A    between atoms: N_23  and  O_24
REMARK                            x       y       z     vdW  Elec       q    Type
REMARK                         _______ _______ _______ _____ _____    ______ ____
ROOT
ATOM      1  C   UNL     1       2.768   1.751  19.003  0.00  0.00    +0.000 C 
ATOM      2  C   UNL     1       4.198   2.120  19.456  0.00  0.00    +0.000 C 
ATOM      3  C   UNL     1       4.567   3.573  19.138  0.00  0.00    +0.000 C 
ATOM      4  N   UNL     1       4.309   3.892  17.732  0.00  0.00    +0.000 N 
ATOM      5  C   UNL     1       5.366   4.297  16.932  0.00  0.00    +0.000 C 
ATOM      6  O   UNL     1       6.516   4.406  17.351  0.00  0.00    +0.000 OA
ATOM      7  N   UNL     1       5.058   4.538  15.619  0.00  0.00    +0.000 N 
ATOM      8  C   UNL     1       2.942   3.620  17.291  0.00  0.00    +0.000 C 
ATOM      9  C   UNL     1       2.590   2.153  17.527  0.00  0.00    +0.000 C 
ATOM     10  H   UNL     1       4.140   4.904  15.434  0.00  0.00    +0.000 HD
ENDROOT
BRANCH   1  11
ATOM     11  C   UNL     1       1.698   2.370  19.929  0.00  0.00    +0.000 C 
BRANCH  11  12
ATOM     12  C   UNL     1       2.227   2.681  21.337  0.00  0.00    +0.000 C 
BRANCH  12  13
ATOM     13  C   UNL     1       2.207   4.181  21.619  0.00  0.00    +0.000 C 
BRANCH  13  14
ATOM     14  C   UNL     1       1.416   4.953  20.565  0.00  0.00    +0.000 C 
BRANCH  14  16
ATOM     15  O   UNL     1       2.779   6.648  19.466  0.00  0.00    +0.000 OA
ATOM     16  C   UNL     1       1.975   6.349  20.344  0.00  0.00    +0.000 C 
ATOM     17  N   UNL     1       1.478   7.268  21.228  0.00  0.00    +0.000 N 
ATOM     18  H   UNL     1       0.827   7.067  21.971  0.00  0.00    +0.000 HD
BRANCH  17  19
ATOM     19  O   UNL     1       1.923   8.606  21.114  0.00  0.00    +0.000 OA
ATOM     20  H   UNL     1       2.382   8.758  21.966  0.00  0.00    +0.000 HD
ENDBRANCH  17  19
ENDBRANCH  14  16
ENDBRANCH  13  14
ENDBRANCH  12  13
ENDBRANCH  11  12
ENDBRANCH   1  11
BRANCH   7  21
ATOM     21  C   UNL     1       6.075   4.959  14.677  0.00  0.00    +0.000 C 
BRANCH  21  22
ATOM     22  C   UNL     1       6.050   4.104  13.433  0.00  0.00    +0.000 A 
ATOM     23  C   UNL     1       4.842   3.632  12.902  0.00  0.00    +0.000 A 
ATOM     24  C   UNL     1       4.835   2.842  11.749  0.00  0.00    +0.000 A 
ATOM     25  C   UNL     1       6.032   2.516  11.113  0.00  0.00    +0.000 A 
ATOM     26  C   UNL     1       7.237   2.993  11.619  0.00  0.00    +0.000 A 
ATOM     27  C   UNL     1       7.246   3.788  12.768  0.00  0.00    +0.000 A 
ENDBRANCH  21  22
ENDBRANCH   7  21
TORSDOF 8
ENDMDL
MODEL 7
REMARK VINA RESULT:      -7.1      4.074      4.916
REMARK  Name = 
REMARK  8 active torsions:
REMARK  status: ('A' for Active; 'I' for Inactive)
REMARK    1  A    between atoms: C_2  and  C_3
REMARK    2  A    between atoms: C_3  and  C_4
REMARK    3  A    between atoms: C_4  and  C_5
REMARK    4  A    between atoms: C_5  and  C_6
REMARK    5  A    between atoms: C_6  and  C_7
REMARK    6  A    between atoms: N_13  and  C_14
REMARK    7  A    between atoms: C_14  and  C_15
REMARK    8  A    between atoms: N_23  and  O_24
REMARK                            x       y       z     vdW  Elec       q    Type
REMARK                         _______ _______ _______ _____ _____    ______ ____
ROOT
ATOM      1  C   UNL     1       4.567   5.837  18.012  0.00  0.00    +0.000 C 
ATOM      2  C   UNL     1       4.062   5.669  19.463  0.00  0.00    +0.000 C 
ATOM      3  C   UNL     1       2.566   5.965  19.610  0.00  0.00    +0.000 C 
ATOM      4  N   UNL     1       2.220   7.264  19.028  0.00  0.00    +0.000 N 
ATOM      5  C   UNL     1       1.670   8.240  19.845  0.00  0.00    +0.000 C 
ATOM      6  O   UNL     1       1.453   8.062  21.041  0.00  0.00    +0.000 OA
ATOM      7  N   UNL     1       1.412   9.442  19.241  0.00  0.00    +0.000 N 
ATOM      8  C   UNL     1       2.623   7.427  17.632  0.00  0.00    +0.000 C 
ATOM      9  C   UNL     1       4.128   7.215  17.485  0.00  0.00    +0.000 C 
ATOM     10  H   UNL     1       1.142   9.408  18.274  0.00  0.00    +0.000 HD
ENDROOT
BRANCH   1  11
ATOM     11  C   UNL     1       4.107   4.672  17.109  0.00  0.00    +0.000 C 
BRANCH  11  12
ATOM     12  C   UNL     1       4.126   3.311  17.823  0.00  0.00    +0.000 C 
BRANCH  12  13
ATOM     13  C   UNL     1       2.790   2.588  17.675  0.00  0.00    +0.000 C 
BRANCH  13  14
ATOM     14  C   UNL     1       2.489   1.688  18.871  0.00  0.00    +0.000 C 
BRANCH  14  16
ATOM     15  O   UNL     1       0.709   2.897  20.015  0.00  0.00    +0.000 OA
ATOM     16  C   UNL     1       1.856   2.459  20.017  0.00  0.00    +0.000 C 
ATOM     17  N   UNL     1       2.698   2.613  21.086  0.00  0.00    +0.000 N 
ATOM     18  H   UNL     1       3.649   2.282  21.128  0.00  0.00    +0.000 HD
BRANCH  17  19
ATOM     19  O   UNL     1       2.213   3.311  22.216  0.00  0.00    +0.000 OA
ATOM     20  H   UNL     1       1.859   2.594  22.781  0.00  0.00    +0.000 HD
ENDBRANCH  17  19
ENDBRANCH  14  16
ENDBRANCH  13  14
ENDBRANCH  12  13
ENDBRANCH  11  12
ENDBRANCH   1  11
BRANCH   7  21
ATOM     21  C   UNL     1       0.845  10.546  19.988  0.00  0.00    +0.000 C 
BRANCH  21  22
ATOM     22  C   UNL     1      -0.524  10.910  19.464  0.00  0.00    +0.000 A 
ATOM     23  C   UNL     1      -1.045  10.301  18.314  0.00  0.00    +0.000 A 
ATOM     24  C   UNL     1      -2.314  10.650  17.841  0.00  0.00    +0.000 A 
ATOM     25  C   UNL     1      -3.075  11.607  18.510  0.00  0.00    +0.000 A 
ATOM     26  C   UNL     1      -2.577  12.205  19.663  0.00  0.00    +0.000 A 
ATOM     27  C   UNL     1      -1.312  11.854  20.142  0.00  0.00    +0.000 A 
ENDBRANCH  21  22
ENDBRANCH   7  21
TORSDOF 8
ENDMDL
MODEL 8
REMARK VINA RESULT:      -7.0      3.004      4.113
REMARK  Name = 
REMARK  8 active torsions:
REMARK  status: ('A' for Active; 'I' for Inactive)
REMARK    1  A    between atoms: C_2  and  C_3
REMARK    2  A    between atoms: C_3  and  C_4
REMARK    3  A    between atoms: C_4  and  C_5
REMARK    4  A    between atoms: C_5  and  C_6
REMARK    5  A    between atoms: C_6  and  C_7
REMARK    6  A    between atoms: N_13  and  C_14
REMARK    7  A    between atoms: C_14  and  C_15
REMARK    8  A    between atoms: N_23  and  O_24
REMARK                            x       y       z     vdW  Elec       q    Type
REMARK                         _______ _______ _______ _____ _____    ______ ____
ROOT
ATOM      1  C   UNL     1       2.283   5.178  19.143  0.00  0.00    +0.000 C 
ATOM      2  C   UNL     1       2.629   5.887  17.814  0.00  0.00    +0.000 C 
ATOM      3  C   UNL     1       3.192   7.297  18.021  0.00  0.00    +0.000 C 
ATOM      4  N   UNL     1       2.323   8.096  18.888  0.00  0.00    +0.000 N 
ATOM      5  C   UNL     1       1.768   9.264  18.389  0.00  0.00    +0.000 C 
ATOM      6  O   UNL     1       1.977   9.666  17.247  0.00  0.00    +0.000 OA
ATOM      7  N   UNL     1       0.934   9.935  19.243  0.00  0.00    +0.000 N 
ATOM      8  C   UNL     1       2.034   7.482  20.183  0.00  0.00    +0.000 C 
ATOM      9  C   UNL     1       1.396   6.108  19.991  0.00  0.00    +0.000 C 
ATOM     10  H   UNL     1       1.156   9.882  20.222  0.00  0.00    +0.000 HD
ENDROOT
BRANCH   1  11
ATOM     11  C   UNL     1       3.552   4.711  19.888  0.00  0.00    +0.000 C 
BRANCH  11  12
ATOM     12  C   UNL     1       4.720   4.387  18.945  0.00  0.00    +0.000 C 
BRANCH  12  13
ATOM     13  C   UNL     1       5.915   5.299  19.207  0.00  0.00    +0.000 C 
BRANCH  13  14
ATOM     14  C   UNL     1       7.111   4.947  18.324  0.00  0.00    +0.000 C 
BRANCH  14  16
ATOM     15  O   UNL     1       6.581   6.751  16.775  0.00  0.00    +0.000 OA
ATOM     16  C   UNL     1       7.036   5.628  16.968  0.00  0.00    +0.000 C 
ATOM     17  N   UNL     1       7.548   4.859  15.957  0.00  0.00    +0.000 N 
ATOM     18  H   UNL     1       7.921   3.929  16.066  0.00  0.00    +0.000 HD
BRANCH  17  19
ATOM     19  O   UNL     1       7.538   5.394  14.648  0.00  0.00    +0.000 OA
ATOM     20  H   UNL     1       8.468   5.290  14.360  0.00  0.00    +0.000 HD
ENDBRANCH  17  19
ENDBRANCH  14  16
ENDBRANCH  13  14
ENDBRANCH  12  13
ENDBRANCH  11  12
ENDBRANCH   1  11
BRANCH   7  21
ATOM     21  C   UNL     1       0.284  11.166  18.839  0.00  0.00    +0.000 C 
BRANCH  21  22
ATOM     22  C   UNL     1      -1.149  10.916  18.434  0.00  0.00    +0.000 A 
ATOM     23  C   UNL     1      -1.479   9.902  17.524  0.00  0.00    +0.000 A 
ATOM     24  C   UNL     1      -2.811   9.684  17.160  0.00  0.00    +0.000 A 
ATOM     25  C   UNL     1      -3.826  10.472  17.699  0.00  0.00    +0.000 A 
ATOM     26  C   UNL     1      -3.514  11.470  18.617  0.00  0.00    +0.000 A 
ATOM     27  C   UNL     1      -2.184  11.687  18.989  0.00  0.00    +0.000 A 
ENDBRANCH  21  22
ENDBRANCH   7  21
TORSDOF 8
ENDMDL
MODEL 9
REMARK VINA RESULT:      -7.0      3.823      4.749
REMARK  Name = 
REMARK  8 active torsions:
REMARK  status: ('A' for Active; 'I' for Inactive)
REMARK    1  A    between atoms: C_2  and  C_3
REMARK    2  A    between atoms: C_3  and  C_4
REMARK    3  A    between atoms: C_4  and  C_5
REMARK    4  A    between atoms: C_5  and  C_6
REMARK    5  A    between atoms: C_6  and  C_7
REMARK    6  A    between atoms: N_13  and  C_14
REMARK    7  A    between atoms: C_14  and  C_15
REMARK    8  A    between atoms: N_23  and  O_24
REMARK                            x       y       z     vdW  Elec       q    Type
REMARK                         _______ _______ _______ _____ _____    ______ ____
ROOT
ATOM      1  C   UNL     1       4.799   5.929  17.887  0.00  0.00    +0.000 C 
ATOM      2  C   UNL     1       4.210   5.571  19.270  0.00  0.00    +0.000 C 
ATOM      3  C   UNL     1       2.697   5.802  19.350  0.00  0.00    +0.000 C 
ATOM      4  N   UNL     1       2.339   7.150  18.904  0.00  0.00    +0.000 N 
ATOM      5  C   UNL     1       1.701   8.002  19.792  0.00  0.00    +0.000 C 
ATOM      6  O   UNL     1       1.416   7.675  20.942  0.00  0.00    +0.000 OA
ATOM      7  N   UNL     1       1.436   9.260  19.319  0.00  0.00    +0.000 N 
ATOM      8  C   UNL     1       2.822   7.492  17.568  0.00  0.00    +0.000 C 
ATOM      9  C   UNL     1       4.341   7.346  17.498  0.00  0.00    +0.000 C 
ATOM     10  H   UNL     1       1.228   9.335  18.338  0.00  0.00    +0.000 HD
ENDROOT
BRANCH   1  11
ATOM     11  C   UNL     1       4.442   4.867  16.823  0.00  0.00    +0.000 C 
BRANCH  11  12
ATOM     12  C   UNL     1       4.311   3.451  17.404  0.00  0.00    +0.000 C 
BRANCH  12  13
ATOM     13  C   UNL     1       2.897   2.906  17.225  0.00  0.00    +0.000 C 
BRANCH  13  14
ATOM     14  C   UNL     1       2.576   1.800  18.229  0.00  0.00    +0.000 C 
BRANCH  14  16
ATOM     15  O   UNL     1       0.246   2.220  18.805  0.00  0.00    +0.000 OA
ATOM     16  C   UNL     1       1.425   2.180  19.144  0.00  0.00    +0.000 C 
ATOM     17  N   UNL     1       1.831   2.468  20.420  0.00  0.00    +0.000 N 
ATOM     18  H   UNL     1       2.787   2.461  20.741  0.00  0.00    +0.000 HD
BRANCH  17  19
ATOM     19  O   UNL     1       0.843   2.829  21.364  0.00  0.00    +0.000 OA
ATOM     20  H   UNL     1       1.250   2.572  22.217  0.00  0.00    +0.000 HD
ENDBRANCH  17  19
ENDBRANCH  14  16
ENDBRANCH  13  14
ENDBRANCH  12  13
ENDBRANCH  11  12
ENDBRANCH   1  11
BRANCH   7  21
ATOM     21  C   UNL     1       0.780  10.248  20.151  0.00  0.00    +0.000 C 
BRANCH  21  22
ATOM     22  C   UNL     1      -0.502  10.730  19.515  0.00  0.00    +0.000 A 
ATOM     23  C   UNL     1      -1.277  11.732  20.115  0.00  0.00    +0.000 A 
ATOM     24  C   UNL     1      -2.461  12.167  19.514  0.00  0.00    +0.000 A 
ATOM     25  C   UNL     1      -2.884  11.609  18.308  0.00  0.00    +0.000 A 
ATOM     26  C   UNL     1      -2.115  10.627  17.693  0.00  0.00    +0.000 A 
ATOM     27  C   UNL     1      -0.927  10.194  18.288  0.00  0.00    +0.000 A 
ENDBRANCH  21  22
ENDBRANCH   7  21
TORSDOF 8
ENDMDL
