MODEL 1
REMARK VINA RESULT:      -9.7      0.000      0.000
REMARK  Name = 
REMARK  11 active torsions:
REMARK  status: ('A' for Active; 'I' for Inactive)
REMARK    1  A    between atoms: C_1  and  C_2
REMARK    2  A    between atoms: C_4  and  N_5
REMARK    3  A    between atoms: C_8  and  C_9
REMARK    4  A    between atoms: C_9  and  C_10
REMARK    5  A    between atoms: C_10  and  C_12
REMARK    6  A    between atoms: C_12  and  C_13
REMARK    7  A    between atoms: C_12  and  C_14
REMARK    8  A    between atoms: C_12  and  C_15
REMARK    9  A    between atoms: N_17  and  C_18
REMARK   10  A    between atoms: C_23  and  C_24
REMARK   11  A    between atoms: C_26  and  N_27
REMARK                            x       y       z     vdW  Elec       q    Type
REMARK                         _______ _______ _______ _____ _____    ______ ____
ROOT
ATOM      1  C   UNL     1       2.462   2.790  19.950  0.00  0.00    +0.000 C 
ATOM      2  C   UNL     1       1.514   1.652  19.514  0.00  0.00    +0.000 C 
ATOM      3  C   UNL     1       2.514   2.738  21.495  0.00  0.00    +0.000 C 
ENDROOT
BRANCH   1   4
ATOM      4  C   UNL     1       1.939   4.176  19.501  0.00  0.00    +0.000 C 
ATOM      5  O   UNL     1       1.097   4.279  18.604  0.00  0.00    +0.000 OA
ATOM      6  N   UNL     1       2.429   5.277  20.200  0.00  0.00    +0.000 N 
ATOM      7  H   UNL     1       3.377   5.158  20.531  0.00  0.00    +0.000 HD
BRANCH   6   8
ATOM      8  C   UNL     1       2.158   6.593  19.729  0.00  0.00    +0.000 A 
ATOM      9  C   UNL     1       2.600   7.008  18.489  0.00  0.00    +0.000 A 
ATOM     10  C   UNL     1       2.368   8.331  18.070  0.00  0.00    +0.000 A 
ATOM     11  C   UNL     1       1.748   9.280  18.875  0.00  0.00    +0.000 A 
ATOM     12  N   UNL     1       1.572  10.541  18.410  0.00  0.00    +0.000 NA
ATOM     13  C   UNL     1       0.949  11.446  19.198  0.00  0.00    +0.000 A 
ATOM     14  C   UNL     1       0.786  12.859  18.724  0.00  0.00    +0.000 C 
ATOM     15  C   UNL     1       0.513  11.146  20.466  0.00  0.00    +0.000 A 
ATOM     16  C   UNL     1       0.775   9.886  20.981  0.00  0.00    +0.000 A 
ATOM     17  C   UNL     1       1.341   8.876  20.161  0.00  0.00    +0.000 A 
ATOM     18  C   UNL     1       1.530   7.521  20.566  0.00  0.00    +0.000 A 
BRANCH  16  19
ATOM     19  N   UNL     1       0.345   9.632  22.291  0.00  0.00    +0.000 N 
ATOM     20  H   UNL     1       0.971   9.009  22.792  0.00  0.00    +0.000 HD
ATOM     21  H   UNL     1      -0.611   9.271  22.269  0.00  0.00    +0.000 HD
ENDBRANCH  16  19
ENDBRANCH   6   8
ENDBRANCH   1   4
BRANCH   1  22
ATOM     22  C   UNL     1       3.873   2.528  19.391  0.00  0.00    +0.000 C 
ATOM     23  O   UNL     1       4.786   2.154  20.135  0.00  0.00    +0.000 OA
BRANCH  22  24
ATOM     24  C   UNL     1       4.146   2.800  17.916  0.00  0.00    +0.000 C 
BRANCH  24  31
ATOM     25  C   UNL     1       8.592   9.421  17.443  0.00  0.00    +0.000 C 
ATOM     26  C   UNL     1       7.842   8.166  17.790  0.00  0.00    +0.000 A 
ATOM     27  C   UNL     1       8.267   7.398  18.856  0.00  0.00    +0.000 A 
ATOM     28  C   UNL     1       7.663   6.167  19.092  0.00  0.00    +0.000 A 
ATOM     29  C   UNL     1       6.577   5.756  18.295  0.00  0.00    +0.000 A 
ATOM     30  C   UNL     1       5.874   4.541  18.512  0.00  0.00    +0.000 A 
ATOM     31  C   UNL     1       4.858   4.109  17.657  0.00  0.00    +0.000 A 
ATOM     32  C   UNL     1       4.552   4.918  16.563  0.00  0.00    +0.000 A 
ATOM     33  C   UNL     1       5.233   6.131  16.357  0.00  0.00    +0.000 A 
ATOM     34  C   UNL     1       6.227   6.587  17.216  0.00  0.00    +0.000 A 
ATOM     35  N   UNL     1       6.844   7.767  16.966  0.00  0.00    +0.000 NA
BRANCH  28  36
ATOM     36  N   UNL     1       8.358   5.258  19.890  0.00  0.00    +0.000 N 
ATOM     37  H   UNL     1       9.066   4.682  19.450  0.00  0.00    +0.000 HD
ATOM     38  H   UNL     1       8.624   5.521  20.831  0.00  0.00    +0.000 HD
ENDBRANCH  28  36
ENDBRANCH  24  31
ENDBRANCH  22  24
ENDBRANCH   1  22
TORSDOF 7
ENDMDL
MODEL 2
REMARK VINA RESULT:      -8.8      1.081      1.135
REMARK  Name = 
REMARK  11 active torsions:
REMARK  status: ('A' for Active; 'I' for Inactive)
REMARK    1  A    between atoms: C_1  and  C_2
REMARK    2  A    between atoms: C_4  and  N_5
REMARK    3  A    between atoms: C_8  and  C_9
REMARK    4  A    between atoms: C_9  and  C_10
REMARK    5  A    between atoms: C_10  and  C_12
REMARK    6  A    between atoms: C_12  and  C_13
REMARK    7  A    between atoms: C_12  and  C_14
REMARK    8  A    between atoms: C_12  and  C_15
REMARK    9  A    between atoms: N_17  and  C_18
REMARK   10  A    between atoms: C_23  and  C_24
REMARK   11  A    between atoms: C_26  and  N_27
REMARK                            x       y       z     vdW  Elec       q    Type
REMARK                         _______ _______ _______ _____ _____    ______ ____
ROOT
ATOM      1  C   UNL     1       2.198   3.268  19.462  0.00  0.00    +0.000 C 
ATOM      2  C   UNL     1       0.973   2.354  19.683  0.00  0.00    +0.000 C 
ATOM      3  C   UNL     1       3.270   2.801  20.475  0.00  0.00    +0.000 C 
ENDROOT
BRANCH   1   4
ATOM      4  C   UNL     1       1.858   4.755  19.725  0.00  0.00    +0.000 C 
ATOM      5  O   UNL     1       1.095   5.082  20.639  0.00  0.00    +0.000 OA
ATOM      6  N   UNL     1       2.499   5.688  18.913  0.00  0.00    +0.000 N 
ATOM      7  H   UNL     1       2.687   5.352  17.978  0.00  0.00    +0.000 HD
BRANCH   6   8
ATOM      8  C   UNL     1       2.099   7.054  18.951  0.00  0.00    +0.000 A 
ATOM      9  C   UNL     1       2.286   7.879  17.861  0.00  0.00    +0.000 A 
ATOM     10  C   UNL     1       1.933   9.239  17.943  0.00  0.00    +0.000 A 
ATOM     11  C   UNL     1       1.441   9.821  19.105  0.00  0.00    +0.000 A 
ATOM     12  N   UNL     1       1.137  11.142  19.115  0.00  0.00    +0.000 NA
ATOM     13  C   UNL     1       0.641  11.690  20.247  0.00  0.00    +0.000 A 
ATOM     14  C   UNL     1       0.342  13.158  20.296  0.00  0.00    +0.000 C 
ATOM     15  C   UNL     1       0.461  10.965  21.401  0.00  0.00    +0.000 A 
ATOM     16  C   UNL     1       0.859   9.638  21.424  0.00  0.00    +0.000 A 
ATOM     17  C   UNL     1       1.297   8.996  20.236  0.00  0.00    +0.000 A 
ATOM     18  C   UNL     1       1.606   7.607  20.138  0.00  0.00    +0.000 A 
BRANCH  16  19
ATOM     19  N   UNL     1       0.691   8.943  22.630  0.00  0.00    +0.000 N 
ATOM     20  H   UNL     1       0.596   7.942  22.493  0.00  0.00    +0.000 HD
ATOM     21  H   UNL     1      -0.107   9.334  23.137  0.00  0.00    +0.000 HD
ENDBRANCH  16  19
ENDBRANCH   6   8
ENDBRANCH   1   4
BRANCH   1  22
ATOM     22  C   UNL     1       2.737   3.071  18.033  0.00  0.00    +0.000 C 
ATOM     23  O   UNL     1       1.962   2.986  17.074  0.00  0.00    +0.000 OA
BRANCH  22  24
ATOM     24  C   UNL     1       4.239   2.915  17.825  0.00  0.00    +0.000 C 
BRANCH  24  31
ATOM     25  C   UNL     1       8.740   9.511  17.555  0.00  0.00    +0.000 C 
ATOM     26  C   UNL     1       7.974   8.255  17.865  0.00  0.00    +0.000 A 
ATOM     27  C   UNL     1       8.372   7.467  18.926  0.00  0.00    +0.000 A 
ATOM     28  C   UNL     1       7.755   6.236  19.129  0.00  0.00    +0.000 A 
ATOM     29  C   UNL     1       6.683   5.846  18.303  0.00  0.00    +0.000 A 
ATOM     30  C   UNL     1       5.967   4.634  18.485  0.00  0.00    +0.000 A 
ATOM     31  C   UNL     1       4.966   4.224  17.603  0.00  0.00    +0.000 A 
ATOM     32  C   UNL     1       4.687   5.053  16.517  0.00  0.00    +0.000 A 
ATOM     33  C   UNL     1       5.380   6.264  16.345  0.00  0.00    +0.000 A 
ATOM     34  C   UNL     1       6.360   6.699  17.232  0.00  0.00    +0.000 A 
ATOM     35  N   UNL     1       6.990   7.878  17.015  0.00  0.00    +0.000 NA
BRANCH  28  36
ATOM     36  N   UNL     1       8.428   5.309  19.925  0.00  0.00    +0.000 N 
ATOM     37  H   UNL     1       9.146   4.741  19.492  0.00  0.00    +0.000 HD
ATOM     38  H   UNL     1       8.669   5.551  20.878  0.00  0.00    +0.000 HD
ENDBRANCH  28  36
ENDBRANCH  24  31
ENDBRANCH  22  24
ENDBRANCH   1  22
TORSDOF 7
ENDMDL
MODEL 3
REMARK VINA RESULT:      -8.5      1.171      1.913
REMARK  Name = 
REMARK  11 active torsions:
REMARK  status: ('A' for Active; 'I' for Inactive)
REMARK    1  A    between atoms: C_1  and  C_2
REMARK    2  A    between atoms: C_4  and  N_5
REMARK    3  A    between atoms: C_8  and  C_9
REMARK    4  A    between atoms: C_9  and  C_10
REMARK    5  A    between atoms: C_10  and  C_12
REMARK    6  A    between atoms: C_12  and  C_13
REMARK    7  A    between atoms: C_12  and  C_14
REMARK    8  A    between atoms: C_12  and  C_15
REMARK    9  A    between atoms: N_17  and  C_18
REMARK   10  A    between atoms: C_23  and  C_24
REMARK   11  A    between atoms: C_26  and  N_27
REMARK                            x       y       z     vdW  Elec       q    Type
REMARK                         _______ _______ _______ _____ _____    ______ ____
ROOT
ATOM      1  C   UNL     1       2.612   3.056  19.122  0.00  0.00    +0.000 C 
ATOM      2  C   UNL     1       1.773   1.775  19.326  0.00  0.00    +0.000 C 
ATOM      3  C   UNL     1       3.938   2.825  19.884  0.00  0.00    +0.000 C 
ENDROOT
BRANCH   1   4
ATOM      4  C   UNL     1       1.901   4.305  19.696  0.00  0.00    +0.000 C 
ATOM      5  O   UNL     1       0.718   4.259  20.047  0.00  0.00    +0.000 OA
ATOM      6  N   UNL     1       2.683   5.449  19.841  0.00  0.00    +0.000 N 
ATOM      7  H   UNL     1       3.409   5.535  19.142  0.00  0.00    +0.000 HD
BRANCH   6   8
ATOM      8  C   UNL     1       2.068   6.689  20.170  0.00  0.00    +0.000 A 
ATOM      9  C   UNL     1       1.329   6.831  21.327  0.00  0.00    +0.000 A 
ATOM     10  C   UNL     1       0.685   8.052  21.603  0.00  0.00    +0.000 A 
ATOM     11  C   UNL     1       0.712   9.132  20.729  0.00  0.00    +0.000 A 
ATOM     12  N   UNL     1       0.054  10.272  21.053  0.00  0.00    +0.000 NA
ATOM     13  C   UNL     1       0.107  11.321  20.202  0.00  0.00    +0.000 A 
ATOM     14  C   UNL     1      -0.651  12.576  20.518  0.00  0.00    +0.000 C 
ATOM     15  C   UNL     1       0.777  11.267  19.003  0.00  0.00    +0.000 A 
ATOM     16  C   UNL     1       1.370  10.073  18.624  0.00  0.00    +0.000 A 
ATOM     17  C   UNL     1       1.421   8.977  19.523  0.00  0.00    +0.000 A 
ATOM     18  C   UNL     1       2.117   7.757  19.267  0.00  0.00    +0.000 A 
BRANCH  16  19
ATOM     19  N   UNL     1       2.013  10.050  17.378  0.00  0.00    +0.000 N 
ATOM     20  H   UNL     1       2.915   9.586  17.415  0.00  0.00    +0.000 HD
ATOM     21  H   UNL     1       2.091  11.004  17.020  0.00  0.00    +0.000 HD
ENDBRANCH  16  19
ENDBRANCH   6   8
ENDBRANCH   1   4
BRANCH   1  22
ATOM     22  C   UNL     1       2.919   3.238  17.624  0.00  0.00    +0.000 C 
ATOM     23  O   UNL     1       2.004   3.397  16.808  0.00  0.00    +0.000 OA
BRANCH  22  24
ATOM     24  C   UNL     1       4.365   3.151  17.150  0.00  0.00    +0.000 C 
BRANCH  24  31
ATOM     25  C   UNL     1       8.824   9.735  17.927  0.00  0.00    +0.000 C 
ATOM     26  C   UNL     1       8.063   8.443  18.036  0.00  0.00    +0.000 A 
ATOM     27  C   UNL     1       8.456   7.505  18.970  0.00  0.00    +0.000 A 
ATOM     28  C   UNL     1       7.845   6.255  18.979  0.00  0.00    +0.000 A 
ATOM     29  C   UNL     1       6.784   5.989  18.091  0.00  0.00    +0.000 A 
ATOM     30  C   UNL     1       6.074   4.759  18.081  0.00  0.00    +0.000 A 
ATOM     31  C   UNL     1       5.085   4.482  17.135  0.00  0.00    +0.000 A 
ATOM     32  C   UNL     1       4.812   5.464  16.184  0.00  0.00    +0.000 A 
ATOM     33  C   UNL     1       5.499   6.691  16.205  0.00  0.00    +0.000 A 
ATOM     34  C   UNL     1       6.466   6.992  17.158  0.00  0.00    +0.000 A 
ATOM     35  N   UNL     1       7.091   8.193  17.128  0.00  0.00    +0.000 NA
BRANCH  28  36
ATOM     36  N   UNL     1       8.516   5.222  19.633  0.00  0.00    +0.000 N 
ATOM     37  H   UNL     1       9.387   4.892  19.234  0.00  0.00    +0.000 HD
ATOM     38  H   UNL     1       8.539   5.204  20.645  0.00  0.00    +0.000 HD
ENDBRANCH  28  36
ENDBRANCH  24  31
ENDBRANCH  22  24
ENDBRANCH   1  22
TORSDOF 7
ENDMDL
MODEL 4
REMARK VINA RESULT:      -8.3      2.200      7.201
REMARK  Name = 
REMARK  11 active torsions:
REMARK  status: ('A' for Active; 'I' for Inactive)
REMARK    1  A    between atoms: C_1  and  C_2
REMARK    2  A    between atoms: C_4  and  N_5
REMARK    3  A    between atoms: C_8  and  C_9
REMARK    4  A    between atoms: C_9  and  C_10
REMARK    5  A    between atoms: C_10  and  C_12
REMARK    6  A    between atoms: C_12  and  C_13
REMARK    7  A    between atoms: C_12  and  C_14
REMARK    8  A    between atoms: C_12  and  C_15
REMARK    9  A    between atoms: N_17  and  C_18
REMARK   10  A    between atoms: C_23  and  C_24
REMARK   11  A    between atoms: C_26  and  N_27
REMARK                            x       y       z     vdW  Elec       q    Type
REMARK                         _______ _______ _______ _____ _____    ______ ____
ROOT
ATOM      1  C   UNL     1       2.434   3.043  20.078  0.00  0.00    +0.000 C 
ATOM      2  C   UNL     1       2.760   2.294  21.389  0.00  0.00    +0.000 C 
ATOM      3  C   UNL     1       1.448   2.139  19.302  0.00  0.00    +0.000 C 
ENDROOT
BRANCH   1   4
ATOM      4  C   UNL     1       3.701   3.275  19.220  0.00  0.00    +0.000 C 
ATOM      5  O   UNL     1       4.825   3.016  19.661  0.00  0.00    +0.000 OA
ATOM      6  N   UNL     1       3.492   3.736  17.922  0.00  0.00    +0.000 N 
ATOM      7  H   UNL     1       2.680   4.331  17.829  0.00  0.00    +0.000 HD
BRANCH   6   8
ATOM      8  C   UNL     1       4.598   4.163  17.135  0.00  0.00    +0.000 A 
ATOM      9  C   UNL     1       5.554   5.011  17.656  0.00  0.00    +0.000 A 
ATOM     10  C   UNL     1       6.609   5.464  16.840  0.00  0.00    +0.000 A 
ATOM     11  C   UNL     1       6.714   5.137  15.494  0.00  0.00    +0.000 A 
ATOM     12  N   UNL     1       7.748   5.624  14.765  0.00  0.00    +0.000 NA
ATOM     13  C   UNL     1       7.847   5.280  13.462  0.00  0.00    +0.000 A 
ATOM     14  C   UNL     1       8.957   5.843  12.625  0.00  0.00    +0.000 C 
ATOM     15  C   UNL     1       6.922   4.479  12.836  0.00  0.00    +0.000 A 
ATOM     16  C   UNL     1       5.813   4.057  13.551  0.00  0.00    +0.000 A 
ATOM     17  C   UNL     1       5.713   4.314  14.943  0.00  0.00    +0.000 A 
ATOM     18  C   UNL     1       4.673   3.813  15.783  0.00  0.00    +0.000 A 
BRANCH  16  19
ATOM     19  N   UNL     1       4.875   3.271  12.867  0.00  0.00    +0.000 N 
ATOM     20  H   UNL     1       4.310   3.814  12.220  0.00  0.00    +0.000 HD
ATOM     21  H   UNL     1       4.297   2.768  13.544  0.00  0.00    +0.000 HD
ENDBRANCH  16  19
ENDBRANCH   6   8
ENDBRANCH   1   4
BRANCH   1  22
ATOM     22  C   UNL     1       1.740   4.378  20.407  0.00  0.00    +0.000 C 
ATOM     23  O   UNL     1       0.511   4.485  20.329  0.00  0.00    +0.000 OA
BRANCH  22  24
ATOM     24  C   UNL     1       2.596   5.588  20.765  0.00  0.00    +0.000 C 
BRANCH  24  31
ATOM     25  C   UNL     1      -0.261  12.666  18.407  0.00  0.00    +0.000 C 
ATOM     26  C   UNL     1       0.092  11.355  19.050  0.00  0.00    +0.000 A 
ATOM     27  C   UNL     1      -0.224  11.147  20.378  0.00  0.00    +0.000 A 
ATOM     28  C   UNL     1       0.226   9.993  21.013  0.00  0.00    +0.000 A 
ATOM     29  C   UNL     1       0.926   9.018  20.277  0.00  0.00    +0.000 A 
ATOM     30  C   UNL     1       1.365   7.791  20.841  0.00  0.00    +0.000 A 
ATOM     31  C   UNL     1       2.135   6.876  20.119  0.00  0.00    +0.000 A 
ATOM     32  C   UNL     1       2.468   7.210  18.807  0.00  0.00    +0.000 A 
ATOM     33  C   UNL     1       2.017   8.415  18.240  0.00  0.00    +0.000 A 
ATOM     34  C   UNL     1       1.227   9.323  18.937  0.00  0.00    +0.000 A 
ATOM     35  N   UNL     1       0.821  10.466  18.334  0.00  0.00    +0.000 NA
BRANCH  28  36
ATOM     36  N   UNL     1       0.247  10.000  22.407  0.00  0.00    +0.000 N 
ATOM     37  H   UNL     1      -0.451   9.454  22.897  0.00  0.00    +0.000 HD
ATOM     38  H   UNL     1       1.135   9.990  22.893  0.00  0.00    +0.000 HD
ENDBRANCH  28  36
ENDBRANCH  24  31
ENDBRANCH  22  24
ENDBRANCH   1  22
TORSDOF 7
ENDMDL
MODEL 5
REMARK VINA RESULT:      -8.3      0.930      1.819
REMARK  Name = 
REMARK  11 active torsions:
REMARK  status: ('A' for Active; 'I' for Inactive)
REMARK    1  A    between atoms: C_1  and  C_2
REMARK    2  A    between atoms: C_4  and  N_5
REMARK    3  A    between atoms: C_8  and  C_9
REMARK    4  A    between atoms: C_9  and  C_10
REMARK    5  A    between atoms: C_10  and  C_12
REMARK    6  A    between atoms: C_12  and  C_13
REMARK    7  A    between atoms: C_12  and  C_14
REMARK    8  A    between atoms: C_12  and  C_15
REMARK    9  A    between atoms: N_17  and  C_18
REMARK   10  A    between atoms: C_23  and  C_24
REMARK   11  A    between atoms: C_26  and  N_27
REMARK                            x       y       z     vdW  Elec       q    Type
REMARK                         _______ _______ _______ _____ _____    ______ ____
ROOT
ATOM      1  C   UNL     1       1.987   3.244  18.774  0.00  0.00    +0.000 C 
ATOM      2  C   UNL     1       1.563   3.395  17.297  0.00  0.00    +0.000 C 
ATOM      3  C   UNL     1       1.195   2.035  19.327  0.00  0.00    +0.000 C 
ENDROOT
BRANCH   1   4
ATOM      4  C   UNL     1       1.641   4.505  19.602  0.00  0.00    +0.000 C 
ATOM      5  O   UNL     1       0.758   4.477  20.465  0.00  0.00    +0.000 OA
ATOM      6  N   UNL     1       2.413   5.638  19.354  0.00  0.00    +0.000 N 
ATOM      7  H   UNL     1       2.730   5.711  18.396  0.00  0.00    +0.000 HD
BRANCH   6   8
ATOM      8  C   UNL     1       2.038   6.888  19.921  0.00  0.00    +0.000 A 
ATOM      9  C   UNL     1       1.594   6.973  21.225  0.00  0.00    +0.000 A 
ATOM     10  C   UNL     1       1.176   8.212  21.744  0.00  0.00    +0.000 A 
ATOM     11  C   UNL     1       1.137   9.374  20.982  0.00  0.00    +0.000 A 
ATOM     12  N   UNL     1       0.707  10.530  21.545  0.00  0.00    +0.000 NA
ATOM     13  C   UNL     1       0.693  11.655  20.796  0.00  0.00    +0.000 A 
ATOM     14  C   UNL     1       0.178  12.935  21.384  0.00  0.00    +0.000 C 
ATOM     15  C   UNL     1       1.071  11.669  19.475  0.00  0.00    +0.000 A 
ATOM     16  C   UNL     1       1.420  10.472  18.869  0.00  0.00    +0.000 A 
ATOM     17  C   UNL     1       1.538   9.284  19.636  0.00  0.00    +0.000 A 
ATOM     18  C   UNL     1       2.011   8.038  19.124  0.00  0.00    +0.000 A 
BRANCH  16  19
ATOM     19  N   UNL     1       1.764  10.523  17.511  0.00  0.00    +0.000 N 
ATOM     20  H   UNL     1       1.031  10.929  16.938  0.00  0.00    +0.000 HD
ATOM     21  H   UNL     1       2.019   9.585  17.191  0.00  0.00    +0.000 HD
ENDBRANCH  16  19
ENDBRANCH   6   8
ENDBRANCH   1   4
BRANCH   1  22
ATOM     22  C   UNL     1       3.494   2.933  18.849  0.00  0.00    +0.000 C 
ATOM     23  O   UNL     1       4.024   2.640  19.926  0.00  0.00    +0.000 OA
BRANCH  22  24
ATOM     24  C   UNL     1       4.338   3.058  17.585  0.00  0.00    +0.000 C 
BRANCH  24  31
ATOM     25  C   UNL     1       8.770   9.702  17.758  0.00  0.00    +0.000 C 
ATOM     26  C   UNL     1       8.020   8.419  17.983  0.00  0.00    +0.000 A 
ATOM     27  C   UNL     1       8.437   7.559  18.979  0.00  0.00    +0.000 A 
ATOM     28  C   UNL     1       7.834   6.310  19.097  0.00  0.00    +0.000 A 
ATOM     29  C   UNL     1       6.757   5.971  18.254  0.00  0.00    +0.000 A 
ATOM     30  C   UNL     1       6.055   4.741  18.353  0.00  0.00    +0.000 A 
ATOM     31  C   UNL     1       5.049   4.387  17.453  0.00  0.00    +0.000 A 
ATOM     32  C   UNL     1       4.751   5.290  16.434  0.00  0.00    +0.000 A 
ATOM     33  C   UNL     1       5.430   6.518  16.345  0.00  0.00    +0.000 A 
ATOM     34  C   UNL     1       6.415   6.897  17.252  0.00  0.00    +0.000 A 
ATOM     35  N   UNL     1       7.032   8.095  17.116  0.00  0.00    +0.000 NA
BRANCH  28  36
ATOM     36  N   UNL     1       8.524   5.334  19.816  0.00  0.00    +0.000 N 
ATOM     37  H   UNL     1       8.143   4.396  19.831  0.00  0.00    +0.000 HD
ATOM     38  H   UNL     1       9.536   5.325  19.802  0.00  0.00    +0.000 HD
ENDBRANCH  28  36
ENDBRANCH  24  31
ENDBRANCH  22  24
ENDBRANCH   1  22
TORSDOF 7
ENDMDL
MODEL 6
REMARK VINA RESULT:      -8.2      0.813      1.676
REMARK  Name = 
REMARK  11 active torsions:
REMARK  status: ('A' for Active; 'I' for Inactive)
REMARK    1  A    between atoms: C_1  and  C_2
REMARK    2  A    between atoms: C_4  and  N_5
REMARK    3  A    between atoms: C_8  and  C_9
REMARK    4  A    between atoms: C_9  and  C_10
REMARK    5  A    between atoms: C_10  and  C_12
REMARK    6  A    between atoms: C_12  and  C_13
REMARK    7  A    between atoms: C_12  and  C_14
REMARK    8  A    between atoms: C_12  and  C_15
REMARK    9  A    between atoms: N_17  and  C_18
REMARK   10  A    between atoms: C_23  and  C_24
REMARK   11  A    between atoms: C_26  and  N_27
REMARK                            x       y       z     vdW  Elec       q    Type
REMARK                         _______ _______ _______ _____ _____    ______ ____
ROOT
ATOM      1  C   UNL     1       2.234   2.758  19.871  0.00  0.00    +0.000 C 
ATOM      2  C   UNL     1       1.358   1.760  19.081  0.00  0.00    +0.000 C 
ATOM      3  C   UNL     1       2.068   2.386  21.363  0.00  0.00    +0.000 C 
ENDROOT
BRANCH   1   4
ATOM      4  C   UNL     1       1.776   4.220  19.653  0.00  0.00    +0.000 C 
ATOM      5  O   UNL     1       1.315   4.588  18.568  0.00  0.00    +0.000 OA
ATOM      6  N   UNL     1       1.866   5.066  20.756  0.00  0.00    +0.000 N 
ATOM      7  H   UNL     1       2.634   4.845  21.376  0.00  0.00    +0.000 HD
BRANCH   6   8
ATOM      8  C   UNL     1       1.657   6.465  20.594  0.00  0.00    +0.000 A 
ATOM      9  C   UNL     1       0.889   7.177  21.493  0.00  0.00    +0.000 A 
ATOM     10  C   UNL     1       0.652   8.548  21.280  0.00  0.00    +0.000 A 
ATOM     11  C   UNL     1       1.118   9.229  20.161  0.00  0.00    +0.000 A 
ATOM     12  N   UNL     1       0.837  10.546  20.014  0.00  0.00    +0.000 NA
ATOM     13  C   UNL     1       1.314  11.199  18.931  0.00  0.00    +0.000 A 
ATOM     14  C   UNL     1       0.976  12.645  18.724  0.00  0.00    +0.000 C 
ATOM     15  C   UNL     1       2.050  10.571  17.954  0.00  0.00    +0.000 A 
ATOM     16  C   UNL     1       2.258   9.205  18.052  0.00  0.00    +0.000 A 
ATOM     17  C   UNL     1       1.858   8.496  19.214  0.00  0.00    +0.000 A 
ATOM     18  C   UNL     1       2.142   7.119  19.456  0.00  0.00    +0.000 A 
BRANCH  16  19
ATOM     19  N   UNL     1       2.983   8.596  17.018  0.00  0.00    +0.000 N 
ATOM     20  H   UNL     1       3.466   7.757  17.322  0.00  0.00    +0.000 HD
ATOM     21  H   UNL     1       3.628   9.278  16.610  0.00  0.00    +0.000 HD
ENDBRANCH  16  19
ENDBRANCH   6   8
ENDBRANCH   1   4
BRANCH   1  22
ATOM     22  C   UNL     1       3.709   2.577  19.470  0.00  0.00    +0.000 C 
ATOM     23  O   UNL     1       4.568   2.327  20.323  0.00  0.00    +0.000 OA
BRANCH  22  24
ATOM     24  C   UNL     1       4.109   2.779  18.012  0.00  0.00    +0.000 C 
BRANCH  24  31
ATOM     25  C   UNL     1       8.531   9.409  17.458  0.00  0.00    +0.000 C 
ATOM     26  C   UNL     1       7.798   8.147  17.815  0.00  0.00    +0.000 A 
ATOM     27  C   UNL     1       8.274   7.358  18.843  0.00  0.00    +0.000 A 
ATOM     28  C   UNL     1       7.681   6.122  19.084  0.00  0.00    +0.000 A 
ATOM     29  C   UNL     1       6.558   5.727  18.332  0.00  0.00    +0.000 A 
ATOM     30  C   UNL     1       5.865   4.508  18.558  0.00  0.00    +0.000 A 
ATOM     31  C   UNL     1       4.809   4.093  17.745  0.00  0.00    +0.000 A 
ATOM     32  C   UNL     1       4.450   4.923  16.684  0.00  0.00    +0.000 A 
ATOM     33  C   UNL     1       5.120   6.141  16.470  0.00  0.00    +0.000 A 
ATOM     34  C   UNL     1       6.156   6.580  17.289  0.00  0.00    +0.000 A 
ATOM     35  N   UNL     1       6.761   7.764  17.033  0.00  0.00    +0.000 NA
BRANCH  28  36
ATOM     36  N   UNL     1       8.414   5.198  19.828  0.00  0.00    +0.000 N 
ATOM     37  H   UNL     1       8.800   5.499  20.715  0.00  0.00    +0.000 HD
ATOM     38  H   UNL     1       8.113   4.232  19.862  0.00  0.00    +0.000 HD
ENDBRANCH  28  36
ENDBRANCH  24  31
ENDBRANCH  22  24
ENDBRANCH   1  22
TORSDOF 7
ENDMDL
MODEL 7
REMARK VINA RESULT:      -8.0      2.322      3.087
REMARK  Name = 
REMARK  11 active torsions:
REMARK  status: ('A' for Active; 'I' for Inactive)
REMARK    1  A    between atoms: C_1  and  C_2
REMARK    2  A    between atoms: C_4  and  N_5
REMARK    3  A    between atoms: C_8  and  C_9
REMARK    4  A    between atoms: C_9  and  C_10
REMARK    5  A    between atoms: C_10  and  C_12
REMARK    6  A    between atoms: C_12  and  C_13
REMARK    7  A    between atoms: C_12  and  C_14
REMARK    8  A    between atoms: C_12  and  C_15
REMARK    9  A    between atoms: N_17  and  C_18
REMARK   10  A    between atoms: C_23  and  C_24
REMARK   11  A    between atoms: C_26  and  N_27
REMARK                            x       y       z     vdW  Elec       q    Type
REMARK                         _______ _______ _______ _____ _____    ______ ____
ROOT
ATOM      1  C   UNL     1       3.315   3.454  19.847  0.00  0.00    +0.000 C 
ATOM      2  C   UNL     1       2.850   2.505  20.973  0.00  0.00    +0.000 C 
ATOM      3  C   UNL     1       4.751   3.890  20.219  0.00  0.00    +0.000 C 
ENDROOT
BRANCH   1   4
ATOM      4  C   UNL     1       2.411   4.705  19.741  0.00  0.00    +0.000 C 
ATOM      5  O   UNL     1       1.189   4.598  19.596  0.00  0.00    +0.000 OA
ATOM      6  N   UNL     1       3.045   5.939  19.871  0.00  0.00    +0.000 N 
ATOM      7  H   UNL     1       3.993   5.947  19.519  0.00  0.00    +0.000 HD
BRANCH   6   8
ATOM      8  C   UNL     1       2.329   7.136  19.590  0.00  0.00    +0.000 A 
ATOM      9  C   UNL     1       2.367   7.708  18.335  0.00  0.00    +0.000 A 
ATOM     10  C   UNL     1       1.696   8.923  18.098  0.00  0.00    +0.000 A 
ATOM     11  C   UNL     1       1.024   9.620  19.095  0.00  0.00    +0.000 A 
ATOM     12  N   UNL     1       0.414  10.793  18.797  0.00  0.00    +0.000 NA
ATOM     13  C   UNL     1      -0.252  11.449  19.773  0.00  0.00    +0.000 A 
ATOM     14  C   UNL     1      -0.895  12.772  19.478  0.00  0.00    +0.000 C 
ATOM     15  C   UNL     1      -0.310  10.989  21.067  0.00  0.00    +0.000 A 
ATOM     16  C   UNL     1       0.391   9.840  21.397  0.00  0.00    +0.000 A 
ATOM     17  C   UNL     1       1.026   9.069  20.390  0.00  0.00    +0.000 A 
ATOM     18  C   UNL     1       1.662   7.811  20.619  0.00  0.00    +0.000 A 
BRANCH  16  19
ATOM     19  N   UNL     1       0.336   9.423  22.735  0.00  0.00    +0.000 N 
ATOM     20  H   UNL     1       0.256  10.201  23.382  0.00  0.00    +0.000 HD
ATOM     21  H   UNL     1       1.150   8.840  22.941  0.00  0.00    +0.000 HD
ENDBRANCH  16  19
ENDBRANCH   6   8
ENDBRANCH   1   4
BRANCH   1  22
ATOM     22  C   UNL     1       3.353   2.688  18.511  0.00  0.00    +0.000 C 
ATOM     23  O   UNL     1       3.701   1.503  18.475  0.00  0.00    +0.000 OA
BRANCH  22  24
ATOM     24  C   UNL     1       3.021   3.432  17.223  0.00  0.00    +0.000 C 
BRANCH  24  31
ATOM     25  C   UNL     1       9.056   5.936  12.625  0.00  0.00    +0.000 C 
ATOM     26  C   UNL     1       7.910   5.254  13.318  0.00  0.00    +0.000 A 
ATOM     27  C   UNL     1       7.136   4.352  12.615  0.00  0.00    +0.000 A 
ATOM     28  C   UNL     1       5.993   3.827  13.210  0.00  0.00    +0.000 A 
ATOM     29  C   UNL     1       5.684   4.157  14.544  0.00  0.00    +0.000 A 
ATOM     30  C   UNL     1       4.568   3.616  15.236  0.00  0.00    +0.000 A 
ATOM     31  C   UNL     1       4.228   4.023  16.528  0.00  0.00    +0.000 A 
ATOM     32  C   UNL     1       5.028   4.995  17.127  0.00  0.00    +0.000 A 
ATOM     33  C   UNL     1       6.145   5.518  16.451  0.00  0.00    +0.000 A 
ATOM     34  C   UNL     1       6.512   5.102  15.176  0.00  0.00    +0.000 A 
ATOM     35  N   UNL     1       7.601   5.641  14.579  0.00  0.00    +0.000 NA
BRANCH  28  36
ATOM     36  N   UNL     1       5.038   3.260  12.366  0.00  0.00    +0.000 N 
ATOM     37  H   UNL     1       4.957   3.626  11.425  0.00  0.00    +0.000 HD
ATOM     38  H   UNL     1       4.878   2.261  12.392  0.00  0.00    +0.000 HD
ENDBRANCH  28  36
ENDBRANCH  24  31
ENDBRANCH  22  24
ENDBRANCH   1  22
TORSDOF 7
ENDMDL
MODEL 8
REMARK VINA RESULT:      -7.7      2.639      7.155
REMARK  Name = 
REMARK  11 active torsions:
REMARK  status: ('A' for Active; 'I' for Inactive)
REMARK    1  A    between atoms: C_1  and  C_2
REMARK    2  A    between atoms: C_4  and  N_5
REMARK    3  A    between atoms: C_8  and  C_9
REMARK    4  A    between atoms: C_9  and  C_10
REMARK    5  A    between atoms: C_10  and  C_12
REMARK    6  A    between atoms: C_12  and  C_13
REMARK    7  A    between atoms: C_12  and  C_14
REMARK    8  A    between atoms: C_12  and  C_15
REMARK    9  A    between atoms: N_17  and  C_18
REMARK   10  A    between atoms: C_23  and  C_24
REMARK   11  A    between atoms: C_26  and  N_27
REMARK                            x       y       z     vdW  Elec       q    Type
REMARK                         _______ _______ _______ _____ _____    ______ ____
ROOT
ATOM      1  C   UNL     1       6.072   5.716  16.837  0.00  0.00    +0.000 C 
ATOM      2  C   UNL     1       6.740   4.549  16.077  0.00  0.00    +0.000 C 
ATOM      3  C   UNL     1       5.280   6.520  15.779  0.00  0.00    +0.000 C 
ENDROOT
BRANCH   1   4
ATOM      4  C   UNL     1       7.120   6.640  17.503  0.00  0.00    +0.000 C 
ATOM      5  O   UNL     1       7.911   6.204  18.345  0.00  0.00    +0.000 OA
ATOM      6  N   UNL     1       7.149   7.961  17.061  0.00  0.00    +0.000 N 
ATOM      7  H   UNL     1       6.245   8.314  16.777  0.00  0.00    +0.000 HD
BRANCH   6   8
ATOM      8  C   UNL     1       7.937   8.923  17.753  0.00  0.00    +0.000 A 
ATOM      9  C   UNL     1       8.697   8.564  18.847  0.00  0.00    +0.000 A 
ATOM     10  C   UNL     1       9.424   9.544  19.548  0.00  0.00    +0.000 A 
ATOM     11  C   UNL     1       9.378  10.894  19.222  0.00  0.00    +0.000 A 
ATOM     12  N   UNL     1      10.092  11.785  19.952  0.00  0.00    +0.000 NA
ATOM     13  C   UNL     1      10.052  13.092  19.610  0.00  0.00    +0.000 A 
ATOM     14  C   UNL     1      10.796  14.101  20.432  0.00  0.00    +0.000 C 
ATOM     15  C   UNL     1       9.290  13.559  18.566  0.00  0.00    +0.000 A 
ATOM     16  C   UNL     1       8.484  12.667  17.876  0.00  0.00    +0.000 A 
ATOM     17  C   UNL     1       8.563  11.275  18.138  0.00  0.00    +0.000 A 
ATOM     18  C   UNL     1       7.867  10.274  17.396  0.00  0.00    +0.000 A 
BRANCH  16  19
ATOM     19  N   UNL     1       7.695  13.189  16.842  0.00  0.00    +0.000 N 
ATOM     20  H   UNL     1       7.391  14.140  17.026  0.00  0.00    +0.000 HD
ATOM     21  H   UNL     1       6.903  12.565  16.672  0.00  0.00    +0.000 HD
ENDBRANCH  16  19
ENDBRANCH   6   8
ENDBRANCH   1   4
BRANCH   1  22
ATOM     22  C   UNL     1       5.090   5.156  17.881  0.00  0.00    +0.000 C 
ATOM     23  O   UNL     1       5.506   4.576  18.890  0.00  0.00    +0.000 OA
BRANCH  22  24
ATOM     24  C   UNL     1       3.591   5.267  17.621  0.00  0.00    +0.000 C 
BRANCH  24  31
ATOM     25  C   UNL     1      -0.315  10.546  22.172  0.00  0.00    +0.000 C 
ATOM     26  C   UNL     1       0.505   9.771  21.178  0.00  0.00    +0.000 A 
ATOM     27  C   UNL     1       0.805  10.345  19.958  0.00  0.00    +0.000 A 
ATOM     28  C   UNL     1       1.441   9.581  18.984  0.00  0.00    +0.000 A 
ATOM     29  C   UNL     1       1.841   8.263  19.280  0.00  0.00    +0.000 A 
ATOM     30  C   UNL     1       2.545   7.443  18.359  0.00  0.00    +0.000 A 
ATOM     31  C   UNL     1       2.855   6.110  18.639  0.00  0.00    +0.000 A 
ATOM     32  C   UNL     1       2.442   5.599  19.868  0.00  0.00    +0.000 A 
ATOM     33  C   UNL     1       1.763   6.414  20.791  0.00  0.00    +0.000 A 
ATOM     34  C   UNL     1       1.473   7.751  20.538  0.00  0.00    +0.000 A 
ATOM     35  N   UNL     1       0.818   8.487  21.468  0.00  0.00    +0.000 NA
BRANCH  28  36
ATOM     36  N   UNL     1       1.365  10.034  17.668  0.00  0.00    +0.000 N 
ATOM     37  H   UNL     1       2.129   9.809  17.042  0.00  0.00    +0.000 HD
ATOM     38  H   UNL     1       0.475  10.025  17.186  0.00  0.00    +0.000 HD
ENDBRANCH  28  36
ENDBRANCH  24  31
ENDBRANCH  22  24
ENDBRANCH   1  22
TORSDOF 7
ENDMDL
MODEL 9
REMARK VINA RESULT:      -7.7      3.849     10.121
REMARK  Name = 
REMARK  11 active torsions:
REMARK  status: ('A' for Active; 'I' for Inactive)
REMARK    1  A    between atoms: C_1  and  C_2
REMARK    2  A    between atoms: C_4  and  N_5
REMARK    3  A    between atoms: C_8  and  C_9
REMARK    4  A    between atoms: C_9  and  C_10
REMARK    5  A    between atoms: C_10  and  C_12
REMARK    6  A    between atoms: C_12  and  C_13
REMARK    7  A    between atoms: C_12  and  C_14
REMARK    8  A    between atoms: C_12  and  C_15
REMARK    9  A    between atoms: N_17  and  C_18
REMARK   10  A    between atoms: C_23  and  C_24
REMARK   11  A    between atoms: C_26  and  N_27
REMARK                            x       y       z     vdW  Elec       q    Type
REMARK                         _______ _______ _______ _____ _____    ______ ____
ROOT
ATOM      1  C   UNL     1       0.504  10.529  18.917  0.00  0.00    +0.000 C 
ATOM      2  C   UNL     1      -0.710  10.805  18.003  0.00  0.00    +0.000 C 
ATOM      3  C   UNL     1       1.413  11.776  18.809  0.00  0.00    +0.000 C 
ENDROOT
BRANCH   1   4
ATOM      4  C   UNL     1       1.294   9.279  18.459  0.00  0.00    +0.000 C 
ATOM      5  O   UNL     1       1.453   9.030  17.260  0.00  0.00    +0.000 OA
ATOM      6  N   UNL     1       1.849   8.496  19.468  0.00  0.00    +0.000 N 
ATOM      7  H   UNL     1       1.306   8.489  20.322  0.00  0.00    +0.000 HD
BRANCH   6   8
ATOM      8  C   UNL     1       2.416   7.230  19.151  0.00  0.00    +0.000 A 
ATOM      9  C   UNL     1       3.412   7.115  18.202  0.00  0.00    +0.000 A 
ATOM     10  C   UNL     1       3.917   5.845  17.867  0.00  0.00    +0.000 A 
ATOM     11  C   UNL     1       3.422   4.668  18.415  0.00  0.00    +0.000 A 
ATOM     12  N   UNL     1       3.946   3.478  18.031  0.00  0.00    +0.000 NA
ATOM     13  C   UNL     1       3.467   2.343  18.588  0.00  0.00    +0.000 A 
ATOM     14  C   UNL     1       4.000   1.013  18.146  0.00  0.00    +0.000 C 
ATOM     15  C   UNL     1       2.446   2.345  19.508  0.00  0.00    +0.000 A 
ATOM     16  C   UNL     1       1.842   3.550  19.831  0.00  0.00    +0.000 A 
ATOM     17  C   UNL     1       2.370   4.774  19.345  0.00  0.00    +0.000 A 
ATOM     18  C   UNL     1       1.894   6.065  19.723  0.00  0.00    +0.000 A 
BRANCH  16  19
ATOM     19  N   UNL     1       0.781   3.505  20.746  0.00  0.00    +0.000 N 
ATOM     20  H   UNL     1       0.644   4.388  21.227  0.00  0.00    +0.000 HD
ATOM     21  H   UNL     1       0.932   2.735  21.402  0.00  0.00    +0.000 HD
ENDBRANCH  16  19
ENDBRANCH   6   8
ENDBRANCH   1   4
BRANCH   1  22
ATOM     22  C   UNL     1       0.030  10.378  20.373  0.00  0.00    +0.000 C 
ATOM     23  O   UNL     1      -0.410   9.298  20.784  0.00  0.00    +0.000 OA
BRANCH  22  24
ATOM     24  C   UNL     1       0.046  11.598  21.287  0.00  0.00    +0.000 C 
BRANCH  24  31
ATOM     25  C   UNL     1      -7.483  14.029  22.393  0.00  0.00    +0.000 C 
ATOM     26  C   UNL     1      -6.099  13.666  21.932  0.00  0.00    +0.000 A 
ATOM     27  C   UNL     1      -5.857  13.512  20.582  0.00  0.00    +0.000 A 
ATOM     28  C   UNL     1      -4.616  13.041  20.162  0.00  0.00    +0.000 A 
ATOM     29  C   UNL     1      -3.601  12.804  21.110  0.00  0.00    +0.000 A 
ATOM     30  C   UNL     1      -2.294  12.378  20.753  0.00  0.00    +0.000 A 
ATOM     31  C   UNL     1      -1.329  12.064  21.711  0.00  0.00    +0.000 A 
ATOM     32  C   UNL     1      -1.693  12.179  23.052  0.00  0.00    +0.000 A 
ATOM     33  C   UNL     1      -2.981  12.619  23.408  0.00  0.00    +0.000 A 
ATOM     34  C   UNL     1      -3.943  12.963  22.464  0.00  0.00    +0.000 A 
ATOM     35  N   UNL     1      -5.165  13.384  22.870  0.00  0.00    +0.000 NA
BRANCH  28  36
ATOM     36  N   UNL     1      -4.536  12.519  18.871  0.00  0.00    +0.000 N 
ATOM     37  H   UNL     1      -5.352  12.593  18.276  0.00  0.00    +0.000 HD
ATOM     38  H   UNL     1      -3.679  12.623  18.343  0.00  0.00    +0.000 HD
ENDBRANCH  28  36
ENDBRANCH  24  31
ENDBRANCH  22  24
ENDBRANCH   1  22
TORSDOF 7
ENDMDL
