MODEL 1
REMARK VINA RESULT:      -8.9      0.000      0.000
REMARK  Name = 
REMARK  6 active torsions:
REMARK  status: ('A' for Active; 'I' for Inactive)
REMARK    1  A    between atoms: O_1  and  C_2
REMARK    2  A    between atoms: C_6  and  C_7
REMARK    3  A    between atoms: C_7  and  N_8
REMARK    4  A    between atoms: N_8  and  C_9
REMARK    5  A    between atoms: N_23  and  C_24
REMARK    6  A    between atoms: C_24  and  C_25
REMARK                            x       y       z     vdW  Elec       q    Type
REMARK                         _______ _______ _______ _____ _____    ______ ____
ROOT
ATOM      1  C   UNL     1       8.266   8.285  18.185  0.00  0.00    +0.000 A 
ATOM      2  C   UNL     1       8.615   7.513  19.297  0.00  0.00    +0.000 A 
ATOM      3  C   UNL     1       8.053   6.236  19.526  0.00  0.00    +0.000 A 
ATOM      4  C   UNL     1       7.088   5.703  18.651  0.00  0.00    +0.000 A 
ATOM      5  C   UNL     1       6.851   6.389  17.459  0.00  0.00    +0.000 A 
ATOM      6  C   UNL     1       7.432   7.677  17.248  0.00  0.00    +0.000 A 
ATOM      7  C   UNL     1       5.671   5.958  16.593  0.00  0.00    +0.000 C 
ATOM      8  C   UNL     1       5.955   6.252  15.095  0.00  0.00    +0.000 C 
ATOM      9  C   UNL     1       5.122   5.411  14.117  0.00  0.00    +0.000 C 
ATOM     10  C   UNL     1       5.234   3.882  14.326  0.00  0.00    +0.000 C 
ATOM     11  C   UNL     1       5.883   3.498  15.679  0.00  0.00    +0.000 C 
ATOM     12  C   UNL     1       5.277   4.474  16.669  0.00  0.00    +0.000 C 
ATOM     13  C   UNL     1       5.020   4.074  18.105  0.00  0.00    +0.000 C 
ATOM     14  C   UNL     1       6.226   4.505  19.040  0.00  0.00    +0.000 C 
ATOM     15  N   UNL     1       3.614   4.593  18.395  0.00  0.00    +0.000 NA
ATOM     16  C   UNL     1       3.328   5.916  17.707  0.00  0.00    +0.000 C 
ATOM     17  C   UNL     1       4.527   6.772  17.300  0.00  0.00    +0.000 C 
ENDROOT
BRANCH   1  18
ATOM     18  N   UNL     1       8.650   9.640  18.149  0.00  0.00    +0.000 N 
ATOM     19  H   UNL     1       9.354   9.733  17.412  0.00  0.00    +0.000 HD
BRANCH  18  20
ATOM     20  C   UNL     1       9.156  10.297  19.364  0.00  0.00    +0.000 C 
BRANCH  20  25
ATOM     21  C   UNL     1      11.453  12.650  17.399  0.00  0.00    +0.000 A 
ATOM     22  C   UNL     1      12.333  13.086  18.388  0.00  0.00    +0.000 A 
ATOM     23  C   UNL     1      12.156  12.643  19.699  0.00  0.00    +0.000 A 
ATOM     24  C   UNL     1      11.111  11.764  20.004  0.00  0.00    +0.000 A 
ATOM     25  C   UNL     1      10.224  11.321  19.016  0.00  0.00    +0.000 A 
ATOM     26  C   UNL     1      10.411  11.776  17.694  0.00  0.00    +0.000 A 
BRANCH  21  27
ATOM     27  O   UNL     1      11.609  13.060  16.102  0.00  0.00    +0.000 OA
ATOM     28  H   UNL     1      11.974  12.315  15.595  0.00  0.00    +0.000 HD
ENDBRANCH  21  27
ENDBRANCH  20  25
ENDBRANCH  18  20
ENDBRANCH   1  18
BRANCH  15  29
ATOM     29  C   UNL     1       2.541   3.683  17.815  0.00  0.00    +0.000 C 
BRANCH  29  30
ATOM     30  C   UNL     1       1.706   2.861  18.791  0.00  0.00    +0.000 C 
ATOM     31  C   UNL     1       2.464   2.325  20.017  0.00  0.00    +0.000 C 
ATOM     32  C   UNL     1       1.351   2.865  20.926  0.00  0.00    +0.000 C 
ATOM     33  C   UNL     1       0.846   3.726  19.762  0.00  0.00    +0.000 C 
ENDBRANCH  29  30
ENDBRANCH  15  29
TORSDOF 6
ENDMDL
MODEL 2
REMARK VINA RESULT:      -8.5      0.918      1.076
REMARK  Name = 
REMARK  6 active torsions:
REMARK  status: ('A' for Active; 'I' for Inactive)
REMARK    1  A    between atoms: O_1  and  C_2
REMARK    2  A    between atoms: C_6  and  C_7
REMARK    3  A    between atoms: C_7  and  N_8
REMARK    4  A    between atoms: N_8  and  C_9
REMARK    5  A    between atoms: N_23  and  C_24
REMARK    6  A    between atoms: C_24  and  C_25
REMARK                            x       y       z     vdW  Elec       q    Type
REMARK                         _______ _______ _______ _____ _____    ______ ____
ROOT
ATOM      1  C   UNL     1       8.159   8.412  17.974  0.00  0.00    +0.000 A 
ATOM      2  C   UNL     1       8.589   7.709  19.102  0.00  0.00    +0.000 A 
ATOM      3  C   UNL     1       8.113   6.412  19.400  0.00  0.00    +0.000 A 
ATOM      4  C   UNL     1       7.156   5.786  18.580  0.00  0.00    +0.000 A 
ATOM      5  C   UNL     1       6.841   6.407  17.370  0.00  0.00    +0.000 A 
ATOM      6  C   UNL     1       7.335   7.718  17.090  0.00  0.00    +0.000 A 
ATOM      7  C   UNL     1       5.663   5.871  16.562  0.00  0.00    +0.000 C 
ATOM      8  C   UNL     1       5.881   6.119  15.045  0.00  0.00    +0.000 C 
ATOM      9  C   UNL     1       5.071   5.191  14.130  0.00  0.00    +0.000 C 
ATOM     10  C   UNL     1       5.282   3.681  14.394  0.00  0.00    +0.000 C 
ATOM     11  C   UNL     1       5.996   3.393  15.739  0.00  0.00    +0.000 C 
ATOM     12  C   UNL     1       5.362   4.370  16.710  0.00  0.00    +0.000 C 
ATOM     13  C   UNL     1       5.175   4.016  18.168  0.00  0.00    +0.000 C 
ATOM     14  C   UNL     1       6.382   4.556  19.045  0.00  0.00    +0.000 C 
ATOM     15  N   UNL     1       3.750   4.461  18.485  0.00  0.00    +0.000 NA
ATOM     16  C   UNL     1       3.362   5.735  17.756  0.00  0.00    +0.000 C 
ATOM     17  C   UNL     1       4.493   6.644  17.276  0.00  0.00    +0.000 C 
ENDROOT
BRANCH   1  18
ATOM     18  N   UNL     1       8.458   9.785  17.871  0.00  0.00    +0.000 N 
ATOM     19  H   UNL     1       8.935   9.923  16.976  0.00  0.00    +0.000 HD
BRANCH  18  20
ATOM     20  C   UNL     1       9.241  10.451  18.924  0.00  0.00    +0.000 C 
BRANCH  20  25
ATOM     21  C   UNL     1       9.815  14.014  17.640  0.00  0.00    +0.000 A 
ATOM     22  C   UNL     1      11.141  13.957  17.215  0.00  0.00    +0.000 A 
ATOM     23  C   UNL     1      11.858  12.772  17.380  0.00  0.00    +0.000 A 
ATOM     24  C   UNL     1      11.239  11.657  17.957  0.00  0.00    +0.000 A 
ATOM     25  C   UNL     1       9.908  11.706  18.386  0.00  0.00    +0.000 A 
ATOM     26  C   UNL     1       9.193  12.910  18.214  0.00  0.00    +0.000 A 
BRANCH  21  27
ATOM     27  O   UNL     1       9.084  15.161  17.481  0.00  0.00    +0.000 OA
ATOM     28  H   UNL     1       8.232  15.037  17.933  0.00  0.00    +0.000 HD
ENDBRANCH  21  27
ENDBRANCH  20  25
ENDBRANCH  18  20
ENDBRANCH   1  18
BRANCH  15  29
ATOM     29  C   UNL     1       2.717   3.465  17.978  0.00  0.00    +0.000 C 
BRANCH  29  30
ATOM     30  C   UNL     1       1.983   2.618  19.012  0.00  0.00    +0.000 C 
ATOM     31  C   UNL     1       2.652   2.538  20.393  0.00  0.00    +0.000 C 
ATOM     32  C   UNL     1       1.309   2.884  21.051  0.00  0.00    +0.000 C 
ATOM     33  C   UNL     1       0.786   3.354  19.687  0.00  0.00    +0.000 C 
ENDBRANCH  29  30
ENDBRANCH  15  29
TORSDOF 6
ENDMDL
MODEL 3
REMARK VINA RESULT:      -8.4      7.768     11.322
REMARK  Name = 
REMARK  6 active torsions:
REMARK  status: ('A' for Active; 'I' for Inactive)
REMARK    1  A    between atoms: O_1  and  C_2
REMARK    2  A    between atoms: C_6  and  C_7
REMARK    3  A    between atoms: C_7  and  N_8
REMARK    4  A    between atoms: N_8  and  C_9
REMARK    5  A    between atoms: N_23  and  C_24
REMARK    6  A    between atoms: C_24  and  C_25
REMARK                            x       y       z     vdW  Elec       q    Type
REMARK                         _______ _______ _______ _____ _____    ______ ____
ROOT
ATOM      1  C   UNL     1       1.028   8.381  21.260  0.00  0.00    +0.000 A 
ATOM      2  C   UNL     1       0.775   8.831  22.559  0.00  0.00    +0.000 A 
ATOM      3  C   UNL     1       0.015   9.996  22.810  0.00  0.00    +0.000 A 
ATOM      4  C   UNL     1      -0.494  10.770  21.751  0.00  0.00    +0.000 A 
ATOM      5  C   UNL     1      -0.387  10.247  20.462  0.00  0.00    +0.000 A 
ATOM      6  C   UNL     1       0.385   9.067  20.232  0.00  0.00    +0.000 A 
ATOM      7  C   UNL     1      -0.735  11.147  19.280  0.00  0.00    +0.000 C 
ATOM      8  C   UNL     1      -1.265  10.304  18.088  0.00  0.00    +0.000 C 
ATOM      9  C   UNL     1      -2.120  11.094  17.087  0.00  0.00    +0.000 C 
ATOM     10  C   UNL     1      -3.326  11.835  17.713  0.00  0.00    +0.000 C 
ATOM     11  C   UNL     1      -3.250  11.924  19.258  0.00  0.00    +0.000 C 
ATOM     12  C   UNL     1      -1.793  12.233  19.539  0.00  0.00    +0.000 C 
ATOM     13  C   UNL     1      -1.387  13.087  20.719  0.00  0.00    +0.000 C 
ATOM     14  C   UNL     1      -1.016  12.188  21.972  0.00  0.00    +0.000 C 
ATOM     15  N   UNL     1      -0.352  14.053  20.148  0.00  0.00    +0.000 NA
ATOM     16  C   UNL     1       0.526  13.407  19.090  0.00  0.00    +0.000 C 
ATOM     17  C   UNL     1       0.644  11.883  19.107  0.00  0.00    +0.000 C 
ENDROOT
BRANCH   1  18
ATOM     18  N   UNL     1       2.000   7.381  21.063  0.00  0.00    +0.000 N 
ATOM     19  H   UNL     1       2.893   7.760  21.391  0.00  0.00    +0.000 HD
BRANCH  18  20
ATOM     20  C   UNL     1       2.202   6.800  19.726  0.00  0.00    +0.000 C 
BRANCH  20  25
ATOM     21  C   UNL     1       1.588   3.207  20.904  0.00  0.00    +0.000 A 
ATOM     22  C   UNL     1       1.497   2.519  19.696  0.00  0.00    +0.000 A 
ATOM     23  C   UNL     1       1.599   3.229  18.500  0.00  0.00    +0.000 A 
ATOM     24  C   UNL     1       1.800   4.614  18.525  0.00  0.00    +0.000 A 
ATOM     25  C   UNL     1       1.893   5.312  19.735  0.00  0.00    +0.000 A 
ATOM     26  C   UNL     1       1.788   4.584  20.938  0.00  0.00    +0.000 A 
BRANCH  21  27
ATOM     27  O   UNL     1       1.501   2.535  22.094  0.00  0.00    +0.000 OA
ATOM     28  H   UNL     1       1.467   3.194  22.808  0.00  0.00    +0.000 HD
ENDBRANCH  21  27
ENDBRANCH  20  25
ENDBRANCH  18  20
ENDBRANCH   1  18
BRANCH  15  29
ATOM     29  C   UNL     1      -1.003  15.195  19.381  0.00  0.00    +0.000 C 
BRANCH  29  30
ATOM     30  C   UNL     1      -0.090  16.135  18.601  0.00  0.00    +0.000 C 
ATOM     31  C   UNL     1      -0.773  17.381  18.015  0.00  0.00    +0.000 C 
ATOM     32  C   UNL     1       0.339  18.256  18.611  0.00  0.00    +0.000 C 
ATOM     33  C   UNL     1       0.754  17.082  19.507  0.00  0.00    +0.000 C 
ENDBRANCH  29  30
ENDBRANCH  15  29
TORSDOF 6
ENDMDL
MODEL 4
REMARK VINA RESULT:      -8.3      7.411     11.035
REMARK  Name = 
REMARK  6 active torsions:
REMARK  status: ('A' for Active; 'I' for Inactive)
REMARK    1  A    between atoms: O_1  and  C_2
REMARK    2  A    between atoms: C_6  and  C_7
REMARK    3  A    between atoms: C_7  and  N_8
REMARK    4  A    between atoms: N_8  and  C_9
REMARK    5  A    between atoms: N_23  and  C_24
REMARK    6  A    between atoms: C_24  and  C_25
REMARK                            x       y       z     vdW  Elec       q    Type
REMARK                         _______ _______ _______ _____ _____    ______ ____
ROOT
ATOM      1  C   UNL     1       1.000   8.322  21.256  0.00  0.00    +0.000 A 
ATOM      2  C   UNL     1       0.843   8.920  22.509  0.00  0.00    +0.000 A 
ATOM      3  C   UNL     1       0.181  10.158  22.668  0.00  0.00    +0.000 A 
ATOM      4  C   UNL     1      -0.323  10.857  21.555  0.00  0.00    +0.000 A 
ATOM      5  C   UNL     1      -0.316  10.199  20.324  0.00  0.00    +0.000 A 
ATOM      6  C   UNL     1       0.357   8.946  20.189  0.00  0.00    +0.000 A 
ATOM      7  C   UNL     1      -0.656  10.997  19.069  0.00  0.00    +0.000 C 
ATOM      8  C   UNL     1      -1.303  10.080  17.996  0.00  0.00    +0.000 C 
ATOM      9  C   UNL     1      -2.146  10.826  16.953  0.00  0.00    +0.000 C 
ATOM     10  C   UNL     1      -3.264  11.717  17.546  0.00  0.00    +0.000 C 
ATOM     11  C   UNL     1      -3.107  11.957  19.069  0.00  0.00    +0.000 C 
ATOM     12  C   UNL     1      -1.620  12.181  19.256  0.00  0.00    +0.000 C 
ATOM     13  C   UNL     1      -1.097  13.118  20.322  0.00  0.00    +0.000 C 
ATOM     14  C   UNL     1      -0.731  12.325  21.646  0.00  0.00    +0.000 C 
ATOM     15  N   UNL     1      -0.025  13.939  19.610  0.00  0.00    +0.000 NA
ATOM     16  C   UNL     1       0.753  13.124  18.591  0.00  0.00    +0.000 C 
ATOM     17  C   UNL     1       0.762  11.605  18.764  0.00  0.00    +0.000 C 
ENDROOT
BRANCH   1  18
ATOM     18  N   UNL     1       1.887   7.235  21.126  0.00  0.00    +0.000 N 
ATOM     19  H   UNL     1       2.710   7.449  21.696  0.00  0.00    +0.000 HD
BRANCH  18  20
ATOM     20  C   UNL     1       2.340   6.808  19.793  0.00  0.00    +0.000 C 
BRANCH  20  25
ATOM     21  C   UNL     1       1.925   3.382  18.130  0.00  0.00    +0.000 A 
ATOM     22  C   UNL     1       1.240   2.667  19.111  0.00  0.00    +0.000 A 
ATOM     23  C   UNL     1       0.947   3.287  20.325  0.00  0.00    +0.000 A 
ATOM     24  C   UNL     1       1.331   4.616  20.541  0.00  0.00    +0.000 A 
ATOM     25  C   UNL     1       2.018   5.341  19.560  0.00  0.00    +0.000 A 
ATOM     26  C   UNL     1       2.310   4.703  18.337  0.00  0.00    +0.000 A 
BRANCH  21  27
ATOM     27  O   UNL     1       2.217   2.801  16.925  0.00  0.00    +0.000 OA
ATOM     28  H   UNL     1       2.710   1.982  17.100  0.00  0.00    +0.000 HD
ENDBRANCH  21  27
ENDBRANCH  20  25
ENDBRANCH  18  20
ENDBRANCH   1  18
BRANCH  15  29
ATOM     29  C   UNL     1      -0.629  15.043  18.755  0.00  0.00    +0.000 C 
BRANCH  29  30
ATOM     30  C   UNL     1      -0.141  16.468  18.990  0.00  0.00    +0.000 C 
ATOM     31  C   UNL     1       0.217  16.810  20.445  0.00  0.00    +0.000 C 
ATOM     32  C   UNL     1       1.554  17.394  19.967  0.00  0.00    +0.000 C 
ATOM     33  C   UNL     1       1.358  16.685  18.621  0.00  0.00    +0.000 C 
ENDBRANCH  29  30
ENDBRANCH  15  29
TORSDOF 6
ENDMDL
MODEL 5
REMARK VINA RESULT:      -8.3      7.458     10.795
REMARK  Name = 
REMARK  6 active torsions:
REMARK  status: ('A' for Active; 'I' for Inactive)
REMARK    1  A    between atoms: O_1  and  C_2
REMARK    2  A    between atoms: C_6  and  C_7
REMARK    3  A    between atoms: C_7  and  N_8
REMARK    4  A    between atoms: N_8  and  C_9
REMARK    5  A    between atoms: N_23  and  C_24
REMARK    6  A    between atoms: C_24  and  C_25
REMARK                            x       y       z     vdW  Elec       q    Type
REMARK                         _______ _______ _______ _____ _____    ______ ____
ROOT
ATOM      1  C   UNL     1       1.295   8.279  20.818  0.00  0.00    +0.000 A 
ATOM      2  C   UNL     1       1.207   8.687  22.152  0.00  0.00    +0.000 A 
ATOM      3  C   UNL     1       0.504   9.853  22.531  0.00  0.00    +0.000 A 
ATOM      4  C   UNL     1      -0.114  10.671  21.567  0.00  0.00    +0.000 A 
ATOM      5  C   UNL     1      -0.171  10.192  20.258  0.00  0.00    +0.000 A 
ATOM      6  C   UNL     1       0.546   9.010  19.898  0.00  0.00    +0.000 A 
ATOM      7  C   UNL     1      -0.642  11.138  19.157  0.00  0.00    +0.000 C 
ATOM      8  C   UNL     1      -1.327  10.345  18.010  0.00  0.00    +0.000 C 
ATOM      9  C   UNL     1      -2.280  11.181  17.146  0.00  0.00    +0.000 C 
ATOM     10  C   UNL     1      -3.389  11.916  17.936  0.00  0.00    +0.000 C 
ATOM     11  C   UNL     1      -3.128  11.950  19.463  0.00  0.00    +0.000 C 
ATOM     12  C   UNL     1      -1.642  12.228  19.577  0.00  0.00    +0.000 C 
ATOM     13  C   UNL     1      -1.082  13.035  20.727  0.00  0.00    +0.000 C 
ATOM     14  C   UNL     1      -0.580  12.087  21.896  0.00  0.00    +0.000 C 
ATOM     15  N   UNL     1      -0.106  14.006  20.068  0.00  0.00    +0.000 NA
ATOM     16  C   UNL     1       0.628  13.385  18.892  0.00  0.00    +0.000 C 
ATOM     17  C   UNL     1       0.719  11.860  18.844  0.00  0.00    +0.000 C 
ENDROOT
BRANCH   1  18
ATOM     18  N   UNL     1       2.218   7.273  20.473  0.00  0.00    +0.000 N 
ATOM     19  H   UNL     1       3.071   7.449  21.010  0.00  0.00    +0.000 HD
BRANCH  18  20
ATOM     20  C   UNL     1       2.589   7.064  19.064  0.00  0.00    +0.000 C 
BRANCH  20  25
ATOM     21  C   UNL     1       4.216   3.597  18.958  0.00  0.00    +0.000 A 
ATOM     22  C   UNL     1       3.362   2.904  18.103  0.00  0.00    +0.000 A 
ATOM     23  C   UNL     1       2.238   3.553  17.591  0.00  0.00    +0.000 A 
ATOM     24  C   UNL     1       1.988   4.887  17.931  0.00  0.00    +0.000 A 
ATOM     25  C   UNL     1       2.841   5.590  18.789  0.00  0.00    +0.000 A 
ATOM     26  C   UNL     1       3.974   4.924  19.300  0.00  0.00    +0.000 A 
BRANCH  21  27
ATOM     27  O   UNL     1       5.333   2.988  19.467  0.00  0.00    +0.000 OA
ATOM     28  H   UNL     1       6.100   3.545  19.251  0.00  0.00    +0.000 HD
ENDBRANCH  21  27
ENDBRANCH  20  25
ENDBRANCH  18  20
ENDBRANCH   1  18
BRANCH  15  29
ATOM     29  C   UNL     1      -0.823  15.183  19.423  0.00  0.00    +0.000 C 
BRANCH  29  30
ATOM     30  C   UNL     1       0.009  16.141  18.577  0.00  0.00    +0.000 C 
ATOM     31  C   UNL     1      -0.754  17.346  18.004  0.00  0.00    +0.000 C 
ATOM     32  C   UNL     1       0.350  18.278  18.523  0.00  0.00    +0.000 C 
ATOM     33  C   UNL     1       0.859  17.141  19.418  0.00  0.00    +0.000 C 
ENDBRANCH  29  30
ENDBRANCH  15  29
TORSDOF 6
ENDMDL
MODEL 6
REMARK VINA RESULT:      -8.3      5.566      8.544
REMARK  Name = 
REMARK  6 active torsions:
REMARK  status: ('A' for Active; 'I' for Inactive)
REMARK    1  A    between atoms: O_1  and  C_2
REMARK    2  A    between atoms: C_6  and  C_7
REMARK    3  A    between atoms: C_7  and  N_8
REMARK    4  A    between atoms: N_8  and  C_9
REMARK    5  A    between atoms: N_23  and  C_24
REMARK    6  A    between atoms: C_24  and  C_25
REMARK                            x       y       z     vdW  Elec       q    Type
REMARK                         _______ _______ _______ _____ _____    ______ ____
ROOT
ATOM      1  C   UNL     1       1.071   9.073  20.456  0.00  0.00    +0.000 A 
ATOM      2  C   UNL     1       1.353   9.784  19.286  0.00  0.00    +0.000 A 
ATOM      3  C   UNL     1       1.925   9.161  18.154  0.00  0.00    +0.000 A 
ATOM      4  C   UNL     1       2.264   7.795  18.173  0.00  0.00    +0.000 A 
ATOM      5  C   UNL     1       1.842   7.043  19.269  0.00  0.00    +0.000 A 
ATOM      6  C   UNL     1       1.264   7.693  20.402  0.00  0.00    +0.000 A 
ATOM      7  C   UNL     1       2.369   5.619  19.421  0.00  0.00    +0.000 C 
ATOM      8  C   UNL     1       1.336   4.729  20.164  0.00  0.00    +0.000 C 
ATOM      9  C   UNL     1       1.502   3.224  19.912  0.00  0.00    +0.000 C 
ATOM     10  C   UNL     1       1.488   2.815  18.419  0.00  0.00    +0.000 C 
ATOM     11  C   UNL     1       1.654   4.019  17.458  0.00  0.00    +0.000 C 
ATOM     12  C   UNL     1       2.714   4.877  18.119  0.00  0.00    +0.000 C 
ATOM     13  C   UNL     1       3.689   5.690  17.297  0.00  0.00    +0.000 C 
ATOM     14  C   UNL     1       3.177   7.180  17.115  0.00  0.00    +0.000 C 
ATOM     15  N   UNL     1       5.043   5.430  17.952  0.00  0.00    +0.000 NA
ATOM     16  C   UNL     1       4.945   5.300  19.462  0.00  0.00    +0.000 C 
ATOM     17  C   UNL     1       3.731   5.929  20.146  0.00  0.00    +0.000 C 
ENDROOT
BRANCH   1  18
ATOM     18  N   UNL     1       0.754   9.787  21.628  0.00  0.00    +0.000 N 
ATOM     19  H   UNL     1      -0.123   9.400  21.988  0.00  0.00    +0.000 HD
BRANCH  18  20
ATOM     20  C   UNL     1       0.636  11.253  21.590  0.00  0.00    +0.000 C 
BRANCH  20  25
ATOM     21  C   UNL     1      -2.851  12.669  20.876  0.00  0.00    +0.000 A 
ATOM     22  C   UNL     1      -3.444  12.625  22.136  0.00  0.00    +0.000 A 
ATOM     23  C   UNL     1      -2.723  12.100  23.208  0.00  0.00    +0.000 A 
ATOM     24  C   UNL     1      -1.417  11.637  23.012  0.00  0.00    +0.000 A 
ATOM     25  C   UNL     1      -0.815  11.680  21.749  0.00  0.00    +0.000 A 
ATOM     26  C   UNL     1      -1.553  12.212  20.672  0.00  0.00    +0.000 A 
BRANCH  21  27
ATOM     27  O   UNL     1      -3.532  13.189  19.806  0.00  0.00    +0.000 OA
ATOM     28  H   UNL     1      -4.313  13.656  20.149  0.00  0.00    +0.000 HD
ENDBRANCH  21  27
ENDBRANCH  20  25
ENDBRANCH  18  20
ENDBRANCH   1  18
BRANCH  15  29
ATOM     29  C   UNL     1       5.623   4.084  17.544  0.00  0.00    +0.000 C 
BRANCH  29  30
ATOM     30  C   UNL     1       6.588   4.056  16.364  0.00  0.00    +0.000 C 
ATOM     31  C   UNL     1       5.948   3.770  14.996  0.00  0.00    +0.000 C 
ATOM     32  C   UNL     1       6.686   4.981  14.409  0.00  0.00    +0.000 C 
ATOM     33  C   UNL     1       6.969   5.472  15.835  0.00  0.00    +0.000 C 
ENDBRANCH  29  30
ENDBRANCH  15  29
TORSDOF 6
ENDMDL
MODEL 7
REMARK VINA RESULT:      -8.2      5.292      8.237
REMARK  Name = 
REMARK  6 active torsions:
REMARK  status: ('A' for Active; 'I' for Inactive)
REMARK    1  A    between atoms: O_1  and  C_2
REMARK    2  A    between atoms: C_6  and  C_7
REMARK    3  A    between atoms: C_7  and  N_8
REMARK    4  A    between atoms: N_8  and  C_9
REMARK    5  A    between atoms: N_23  and  C_24
REMARK    6  A    between atoms: C_24  and  C_25
REMARK                            x       y       z     vdW  Elec       q    Type
REMARK                         _______ _______ _______ _____ _____    ______ ____
ROOT
ATOM      1  C   UNL     1       1.207   8.793  20.941  0.00  0.00    +0.000 A 
ATOM      2  C   UNL     1       1.398   9.542  19.776  0.00  0.00    +0.000 A 
ATOM      3  C   UNL     1       1.819   8.946  18.566  0.00  0.00    +0.000 A 
ATOM      4  C   UNL     1       2.094   7.567  18.495  0.00  0.00    +0.000 A 
ATOM      5  C   UNL     1       1.753   6.786  19.601  0.00  0.00    +0.000 A 
ATOM      6  C   UNL     1       1.328   7.411  20.813  0.00  0.00    +0.000 A 
ATOM      7  C   UNL     1       2.226   5.336  19.640  0.00  0.00    +0.000 C 
ATOM      8  C   UNL     1       1.235   4.459  20.453  0.00  0.00    +0.000 C 
ATOM      9  C   UNL     1       1.303   2.961  20.126  0.00  0.00    +0.000 C 
ATOM     10  C   UNL     1       1.114   2.619  18.628  0.00  0.00    +0.000 C 
ATOM     11  C   UNL     1       1.235   3.855  17.702  0.00  0.00    +0.000 C 
ATOM     12  C   UNL     1       2.397   4.638  18.281  0.00  0.00    +0.000 C 
ATOM     13  C   UNL     1       3.319   5.443  17.392  0.00  0.00    +0.000 C 
ATOM     14  C   UNL     1       2.861   6.960  17.324  0.00  0.00    +0.000 C 
ATOM     15  N   UNL     1       4.720   5.097  17.889  0.00  0.00    +0.000 NA
ATOM     16  C   UNL     1       4.774   4.906  19.395  0.00  0.00    +0.000 C 
ATOM     17  C   UNL     1       3.669   5.556  20.227  0.00  0.00    +0.000 C 
ENDROOT
BRANCH   1  18
ATOM     18  N   UNL     1       1.047   9.468  22.167  0.00  0.00    +0.000 N 
ATOM     19  H   UNL     1       1.663   9.011  22.844  0.00  0.00    +0.000 HD
BRANCH  18  20
ATOM     20  C   UNL     1      -0.290   9.603  22.767  0.00  0.00    +0.000 C 
BRANCH  20  25
ATOM     21  C   UNL     1      -0.564  13.303  21.816  0.00  0.00    +0.000 A 
ATOM     22  C   UNL     1      -1.716  13.692  22.496  0.00  0.00    +0.000 A 
ATOM     23  C   UNL     1      -2.423  12.741  23.233  0.00  0.00    +0.000 A 
ATOM     24  C   UNL     1      -1.965  11.420  23.290  0.00  0.00    +0.000 A 
ATOM     25  C   UNL     1      -0.808  11.023  22.610  0.00  0.00    +0.000 A 
ATOM     26  C   UNL     1      -0.102  11.992  21.867  0.00  0.00    +0.000 A 
BRANCH  21  27
ATOM     27  O   UNL     1       0.156  14.217  21.093  0.00  0.00    +0.000 OA
ATOM     28  H   UNL     1      -0.462  14.686  20.506  0.00  0.00    +0.000 HD
ENDBRANCH  21  27
ENDBRANCH  20  25
ENDBRANCH  18  20
ENDBRANCH   1  18
BRANCH  15  29
ATOM     29  C   UNL     1       5.191   3.746  17.370  0.00  0.00    +0.000 C 
BRANCH  29  30
ATOM     30  C   UNL     1       6.031   3.730  16.098  0.00  0.00    +0.000 C 
ATOM     31  C   UNL     1       5.389   4.405  14.875  0.00  0.00    +0.000 C 
ATOM     32  C   UNL     1       6.686   5.193  14.643  0.00  0.00    +0.000 C 
ATOM     33  C   UNL     1       7.135   4.830  16.064  0.00  0.00    +0.000 C 
ENDBRANCH  29  30
ENDBRANCH  15  29
TORSDOF 6
ENDMDL
MODEL 8
REMARK VINA RESULT:      -8.2      7.414     10.795
REMARK  Name = 
REMARK  6 active torsions:
REMARK  status: ('A' for Active; 'I' for Inactive)
REMARK    1  A    between atoms: O_1  and  C_2
REMARK    2  A    between atoms: C_6  and  C_7
REMARK    3  A    between atoms: C_7  and  N_8
REMARK    4  A    between atoms: N_8  and  C_9
REMARK    5  A    between atoms: N_23  and  C_24
REMARK    6  A    between atoms: C_24  and  C_25
REMARK                            x       y       z     vdW  Elec       q    Type
REMARK                         _______ _______ _______ _____ _____    ______ ____
ROOT
ATOM      1  C   UNL     1       1.298   8.199  20.932  0.00  0.00    +0.000 A 
ATOM      2  C   UNL     1       1.205   8.745  22.215  0.00  0.00    +0.000 A 
ATOM      3  C   UNL     1       0.540   9.968  22.459  0.00  0.00    +0.000 A 
ATOM      4  C   UNL     1      -0.033  10.704  21.404  0.00  0.00    +0.000 A 
ATOM      5  C   UNL     1      -0.087  10.095  20.150  0.00  0.00    +0.000 A 
ATOM      6  C   UNL     1       0.591   8.857  19.928  0.00  0.00    +0.000 A 
ATOM      7  C   UNL     1      -0.505  10.938  18.949  0.00  0.00    +0.000 C 
ATOM      8  C   UNL     1      -1.200  10.056  17.877  0.00  0.00    +0.000 C 
ATOM      9  C   UNL     1      -2.108  10.832  16.913  0.00  0.00    +0.000 C 
ATOM     10  C   UNL     1      -3.201  11.684  17.602  0.00  0.00    +0.000 C 
ATOM     11  C   UNL     1      -2.962  11.865  19.122  0.00  0.00    +0.000 C 
ATOM     12  C   UNL     1      -1.469  12.101  19.236  0.00  0.00    +0.000 C 
ATOM     13  C   UNL     1      -0.898  13.001  20.308  0.00  0.00    +0.000 C 
ATOM     14  C   UNL     1      -0.450  12.162  21.577  0.00  0.00    +0.000 C 
ATOM     15  N   UNL     1       0.124  13.864  19.572  0.00  0.00    +0.000 NA
ATOM     16  C   UNL     1       0.853  13.100  18.480  0.00  0.00    +0.000 C 
ATOM     17  C   UNL     1       0.888  11.575  18.590  0.00  0.00    +0.000 C 
ENDROOT
BRANCH   1  18
ATOM     18  N   UNL     1       2.188   7.130  20.709  0.00  0.00    +0.000 N 
ATOM     19  H   UNL     1       2.695   7.336  19.844  0.00  0.00    +0.000 HD
BRANCH  18  20
ATOM     20  C   UNL     1       1.682   5.751  20.637  0.00  0.00    +0.000 C 
BRANCH  20  25
ATOM     21  C   UNL     1       2.521   3.052  18.051  0.00  0.00    +0.000 A 
ATOM     22  C   UNL     1       3.391   3.729  17.199  0.00  0.00    +0.000 A 
ATOM     23  C   UNL     1       3.676   5.072  17.446  0.00  0.00    +0.000 A 
ATOM     24  C   UNL     1       3.097   5.718  18.544  0.00  0.00    +0.000 A 
ATOM     25  C   UNL     1       2.222   5.045  19.403  0.00  0.00    +0.000 A 
ATOM     26  C   UNL     1       1.941   3.687  19.144  0.00  0.00    +0.000 A 
BRANCH  21  27
ATOM     27  O   UNL     1       2.231   1.730  17.839  0.00  0.00    +0.000 OA
ATOM     28  H   UNL     1       1.437   1.512  18.356  0.00  0.00    +0.000 HD
ENDBRANCH  21  27
ENDBRANCH  20  25
ENDBRANCH  18  20
ENDBRANCH   1  18
BRANCH  15  29
ATOM     29  C   UNL     1      -0.538  14.993  18.796  0.00  0.00    +0.000 C 
BRANCH  29  30
ATOM     30  C   UNL     1       0.012  16.402  18.989  0.00  0.00    +0.000 C 
ATOM     31  C   UNL     1       1.439  16.630  18.464  0.00  0.00    +0.000 C 
ATOM     32  C   UNL     1       0.957  17.891  17.734  0.00  0.00    +0.000 C 
ATOM     33  C   UNL     1      -0.491  17.421  17.921  0.00  0.00    +0.000 C 
ENDBRANCH  29  30
ENDBRANCH  15  29
TORSDOF 6
ENDMDL
MODEL 9
REMARK VINA RESULT:      -8.2      7.598     11.055
REMARK  Name = 
REMARK  6 active torsions:
REMARK  status: ('A' for Active; 'I' for Inactive)
REMARK    1  A    between atoms: O_1  and  C_2
REMARK    2  A    between atoms: C_6  and  C_7
REMARK    3  A    between atoms: C_7  and  N_8
REMARK    4  A    between atoms: N_8  and  C_9
REMARK    5  A    between atoms: N_23  and  C_24
REMARK    6  A    between atoms: C_24  and  C_25
REMARK                            x       y       z     vdW  Elec       q    Type
REMARK                         _______ _______ _______ _____ _____    ______ ____
ROOT
ATOM      1  C   UNL     1       1.045   8.275  21.225  0.00  0.00    +0.000 A 
ATOM      2  C   UNL     1       0.883   8.882  22.473  0.00  0.00    +0.000 A 
ATOM      3  C   UNL     1       0.216  10.120  22.621  0.00  0.00    +0.000 A 
ATOM      4  C   UNL     1      -0.287  10.808  21.501  0.00  0.00    +0.000 A 
ATOM      5  C   UNL     1      -0.274  10.140  20.276  0.00  0.00    +0.000 A 
ATOM      6  C   UNL     1       0.403   8.889  20.152  0.00  0.00    +0.000 A 
ATOM      7  C   UNL     1      -0.615  10.928  19.014  0.00  0.00    +0.000 C 
ATOM      8  C   UNL     1      -1.255  10.001  17.946  0.00  0.00    +0.000 C 
ATOM      9  C   UNL     1      -2.098  10.736  16.895  0.00  0.00    +0.000 C 
ATOM     10  C   UNL     1      -3.221  11.627  17.479  0.00  0.00    +0.000 C 
ATOM     11  C   UNL     1      -3.069  11.879  19.000  0.00  0.00    +0.000 C 
ATOM     12  C   UNL     1      -1.583  12.110  19.189  0.00  0.00    +0.000 C 
ATOM     13  C   UNL     1      -1.065  13.057  20.249  0.00  0.00    +0.000 C 
ATOM     14  C   UNL     1      -0.700  12.276  21.581  0.00  0.00    +0.000 C 
ATOM     15  N   UNL     1       0.005  13.876  19.534  0.00  0.00    +0.000 NA
ATOM     16  C   UNL     1       0.788  13.056  18.523  0.00  0.00    +0.000 C 
ATOM     17  C   UNL     1       0.802  11.539  18.707  0.00  0.00    +0.000 C 
ENDROOT
BRANCH   1  18
ATOM     18  N   UNL     1       1.936   7.191  21.105  0.00  0.00    +0.000 N 
ATOM     19  H   UNL     1       2.808   7.465  21.566  0.00  0.00    +0.000 HD
BRANCH  18  20
ATOM     20  C   UNL     1       2.261   6.646  19.778  0.00  0.00    +0.000 C 
BRANCH  20  25
ATOM     21  C   UNL     1       3.182   2.981  19.146  0.00  0.00    +0.000 A 
ATOM     22  C   UNL     1       2.109   2.309  19.729  0.00  0.00    +0.000 A 
ATOM     23  C   UNL     1       1.106   3.047  20.358  0.00  0.00    +0.000 A 
ATOM     24  C   UNL     1       1.181   4.444  20.388  0.00  0.00    +0.000 A 
ATOM     25  C   UNL     1       2.256   5.126  19.805  0.00  0.00    +0.000 A 
ATOM     26  C   UNL     1       3.264   4.370  19.172  0.00  0.00    +0.000 A 
BRANCH  21  27
ATOM     27  O   UNL     1       4.175   2.283  18.513  0.00  0.00    +0.000 OA
ATOM     28  H   UNL     1       4.942   2.247  19.110  0.00  0.00    +0.000 HD
ENDBRANCH  21  27
ENDBRANCH  20  25
ENDBRANCH  18  20
ENDBRANCH   1  18
BRANCH  15  29
ATOM     29  C   UNL     1      -0.600  14.972  18.669  0.00  0.00    +0.000 C 
BRANCH  29  30
ATOM     30  C   UNL     1      -0.366  16.418  19.091  0.00  0.00    +0.000 C 
ATOM     31  C   UNL     1      -0.258  17.431  17.939  0.00  0.00    +0.000 C 
ATOM     32  C   UNL     1      -1.272  18.335  18.656  0.00  0.00    +0.000 C 
ATOM     33  C   UNL     1      -1.661  17.153  19.552  0.00  0.00    +0.000 C 
ENDBRANCH  29  30
ENDBRANCH  15  29
TORSDOF 6
ENDMDL
