MODEL 1
REMARK VINA RESULT:      -9.0      0.000      0.000
REMARK  Name = 
REMARK  8 active torsions:
REMARK  status: ('A' for Active; 'I' for Inactive)
REMARK    1  A    between atoms: C_1  and  O_2
REMARK    2  A    between atoms: O_2  and  C_3
REMARK    3  A    between atoms: C_6  and  N_7
REMARK    4  A    between atoms: C_13  and  C_14
REMARK    5  A    between atoms: C_14  and  S_15
REMARK    6  A    between atoms: S_15  and  C_16
REMARK    7  A    between atoms: C_19  and  C_20
REMARK    8  A    between atoms: N_26  and  C_27
REMARK                            x       y       z     vdW  Elec       q    Type
REMARK                         _______ _______ _______ _____ _____    ______ ____
ROOT
ATOM      1  N   UNL     1       7.254   5.627  15.606  0.00  0.00    +0.000 N 
ATOM      2  C   UNL     1       6.733   5.547  16.904  0.00  0.00    +0.000 A 
ATOM      3  N   UNL     1       7.593   5.689  17.905  0.00  0.00    +0.000 NA
ATOM      4  C   UNL     1       7.073   5.560  19.116  0.00  0.00    +0.000 A 
ATOM      5  N   UNL     1       7.930   5.694  20.192  0.00  0.00    +0.000 N 
ATOM      6  N   UNL     1       5.799   5.321  19.384  0.00  0.00    +0.000 NA
ATOM      7  C   UNL     1       4.998   5.225  18.321  0.00  0.00    +0.000 A 
ATOM      8  N   UNL     1       5.428   5.326  17.067  0.00  0.00    +0.000 NA
ATOM      9  H   UNL     1       8.263   5.663  15.681  0.00  0.00    +0.000 HD
ATOM     10  H   UNL     1       8.742   6.238  19.938  0.00  0.00    +0.000 HD
ATOM     11  H   UNL     1       7.417   5.985  21.012  0.00  0.00    +0.000 HD
ENDROOT
BRANCH   1  15
ATOM     12  C   UNL     1       5.891   3.338  12.321  0.00  0.00    +0.000 A 
ATOM     13  C   UNL     1       5.093   3.515  13.453  0.00  0.00    +0.000 A 
ATOM     14  C   UNL     1       5.543   4.292  14.527  0.00  0.00    +0.000 A 
ATOM     15  C   UNL     1       6.820   4.860  14.507  0.00  0.00    +0.000 A 
ATOM     16  C   UNL     1       7.604   4.691  13.359  0.00  0.00    +0.000 A 
ATOM     17  C   UNL     1       7.151   3.928  12.278  0.00  0.00    +0.000 A 
BRANCH  12  19
ATOM     18  C   UNL     1       6.144   1.410  10.985  0.00  0.00    +0.000 C 
ATOM     19  O   UNL     1       5.362   2.545  11.341  0.00  0.00    +0.000 OA
ENDBRANCH  12  19
ENDBRANCH   1  15
BRANCH   7  20
ATOM     20  C   UNL     1       3.521   4.955  18.537  0.00  0.00    +0.000 C 
BRANCH  20  21
ATOM     21  S   UNL     1       2.832   6.011  19.848  0.00  0.00    +0.000 S 
BRANCH  21  22
ATOM     22  C   UNL     1       2.417   7.469  18.999  0.00  0.00    +0.000 A 
ATOM     23  N   UNL     1       2.670   7.704  17.733  0.00  0.00    +0.000 NA
ATOM     24  N   UNL     1       2.094   8.904  17.404  0.00  0.00    +0.000 NA
ATOM     25  C   UNL     1       1.515   9.417  18.478  0.00  0.00    +0.000 A 
ATOM     26  N   UNL     1       1.646   8.496  19.531  0.00  0.00    +0.000 N 
BRANCH  25  27
ATOM     27  C   UNL     1       0.905  10.765  18.522  0.00  0.00    +0.000 A 
ATOM     28  C   UNL     1       1.723  11.896  18.584  0.00  0.00    +0.000 A 
ATOM     29  C   UNL     1       1.131  13.150  18.555  0.00  0.00    +0.000 A 
ATOM     30  N   UNL     1      -0.197  13.358  18.455  0.00  0.00    +0.000 NA
ATOM     31  C   UNL     1      -0.975  12.262  18.440  0.00  0.00    +0.000 A 
ATOM     32  C   UNL     1      -0.479  10.970  18.515  0.00  0.00    +0.000 A 
ENDBRANCH  25  27
BRANCH  26  33
ATOM     33  C   UNL     1       1.139   8.634  20.855  0.00  0.00    +0.000 A 
ATOM     34  C   UNL     1      -0.210   8.358  21.124  0.00  0.00    +0.000 A 
ATOM     35  C   UNL     1      -0.771   8.738  22.345  0.00  0.00    +0.000 A 
ATOM     36  C   UNL     1       0.024   9.333  23.322  0.00  0.00    +0.000 A 
ATOM     37  C   UNL     1       1.385   9.528  23.092  0.00  0.00    +0.000 A 
ATOM     38  C   UNL     1       1.944   9.186  21.860  0.00  0.00    +0.000 A 
ENDBRANCH  26  33
ENDBRANCH  21  22
ENDBRANCH  20  21
ENDBRANCH   7  20
TORSDOF 7
ENDMDL
MODEL 2
REMARK VINA RESULT:      -8.7      3.437      5.527
REMARK  Name = 
REMARK  8 active torsions:
REMARK  status: ('A' for Active; 'I' for Inactive)
REMARK    1  A    between atoms: C_1  and  O_2
REMARK    2  A    between atoms: O_2  and  C_3
REMARK    3  A    between atoms: C_6  and  N_7
REMARK    4  A    between atoms: C_13  and  C_14
REMARK    5  A    between atoms: C_14  and  S_15
REMARK    6  A    between atoms: S_15  and  C_16
REMARK    7  A    between atoms: C_19  and  C_20
REMARK    8  A    between atoms: N_26  and  C_27
REMARK                            x       y       z     vdW  Elec       q    Type
REMARK                         _______ _______ _______ _____ _____    ______ ____
ROOT
ATOM      1  N   UNL     1       4.716   4.174  18.758  0.00  0.00    +0.000 N 
ATOM      2  C   UNL     1       3.443   4.358  19.316  0.00  0.00    +0.000 A 
ATOM      3  N   UNL     1       2.522   3.449  19.021  0.00  0.00    +0.000 NA
ATOM      4  C   UNL     1       1.321   3.680  19.526  0.00  0.00    +0.000 A 
ATOM      5  N   UNL     1       0.326   2.765  19.242  0.00  0.00    +0.000 N 
ATOM      6  N   UNL     1       0.993   4.713  20.288  0.00  0.00    +0.000 NA
ATOM      7  C   UNL     1       1.987   5.560  20.563  0.00  0.00    +0.000 A 
ATOM      8  N   UNL     1       3.222   5.420  20.091  0.00  0.00    +0.000 NA
ATOM      9  H   UNL     1       4.657   3.403  18.104  0.00  0.00    +0.000 HD
ATOM     10  H   UNL     1       0.721   1.864  19.014  0.00  0.00    +0.000 HD
ATOM     11  H   UNL     1      -0.386   2.790  19.960  0.00  0.00    +0.000 HD
ENDROOT
BRANCH   1  15
ATOM     12  C   UNL     1       7.302   7.240  17.418  0.00  0.00    +0.000 A 
ATOM     13  C   UNL     1       7.632   6.454  18.524  0.00  0.00    +0.000 A 
ATOM     14  C   UNL     1       6.781   5.428  18.948  0.00  0.00    +0.000 A 
ATOM     15  C   UNL     1       5.561   5.206  18.304  0.00  0.00    +0.000 A 
ATOM     16  C   UNL     1       5.249   5.987  17.185  0.00  0.00    +0.000 A 
ATOM     17  C   UNL     1       6.104   7.004  16.749  0.00  0.00    +0.000 A 
BRANCH  12  19
ATOM     18  C   UNL     1       8.357   9.240  18.089  0.00  0.00    +0.000 C 
ATOM     19  O   UNL     1       8.195   8.226  17.103  0.00  0.00    +0.000 OA
ENDBRANCH  12  19
ENDBRANCH   1  15
BRANCH   7  20
ATOM     20  C   UNL     1       1.701   6.770  21.432  0.00  0.00    +0.000 C 
BRANCH  20  21
ATOM     21  S   UNL     1       1.163   8.196  20.440  0.00  0.00    +0.000 S 
BRANCH  21  22
ATOM     22  C   UNL     1       0.388   9.219  21.611  0.00  0.00    +0.000 A 
ATOM     23  N   UNL     1       0.331   8.981  22.900  0.00  0.00    +0.000 NA
ATOM     24  N   UNL     1      -0.257  10.064  23.502  0.00  0.00    +0.000 NA
ATOM     25  C   UNL     1      -0.587  10.950  22.575  0.00  0.00    +0.000 A 
ATOM     26  N   UNL     1      -0.137  10.475  21.332  0.00  0.00    +0.000 N 
BRANCH  25  27
ATOM     27  C   UNL     1      -1.356  12.184  22.851  0.00  0.00    +0.000 A 
ATOM     28  C   UNL     1      -0.729  13.430  22.756  0.00  0.00    +0.000 A 
ATOM     29  C   UNL     1      -1.487  14.575  22.953  0.00  0.00    +0.000 A 
ATOM     30  N   UNL     1      -2.809  14.572  23.218  0.00  0.00    +0.000 NA
ATOM     31  C   UNL     1      -3.390  13.367  23.348  0.00  0.00    +0.000 A 
ATOM     32  C   UNL     1      -2.706  12.168  23.220  0.00  0.00    +0.000 A 
ENDBRANCH  25  27
BRANCH  26  33
ATOM     33  C   UNL     1      -0.256  11.131  20.073  0.00  0.00    +0.000 A 
ATOM     34  C   UNL     1       0.741  12.022  19.648  0.00  0.00    +0.000 A 
ATOM     35  C   UNL     1       0.510  12.857  18.553  0.00  0.00    +0.000 A 
ATOM     36  C   UNL     1      -0.685  12.761  17.843  0.00  0.00    +0.000 A 
ATOM     37  C   UNL     1      -1.640  11.815  18.209  0.00  0.00    +0.000 A 
ATOM     38  C   UNL     1      -1.433  11.003  19.325  0.00  0.00    +0.000 A 
ENDBRANCH  26  33
ENDBRANCH  21  22
ENDBRANCH  20  21
ENDBRANCH   7  20
TORSDOF 7
ENDMDL
MODEL 3
REMARK VINA RESULT:      -8.5      3.507      5.446
REMARK  Name = 
REMARK  8 active torsions:
REMARK  status: ('A' for Active; 'I' for Inactive)
REMARK    1  A    between atoms: C_1  and  O_2
REMARK    2  A    between atoms: O_2  and  C_3
REMARK    3  A    between atoms: C_6  and  N_7
REMARK    4  A    between atoms: C_13  and  C_14
REMARK    5  A    between atoms: C_14  and  S_15
REMARK    6  A    between atoms: S_15  and  C_16
REMARK    7  A    between atoms: C_19  and  C_20
REMARK    8  A    between atoms: N_26  and  C_27
REMARK                            x       y       z     vdW  Elec       q    Type
REMARK                         _______ _______ _______ _____ _____    ______ ____
ROOT
ATOM      1  N   UNL     1       5.557   4.393  18.538  0.00  0.00    +0.000 N 
ATOM      2  C   UNL     1       4.199   4.379  18.885  0.00  0.00    +0.000 A 
ATOM      3  N   UNL     1       3.456   3.411  18.362  0.00  0.00    +0.000 NA
ATOM      4  C   UNL     1       2.170   3.458  18.675  0.00  0.00    +0.000 A 
ATOM      5  N   UNL     1       1.354   2.475  18.150  0.00  0.00    +0.000 N 
ATOM      6  N   UNL     1       1.601   4.364  19.454  0.00  0.00    +0.000 NA
ATOM      7  C   UNL     1       2.426   5.281  19.964  0.00  0.00    +0.000 A 
ATOM      8  N   UNL     1       3.728   5.326  19.698  0.00  0.00    +0.000 NA
ATOM      9  H   UNL     1       5.698   3.692  17.821  0.00  0.00    +0.000 HD
ATOM     10  H   UNL     1       1.890   1.650  17.917  0.00  0.00    +0.000 HD
ATOM     11  H   UNL     1       0.540   2.347  18.736  0.00  0.00    +0.000 HD
ENDROOT
BRANCH   1  15
ATOM     12  C   UNL     1       7.823   7.900  17.873  0.00  0.00    +0.000 A 
ATOM     13  C   UNL     1       6.668   7.642  17.133  0.00  0.00    +0.000 A 
ATOM     14  C   UNL     1       5.912   6.489  17.374  0.00  0.00    +0.000 A 
ATOM     15  C   UNL     1       6.329   5.551  18.322  0.00  0.00    +0.000 A 
ATOM     16  C   UNL     1       7.479   5.831  19.071  0.00  0.00    +0.000 A 
ATOM     17  C   UNL     1       8.229   6.989  18.844  0.00  0.00    +0.000 A 
BRANCH  12  19
ATOM     18  C   UNL     1       8.959   9.821  18.640  0.00  0.00    +0.000 C 
ATOM     19  O   UNL     1       8.496   9.044  17.541  0.00  0.00    +0.000 OA
ENDBRANCH  12  19
ENDBRANCH   1  15
BRANCH   7  20
ATOM     20  C   UNL     1       1.858   6.356  20.870  0.00  0.00    +0.000 C 
BRANCH  20  21
ATOM     21  S   UNL     1       1.581   7.913  19.972  0.00  0.00    +0.000 S 
BRANCH  21  22
ATOM     22  C   UNL     1       0.962   8.971  21.204  0.00  0.00    +0.000 A 
ATOM     23  N   UNL     1       1.264   8.903  22.478  0.00  0.00    +0.000 NA
ATOM     24  N   UNL     1       0.674   9.969  23.109  0.00  0.00    +0.000 NA
ATOM     25  C   UNL     1      -0.015  10.671  22.222  0.00  0.00    +0.000 A 
ATOM     26  N   UNL     1       0.186  10.097  20.955  0.00  0.00    +0.000 N 
BRANCH  25  27
ATOM     27  C   UNL     1      -0.883  11.816  22.572  0.00  0.00    +0.000 A 
ATOM     28  C   UNL     1      -2.157  11.587  23.100  0.00  0.00    +0.000 A 
ATOM     29  C   UNL     1      -2.926  12.676  23.484  0.00  0.00    +0.000 A 
ATOM     30  N   UNL     1      -2.520  13.959  23.396  0.00  0.00    +0.000 NA
ATOM     31  C   UNL     1      -1.311  14.166  22.847  0.00  0.00    +0.000 A 
ATOM     32  C   UNL     1      -0.492  13.147  22.388  0.00  0.00    +0.000 A 
ENDBRANCH  25  27
BRANCH  26  33
ATOM     33  C   UNL     1      -0.345  10.556  19.715  0.00  0.00    +0.000 A 
ATOM     34  C   UNL     1       0.111  11.760  19.158  0.00  0.00    +0.000 A 
ATOM     35  C   UNL     1      -0.580  12.343  18.094  0.00  0.00    +0.000 A 
ATOM     36  C   UNL     1      -1.685  11.697  17.544  0.00  0.00    +0.000 A 
ATOM     37  C   UNL     1      -2.087  10.458  18.037  0.00  0.00    +0.000 A 
ATOM     38  C   UNL     1      -1.425   9.887  19.125  0.00  0.00    +0.000 A 
ENDBRANCH  26  33
ENDBRANCH  21  22
ENDBRANCH  20  21
ENDBRANCH   7  20
TORSDOF 7
ENDMDL
MODEL 4
REMARK VINA RESULT:      -8.5      2.779      4.567
REMARK  Name = 
REMARK  8 active torsions:
REMARK  status: ('A' for Active; 'I' for Inactive)
REMARK    1  A    between atoms: C_1  and  O_2
REMARK    2  A    between atoms: O_2  and  C_3
REMARK    3  A    between atoms: C_6  and  N_7
REMARK    4  A    between atoms: C_13  and  C_14
REMARK    5  A    between atoms: C_14  and  S_15
REMARK    6  A    between atoms: S_15  and  C_16
REMARK    7  A    between atoms: C_19  and  C_20
REMARK    8  A    between atoms: N_26  and  C_27
REMARK                            x       y       z     vdW  Elec       q    Type
REMARK                         _______ _______ _______ _____ _____    ______ ____
ROOT
ATOM      1  N   UNL     1       4.664   3.213  18.256  0.00  0.00    +0.000 N 
ATOM      2  C   UNL     1       3.627   3.841  18.960  0.00  0.00    +0.000 A 
ATOM      3  N   UNL     1       2.565   3.099  19.251  0.00  0.00    +0.000 NA
ATOM      4  C   UNL     1       1.587   3.737  19.874  0.00  0.00    +0.000 A 
ATOM      5  N   UNL     1       0.457   3.010  20.193  0.00  0.00    +0.000 N 
ATOM      6  N   UNL     1       1.603   5.014  20.225  0.00  0.00    +0.000 NA
ATOM      7  C   UNL     1       2.721   5.677  19.924  0.00  0.00    +0.000 A 
ATOM      8  N   UNL     1       3.752   5.127  19.288  0.00  0.00    +0.000 NA
ATOM      9  H   UNL     1       4.339   2.294  17.984  0.00  0.00    +0.000 HD
ATOM     10  H   UNL     1       0.671   2.024  20.254  0.00  0.00    +0.000 HD
ATOM     11  H   UNL     1      -0.017   3.430  20.981  0.00  0.00    +0.000 HD
ENDROOT
BRANCH   1  15
ATOM     12  C   UNL     1       6.994   5.059  15.248  0.00  0.00    +0.000 A 
ATOM     13  C   UNL     1       5.732   4.537  14.959  0.00  0.00    +0.000 A 
ATOM     14  C   UNL     1       4.958   3.947  15.965  0.00  0.00    +0.000 A 
ATOM     15  C   UNL     1       5.457   3.822  17.264  0.00  0.00    +0.000 A 
ATOM     16  C   UNL     1       6.717   4.366  17.546  0.00  0.00    +0.000 A 
ATOM     17  C   UNL     1       7.486   4.970  16.547  0.00  0.00    +0.000 A 
BRANCH  12  19
ATOM     18  C   UNL     1       7.562   4.871  12.966  0.00  0.00    +0.000 C 
ATOM     19  O   UNL     1       7.671   5.594  14.187  0.00  0.00    +0.000 OA
ENDBRANCH  12  19
ENDBRANCH   1  15
BRANCH   7  20
ATOM     20  C   UNL     1       2.827   7.145  20.293  0.00  0.00    +0.000 C 
BRANCH  20  21
ATOM     21  S   UNL     1       1.480   8.119  19.555  0.00  0.00    +0.000 S 
BRANCH  21  22
ATOM     22  C   UNL     1       0.897   9.059  20.894  0.00  0.00    +0.000 A 
ATOM     23  N   UNL     1       1.267   8.904  22.143  0.00  0.00    +0.000 NA
ATOM     24  N   UNL     1       0.680   9.899  22.883  0.00  0.00    +0.000 NA
ATOM     25  C   UNL     1      -0.075  10.643  22.089  0.00  0.00    +0.000 A 
ATOM     26  N   UNL     1       0.076  10.175  20.773  0.00  0.00    +0.000 N 
BRANCH  25  27
ATOM     27  C   UNL     1      -0.956  11.729  22.571  0.00  0.00    +0.000 A 
ATOM     28  C   UNL     1      -0.539  13.059  22.470  0.00  0.00    +0.000 A 
ATOM     29  C   UNL     1      -1.410  14.064  22.865  0.00  0.00    +0.000 A 
ATOM     30  N   UNL     1      -2.656  13.845  23.333  0.00  0.00    +0.000 NA
ATOM     31  C   UNL     1      -3.028  12.561  23.464  0.00  0.00    +0.000 A 
ATOM     32  C   UNL     1      -2.210  11.489  23.144  0.00  0.00    +0.000 A 
ENDBRANCH  25  27
BRANCH  26  33
ATOM     33  C   UNL     1      -0.532  10.709  19.601  0.00  0.00    +0.000 A 
ATOM     34  C   UNL     1      -0.097  11.936  19.080  0.00  0.00    +0.000 A 
ATOM     35  C   UNL     1      -0.852  12.586  18.102  0.00  0.00    +0.000 A 
ATOM     36  C   UNL     1      -2.003  11.986  17.596  0.00  0.00    +0.000 A 
ATOM     37  C   UNL     1      -2.389  10.726  18.047  0.00  0.00    +0.000 A 
ATOM     38  C   UNL     1      -1.662  10.087  19.053  0.00  0.00    +0.000 A 
ENDBRANCH  26  33
ENDBRANCH  21  22
ENDBRANCH  20  21
ENDBRANCH   7  20
TORSDOF 7
ENDMDL
MODEL 5
REMARK VINA RESULT:      -8.4      3.438      5.153
REMARK  Name = 
REMARK  8 active torsions:
REMARK  status: ('A' for Active; 'I' for Inactive)
REMARK    1  A    between atoms: C_1  and  O_2
REMARK    2  A    between atoms: O_2  and  C_3
REMARK    3  A    between atoms: C_6  and  N_7
REMARK    4  A    between atoms: C_13  and  C_14
REMARK    5  A    between atoms: C_14  and  S_15
REMARK    6  A    between atoms: S_15  and  C_16
REMARK    7  A    between atoms: C_19  and  C_20
REMARK    8  A    between atoms: N_26  and  C_27
REMARK                            x       y       z     vdW  Elec       q    Type
REMARK                         _______ _______ _______ _____ _____    ______ ____
ROOT
ATOM      1  N   UNL     1       5.189   3.679  18.753  0.00  0.00    +0.000 N 
ATOM      2  C   UNL     1       3.842   3.706  19.142  0.00  0.00    +0.000 A 
ATOM      3  N   UNL     1       3.086   2.687  18.752  0.00  0.00    +0.000 NA
ATOM      4  C   UNL     1       1.810   2.769  19.097  0.00  0.00    +0.000 A 
ATOM      5  N   UNL     1       0.980   1.736  18.709  0.00  0.00    +0.000 N 
ATOM      6  N   UNL     1       1.264   3.756  19.791  0.00  0.00    +0.000 NA
ATOM      7  C   UNL     1       2.102   4.722  20.171  0.00  0.00    +0.000 A 
ATOM      8  N   UNL     1       3.395   4.736  19.862  0.00  0.00    +0.000 NA
ATOM      9  H   UNL     1       5.309   2.904  18.113  0.00  0.00    +0.000 HD
ATOM     10  H   UNL     1       1.510   0.890  18.551  0.00  0.00    +0.000 HD
ATOM     11  H   UNL     1       0.185   1.674  19.331  0.00  0.00    +0.000 HD
ENDROOT
BRANCH   1  15
ATOM     12  C   UNL     1       7.426   7.090  17.638  0.00  0.00    +0.000 A 
ATOM     13  C   UNL     1       6.261   6.740  16.952  0.00  0.00    +0.000 A 
ATOM     14  C   UNL     1       5.515   5.622  17.341  0.00  0.00    +0.000 A 
ATOM     15  C   UNL     1       5.951   4.807  18.389  0.00  0.00    +0.000 A 
ATOM     16  C   UNL     1       7.111   5.178  19.081  0.00  0.00    +0.000 A 
ATOM     17  C   UNL     1       7.850   6.303  18.705  0.00  0.00    +0.000 A 
BRANCH  12  19
ATOM     18  C   UNL     1       8.098   9.318  18.027  0.00  0.00    +0.000 C 
ATOM     19  O   UNL     1       8.087   8.188  17.161  0.00  0.00    +0.000 OA
ENDBRANCH  12  19
ENDBRANCH   1  15
BRANCH   7  20
ATOM     20  C   UNL     1       1.560   5.890  20.972  0.00  0.00    +0.000 C 
BRANCH  20  21
ATOM     21  S   UNL     1       1.879   7.477  20.143  0.00  0.00    +0.000 S 
BRANCH  21  22
ATOM     22  C   UNL     1       1.245   8.641  21.267  0.00  0.00    +0.000 A 
ATOM     23  N   UNL     1       1.607   8.753  22.522  0.00  0.00    +0.000 NA
ATOM     24  N   UNL     1       0.975   9.850  23.047  0.00  0.00    +0.000 NA
ATOM     25  C   UNL     1       0.200  10.391  22.119  0.00  0.00    +0.000 A 
ATOM     26  N   UNL     1       0.384   9.676  20.923  0.00  0.00    +0.000 N 
BRANCH  25  27
ATOM     27  C   UNL     1      -0.728  11.515  22.371  0.00  0.00    +0.000 A 
ATOM     28  C   UNL     1      -0.414  12.794  21.902  0.00  0.00    +0.000 A 
ATOM     29  C   UNL     1      -1.331  13.817  22.091  0.00  0.00    +0.000 A 
ATOM     30  N   UNL     1      -2.528  13.660  22.693  0.00  0.00    +0.000 NA
ATOM     31  C   UNL     1      -2.798  12.436  23.177  0.00  0.00    +0.000 A 
ATOM     32  C   UNL     1      -1.925  11.364  23.081  0.00  0.00    +0.000 A 
ENDBRANCH  25  27
BRANCH  26  33
ATOM     33  C   UNL     1      -0.232   9.942  19.666  0.00  0.00    +0.000 A 
ATOM     34  C   UNL     1      -1.599  10.250  19.605  0.00  0.00    +0.000 A 
ATOM     35  C   UNL     1      -2.260  10.252  18.375  0.00  0.00    +0.000 A 
ATOM     36  C   UNL     1      -1.549  10.011  17.201  0.00  0.00    +0.000 A 
ATOM     37  C   UNL     1      -0.174   9.793  17.250  0.00  0.00    +0.000 A 
ATOM     38  C   UNL     1       0.486   9.750  18.479  0.00  0.00    +0.000 A 
ENDBRANCH  26  33
ENDBRANCH  21  22
ENDBRANCH  20  21
ENDBRANCH   7  20
TORSDOF 7
ENDMDL
MODEL 6
REMARK VINA RESULT:      -8.4      2.558      4.490
REMARK  Name = 
REMARK  8 active torsions:
REMARK  status: ('A' for Active; 'I' for Inactive)
REMARK    1  A    between atoms: C_1  and  O_2
REMARK    2  A    between atoms: O_2  and  C_3
REMARK    3  A    between atoms: C_6  and  N_7
REMARK    4  A    between atoms: C_13  and  C_14
REMARK    5  A    between atoms: C_14  and  S_15
REMARK    6  A    between atoms: S_15  and  C_16
REMARK    7  A    between atoms: C_19  and  C_20
REMARK    8  A    between atoms: N_26  and  C_27
REMARK                            x       y       z     vdW  Elec       q    Type
REMARK                         _______ _______ _______ _____ _____    ______ ____
ROOT
ATOM      1  N   UNL     1       4.918   3.925  19.286  0.00  0.00    +0.000 N 
ATOM      2  C   UNL     1       3.695   4.444  19.734  0.00  0.00    +0.000 A 
ATOM      3  N   UNL     1       2.833   3.580  20.256  0.00  0.00    +0.000 NA
ATOM      4  C   UNL     1       1.671   4.098  20.625  0.00  0.00    +0.000 A 
ATOM      5  N   UNL     1       0.737   3.239  21.169  0.00  0.00    +0.000 N 
ATOM      6  N   UNL     1       1.332   5.374  20.522  0.00  0.00    +0.000 NA
ATOM      7  C   UNL     1       2.269   6.178  20.017  0.00  0.00    +0.000 A 
ATOM      8  N   UNL     1       3.460   5.750  19.606  0.00  0.00    +0.000 NA
ATOM      9  H   UNL     1       4.862   2.915  19.341  0.00  0.00    +0.000 HD
ATOM     10  H   UNL     1       1.186   2.423  21.561  0.00  0.00    +0.000 HD
ATOM     11  H   UNL     1       0.101   3.748  21.766  0.00  0.00    +0.000 HD
ENDROOT
BRANCH   1  15
ATOM     12  C   UNL     1       6.974   5.254  15.838  0.00  0.00    +0.000 A 
ATOM     13  C   UNL     1       5.806   4.497  15.730  0.00  0.00    +0.000 A 
ATOM     14  C   UNL     1       5.119   4.079  16.876  0.00  0.00    +0.000 A 
ATOM     15  C   UNL     1       5.620   4.367  18.148  0.00  0.00    +0.000 A 
ATOM     16  C   UNL     1       6.783   5.143  18.244  0.00  0.00    +0.000 A 
ATOM     17  C   UNL     1       7.462   5.575  17.101  0.00  0.00    +0.000 A 
BRANCH  12  19
ATOM     18  C   UNL     1       7.169   4.825  13.526  0.00  0.00    +0.000 C 
ATOM     19  O   UNL     1       7.573   5.591  14.656  0.00  0.00    +0.000 OA
ENDBRANCH  12  19
ENDBRANCH   1  15
BRANCH   7  20
ATOM     20  C   UNL     1       1.965   7.656  19.867  0.00  0.00    +0.000 C 
BRANCH  20  21
ATOM     21  S   UNL     1       0.462   8.126  20.775  0.00  0.00    +0.000 S 
BRANCH  21  22
ATOM     22  C   UNL     1       0.604   9.854  20.901  0.00  0.00    +0.000 A 
ATOM     23  N   UNL     1       1.450  10.487  21.677  0.00  0.00    +0.000 NA
ATOM     24  N   UNL     1       1.341  11.828  21.416  0.00  0.00    +0.000 NA
ATOM     25  C   UNL     1       0.403  12.017  20.499  0.00  0.00    +0.000 A 
ATOM     26  N   UNL     1      -0.069  10.759  20.087  0.00  0.00    +0.000 N 
BRANCH  25  27
ATOM     27  C   UNL     1      -0.072  13.350  20.068  0.00  0.00    +0.000 A 
ATOM     28  C   UNL     1      -0.989  14.050  20.857  0.00  0.00    +0.000 A 
ATOM     29  C   UNL     1      -1.367  15.326  20.467  0.00  0.00    +0.000 A 
ATOM     30  N   UNL     1      -0.895  15.955  19.372  0.00  0.00    +0.000 NA
ATOM     31  C   UNL     1      -0.047  15.254  18.599  0.00  0.00    +0.000 A 
ATOM     32  C   UNL     1       0.350  13.956  18.879  0.00  0.00    +0.000 A 
ENDBRANCH  25  27
BRANCH  26  33
ATOM     33  C   UNL     1      -1.057  10.500  19.095  0.00  0.00    +0.000 A 
ATOM     34  C   UNL     1      -0.706   9.841  17.908  0.00  0.00    +0.000 A 
ATOM     35  C   UNL     1      -1.596   9.817  16.833  0.00  0.00    +0.000 A 
ATOM     36  C   UNL     1      -2.858  10.393  16.960  0.00  0.00    +0.000 A 
ATOM     37  C   UNL     1      -3.244  10.971  18.168  0.00  0.00    +0.000 A 
ATOM     38  C   UNL     1      -2.346  11.032  19.234  0.00  0.00    +0.000 A 
ENDBRANCH  26  33
ENDBRANCH  21  22
ENDBRANCH  20  21
ENDBRANCH   7  20
TORSDOF 7
ENDMDL
MODEL 7
REMARK VINA RESULT:      -8.4      2.868      4.711
REMARK  Name = 
REMARK  8 active torsions:
REMARK  status: ('A' for Active; 'I' for Inactive)
REMARK    1  A    between atoms: C_1  and  O_2
REMARK    2  A    between atoms: O_2  and  C_3
REMARK    3  A    between atoms: C_6  and  N_7
REMARK    4  A    between atoms: C_13  and  C_14
REMARK    5  A    between atoms: C_14  and  S_15
REMARK    6  A    between atoms: S_15  and  C_16
REMARK    7  A    between atoms: C_19  and  C_20
REMARK    8  A    between atoms: N_26  and  C_27
REMARK                            x       y       z     vdW  Elec       q    Type
REMARK                         _______ _______ _______ _____ _____    ______ ____
ROOT
ATOM      1  N   UNL     1       4.607   3.402  18.610  0.00  0.00    +0.000 N 
ATOM      2  C   UNL     1       3.554   4.076  19.245  0.00  0.00    +0.000 A 
ATOM      3  N   UNL     1       2.516   3.341  19.626  0.00  0.00    +0.000 NA
ATOM      4  C   UNL     1       1.522   4.018  20.179  0.00  0.00    +0.000 A 
ATOM      5  N   UNL     1       0.415   3.299  20.588  0.00  0.00    +0.000 N 
ATOM      6  N   UNL     1       1.501   5.327  20.381  0.00  0.00    +0.000 NA
ATOM      7  C   UNL     1       2.598   5.983  19.999  0.00  0.00    +0.000 A 
ATOM      8  N   UNL     1       3.642   5.394  19.422  0.00  0.00    +0.000 NA
ATOM      9  H   UNL     1       4.309   2.448  18.448  0.00  0.00    +0.000 HD
ATOM     10  H   UNL     1       0.658   2.333  20.760  0.00  0.00    +0.000 HD
ATOM     11  H   UNL     1      -0.069   3.792  21.325  0.00  0.00    +0.000 HD
ENDROOT
BRANCH   1  15
ATOM     12  C   UNL     1       6.973   4.930  15.456  0.00  0.00    +0.000 A 
ATOM     13  C   UNL     1       7.447   4.922  16.769  0.00  0.00    +0.000 A 
ATOM     14  C   UNL     1       6.666   4.394  17.804  0.00  0.00    +0.000 A 
ATOM     15  C   UNL     1       5.378   3.916  17.549  0.00  0.00    +0.000 A 
ATOM     16  C   UNL     1       4.921   3.913  16.225  0.00  0.00    +0.000 A 
ATOM     17  C   UNL     1       5.705   4.425  15.187  0.00  0.00    +0.000 A 
BRANCH  12  19
ATOM     18  C   UNL     1       7.599   5.065  13.185  0.00  0.00    +0.000 C 
ATOM     19  O   UNL     1       7.810   5.487  14.528  0.00  0.00    +0.000 OA
ENDBRANCH  12  19
ENDBRANCH   1  15
BRANCH   7  20
ATOM     20  C   UNL     1       2.660   7.485  20.196  0.00  0.00    +0.000 C 
BRANCH  20  21
ATOM     21  S   UNL     1       1.152   8.303  19.593  0.00  0.00    +0.000 S 
BRANCH  21  22
ATOM     22  C   UNL     1       0.628   9.225  20.970  0.00  0.00    +0.000 A 
ATOM     23  N   UNL     1       1.071   9.069  22.195  0.00  0.00    +0.000 NA
ATOM     24  N   UNL     1       0.509  10.047  22.974  0.00  0.00    +0.000 NA
ATOM     25  C   UNL     1      -0.303  10.783  22.229  0.00  0.00    +0.000 A 
ATOM     26  N   UNL     1      -0.217  10.326  20.903  0.00  0.00    +0.000 N 
BRANCH  25  27
ATOM     27  C   UNL     1      -1.175  11.850  22.767  0.00  0.00    +0.000 A 
ATOM     28  C   UNL     1      -0.714  13.170  22.807  0.00  0.00    +0.000 A 
ATOM     29  C   UNL     1      -1.575  14.163  23.252  0.00  0.00    +0.000 A 
ATOM     30  N   UNL     1      -2.847  13.944  23.641  0.00  0.00    +0.000 NA
ATOM     31  C   UNL     1      -3.262  12.666  23.637  0.00  0.00    +0.000 A 
ATOM     32  C   UNL     1      -2.461  11.601  23.258  0.00  0.00    +0.000 A 
ENDBRANCH  25  27
BRANCH  26  33
ATOM     33  C   UNL     1      -0.900  10.857  19.771  0.00  0.00    +0.000 A 
ATOM     34  C   UNL     1      -1.812  10.060  19.063  0.00  0.00    +0.000 A 
ATOM     35  C   UNL     1      -2.282  10.475  17.816  0.00  0.00    +0.000 A 
ATOM     36  C   UNL     1      -1.895  11.711  17.302  0.00  0.00    +0.000 A 
ATOM     37  C   UNL     1      -1.059  12.545  18.042  0.00  0.00    +0.000 A 
ATOM     38  C   UNL     1      -0.555  12.119  19.272  0.00  0.00    +0.000 A 
ENDBRANCH  26  33
ENDBRANCH  21  22
ENDBRANCH  20  21
ENDBRANCH   7  20
TORSDOF 7
ENDMDL
MODEL 8
REMARK VINA RESULT:      -8.4      2.414      3.709
REMARK  Name = 
REMARK  8 active torsions:
REMARK  status: ('A' for Active; 'I' for Inactive)
REMARK    1  A    between atoms: C_1  and  O_2
REMARK    2  A    between atoms: O_2  and  C_3
REMARK    3  A    between atoms: C_6  and  N_7
REMARK    4  A    between atoms: C_13  and  C_14
REMARK    5  A    between atoms: C_14  and  S_15
REMARK    6  A    between atoms: S_15  and  C_16
REMARK    7  A    between atoms: C_19  and  C_20
REMARK    8  A    between atoms: N_26  and  C_27
REMARK                            x       y       z     vdW  Elec       q    Type
REMARK                         _______ _______ _______ _____ _____    ______ ____
ROOT
ATOM      1  N   UNL     1       4.709   3.497  18.432  0.00  0.00    +0.000 N 
ATOM      2  C   UNL     1       3.606   4.117  19.034  0.00  0.00    +0.000 A 
ATOM      3  N   UNL     1       2.635   3.323  19.469  0.00  0.00    +0.000 NA
ATOM      4  C   UNL     1       1.589   3.946  19.989  0.00  0.00    +0.000 A 
ATOM      5  N   UNL     1       0.549   3.163  20.451  0.00  0.00    +0.000 N 
ATOM      6  N   UNL     1       1.458   5.259  20.111  0.00  0.00    +0.000 NA
ATOM      7  C   UNL     1       2.494   5.980  19.679  0.00  0.00    +0.000 A 
ATOM      8  N   UNL     1       3.582   5.447  19.130  0.00  0.00    +0.000 NA
ATOM      9  H   UNL     1       4.492   2.513  18.331  0.00  0.00    +0.000 HD
ATOM     10  H   UNL     1       0.874   2.234  20.680  0.00  0.00    +0.000 HD
ATOM     11  H   UNL     1       0.028   3.659  21.161  0.00  0.00    +0.000 HD
ENDROOT
BRANCH   1  15
ATOM     12  C   UNL     1       6.924   5.013  15.165  0.00  0.00    +0.000 A 
ATOM     13  C   UNL     1       7.480   4.957  16.444  0.00  0.00    +0.000 A 
ATOM     14  C   UNL     1       6.748   4.434  17.516  0.00  0.00    +0.000 A 
ATOM     15  C   UNL     1       5.430   4.008  17.335  0.00  0.00    +0.000 A 
ATOM     16  C   UNL     1       4.889   4.052  16.043  0.00  0.00    +0.000 A 
ATOM     17  C   UNL     1       5.624   4.559  14.967  0.00  0.00    +0.000 A 
BRANCH  12  19
ATOM     18  C   UNL     1       7.630   4.949  12.914  0.00  0.00    +0.000 C 
ATOM     19  O   UNL     1       7.720   5.561  14.197  0.00  0.00    +0.000 OA
ENDBRANCH  12  19
ENDBRANCH   1  15
BRANCH   7  20
ATOM     20  C   UNL     1       2.429   7.492  19.783  0.00  0.00    +0.000 C 
BRANCH  20  21
ATOM     21  S   UNL     1       1.277   8.199  18.567  0.00  0.00    +0.000 S 
BRANCH  21  22
ATOM     22  C   UNL     1       1.688   9.887  18.573  0.00  0.00    +0.000 A 
ATOM     23  N   UNL     1       2.380  10.499  17.643  0.00  0.00    +0.000 NA
ATOM     24  N   UNL     1       2.398  11.837  17.941  0.00  0.00    +0.000 NA
ATOM     25  C   UNL     1       1.741  12.039  19.073  0.00  0.00    +0.000 A 
ATOM     26  N   UNL     1       1.209  10.809  19.497  0.00  0.00    +0.000 N 
BRANCH  25  27
ATOM     27  C   UNL     1       1.668  13.345  19.763  0.00  0.00    +0.000 A 
ATOM     28  C   UNL     1       0.783  14.325  19.304  0.00  0.00    +0.000 A 
ATOM     29  C   UNL     1       0.683  15.516  20.007  0.00  0.00    +0.000 A 
ATOM     30  N   UNL     1       1.379  15.795  21.127  0.00  0.00    +0.000 NA
ATOM     31  C   UNL     1       2.257  14.862  21.533  0.00  0.00    +0.000 A 
ATOM     32  C   UNL     1       2.464  13.664  20.869  0.00  0.00    +0.000 A 
ENDBRANCH  25  27
BRANCH  26  33
ATOM     33  C   UNL     1       0.406  10.578  20.651  0.00  0.00    +0.000 A 
ATOM     34  C   UNL     1      -0.812  11.256  20.808  0.00  0.00    +0.000 A 
ATOM     35  C   UNL     1      -1.468  11.237  22.040  0.00  0.00    +0.000 A 
ATOM     36  C   UNL     1      -0.948  10.492  23.095  0.00  0.00    +0.000 A 
ATOM     37  C   UNL     1       0.215   9.745  22.917  0.00  0.00    +0.000 A 
ATOM     38  C   UNL     1       0.898   9.790  21.700  0.00  0.00    +0.000 A 
ENDBRANCH  26  33
ENDBRANCH  21  22
ENDBRANCH  20  21
ENDBRANCH   7  20
TORSDOF 7
ENDMDL
MODEL 9
REMARK VINA RESULT:      -8.3      2.902      4.901
REMARK  Name = 
REMARK  8 active torsions:
REMARK  status: ('A' for Active; 'I' for Inactive)
REMARK    1  A    between atoms: C_1  and  O_2
REMARK    2  A    between atoms: O_2  and  C_3
REMARK    3  A    between atoms: C_6  and  N_7
REMARK    4  A    between atoms: C_13  and  C_14
REMARK    5  A    between atoms: C_14  and  S_15
REMARK    6  A    between atoms: S_15  and  C_16
REMARK    7  A    between atoms: C_19  and  C_20
REMARK    8  A    between atoms: N_26  and  C_27
REMARK                            x       y       z     vdW  Elec       q    Type
REMARK                         _______ _______ _______ _____ _____    ______ ____
ROOT
ATOM      1  N   UNL     1       4.740   3.548  18.954  0.00  0.00    +0.000 N 
ATOM      2  C   UNL     1       3.619   4.153  19.537  0.00  0.00    +0.000 A 
ATOM      3  N   UNL     1       2.636   3.348  19.923  0.00  0.00    +0.000 NA
ATOM      4  C   UNL     1       1.574   3.958  20.426  0.00  0.00    +0.000 A 
ATOM      5  N   UNL     1       0.522   3.164  20.838  0.00  0.00    +0.000 N 
ATOM      6  N   UNL     1       1.438   5.267  20.575  0.00  0.00    +0.000 NA
ATOM      7  C   UNL     1       2.485   5.999  20.191  0.00  0.00    +0.000 A 
ATOM      8  N   UNL     1       3.590   5.481  19.663  0.00  0.00    +0.000 NA
ATOM      9  H   UNL     1       4.528   2.567  18.823  0.00  0.00    +0.000 HD
ATOM     10  H   UNL     1       0.841   2.230  21.054  0.00  0.00    +0.000 HD
ATOM     11  H   UNL     1      -0.021   3.642  21.543  0.00  0.00    +0.000 HD
ENDROOT
BRANCH   1  15
ATOM     12  C   UNL     1       6.947   5.172  15.733  0.00  0.00    +0.000 A 
ATOM     13  C   UNL     1       5.710   4.561  15.519  0.00  0.00    +0.000 A 
ATOM     14  C   UNL     1       4.976   4.045  16.593  0.00  0.00    +0.000 A 
ATOM     15  C   UNL     1       5.493   4.086  17.891  0.00  0.00    +0.000 A 
ATOM     16  C   UNL     1       6.726   4.718  18.095  0.00  0.00    +0.000 A 
ATOM     17  C   UNL     1       7.454   5.249  17.026  0.00  0.00    +0.000 A 
BRANCH  12  19
ATOM     18  C   UNL     1       7.342   4.874  13.426  0.00  0.00    +0.000 C 
ATOM     19  O   UNL     1       7.587   5.623  14.611  0.00  0.00    +0.000 OA
ENDBRANCH  12  19
ENDBRANCH   1  15
BRANCH   7  20
ATOM     20  C   UNL     1       2.416   7.508  20.330  0.00  0.00    +0.000 C 
BRANCH  20  21
ATOM     21  S   UNL     1       0.866   8.173  19.650  0.00  0.00    +0.000 S 
BRANCH  21  22
ATOM     22  C   UNL     1       0.175   9.018  21.002  0.00  0.00    +0.000 A 
ATOM     23  N   UNL     1       0.071   8.539  22.218  0.00  0.00    +0.000 NA
ATOM     24  N   UNL     1      -0.417   9.536  23.023  0.00  0.00    +0.000 NA
ATOM     25  C   UNL     1      -0.641  10.617  22.290  0.00  0.00    +0.000 A 
ATOM     26  N   UNL     1      -0.217  10.352  20.977  0.00  0.00    +0.000 N 
BRANCH  25  27
ATOM     27  C   UNL     1      -1.288  11.843  22.806  0.00  0.00    +0.000 A 
ATOM     28  C   UNL     1      -2.593  11.784  23.303  0.00  0.00    +0.000 A 
ATOM     29  C   UNL     1      -3.154  12.932  23.843  0.00  0.00    +0.000 A 
ATOM     30  N   UNL     1      -2.514  14.115  23.937  0.00  0.00    +0.000 NA
ATOM     31  C   UNL     1      -1.276  14.169  23.416  0.00  0.00    +0.000 A 
ATOM     32  C   UNL     1      -0.652  13.089  22.812  0.00  0.00    +0.000 A 
ENDBRANCH  25  27
BRANCH  26  33
ATOM     33  C   UNL     1      -0.247  11.251  19.872  0.00  0.00    +0.000 A 
ATOM     34  C   UNL     1       0.839  12.105  19.632  0.00  0.00    +0.000 A 
ATOM     35  C   UNL     1       0.712  13.158  18.724  0.00  0.00    +0.000 A 
ATOM     36  C   UNL     1      -0.472  13.322  18.009  0.00  0.00    +0.000 A 
ATOM     37  C   UNL     1      -1.522  12.422  18.180  0.00  0.00    +0.000 A 
ATOM     38  C   UNL     1      -1.416  11.390  19.114  0.00  0.00    +0.000 A 
ENDBRANCH  26  33
ENDBRANCH  21  22
ENDBRANCH  20  21
ENDBRANCH   7  20
TORSDOF 7
ENDMDL
