MODEL 1
REMARK VINA RESULT:      -7.6      0.000      0.000
REMARK  Name = 
REMARK  9 active torsions:
REMARK  status: ('A' for Active; 'I' for Inactive)
REMARK    1  A    between atoms: C_1  and  C_2
REMARK    2  A    between atoms: C_2  and  C_3
REMARK    3  A    between atoms: C_3  and  C_4
REMARK    4  A    between atoms: N_6  and  C_7
REMARK    5  A    between atoms: C_10  and  N_11
REMARK    6  A    between atoms: N_16  and  N_17
REMARK    7  A    between atoms: N_17  and  C_18
REMARK    8  A    between atoms: C_21  and  N_22
REMARK    9  A    between atoms: C_26  and  N_27
REMARK                            x       y       z     vdW  Elec       q    Type
REMARK                         _______ _______ _______ _____ _____    ______ ____
ROOT
ATOM      1  C   UNL     1       4.613   2.058  20.338  0.00  0.00    +0.000 C 
ATOM      2  C   UNL     1       3.962   3.351  19.900  0.00  0.00    +0.000 C 
ATOM      3  N   UNL     1       4.570   4.260  19.189  0.00  0.00    +0.000 NA
ENDROOT
BRANCH   3   4
ATOM      4  N   UNL     1       5.869   4.033  18.834  0.00  0.00    +0.000 N 
ATOM      5  H   UNL     1       6.617   4.222  19.513  0.00  0.00    +0.000 HD
BRANCH   4   6
ATOM      6  C   UNL     1       6.246   4.300  17.492  0.00  0.00    +0.000 A 
ATOM      7  C   UNL     1       5.777   3.445  16.472  0.00  0.00    +0.000 A 
ATOM      8  C   UNL     1       6.112   3.640  15.129  0.00  0.00    +0.000 A 
ATOM      9  C   UNL     1       6.943   4.703  14.773  0.00  0.00    +0.000 A 
ATOM     10  C   UNL     1       7.468   5.549  15.756  0.00  0.00    +0.000 A 
ATOM     11  C   UNL     1       7.131   5.338  17.111  0.00  0.00    +0.000 A 
BRANCH   9  12
ATOM     12  N   UNL     1       7.257   4.934  13.357  0.00  0.00    +0.000 N 
ATOM     13  O   UNL     1       6.722   4.194  12.521  0.00  0.00    +0.000 OA
ATOM     14  O   UNL     1       8.031   5.861  13.086  0.00  0.00    +0.000 OA
ENDBRANCH   9  12
BRANCH  11  15
ATOM     15  N   UNL     1       7.714   6.254  18.106  0.00  0.00    +0.000 N 
ATOM     16  O   UNL     1       7.843   7.449  17.797  0.00  0.00    +0.000 OA
ATOM     17  O   UNL     1       8.060   5.778  19.197  0.00  0.00    +0.000 OA
ENDBRANCH  11  15
ENDBRANCH   4   6
ENDBRANCH   3   4
BRANCH   2  18
ATOM     18  C   UNL     1       2.547   3.653  20.363  0.00  0.00    +0.000 C 
BRANCH  18  19
ATOM     19  C   UNL     1       1.942   4.930  19.818  0.00  0.00    +0.000 C 
ATOM     20  O   UNL     1       1.106   4.919  18.920  0.00  0.00    +0.000 OA
ATOM     21  N   UNL     1       2.407   6.084  20.436  0.00  0.00    +0.000 N 
ATOM     22  H   UNL     1       3.331   6.034  20.850  0.00  0.00    +0.000 HD
BRANCH  21  23
ATOM     23  C   UNL     1       1.931   7.372  20.105  0.00  0.00    +0.000 A 
ATOM     24  C   UNL     1       1.258   8.178  21.031  0.00  0.00    +0.000 A 
ATOM     25  C   UNL     1       0.783   9.442  20.658  0.00  0.00    +0.000 A 
ATOM     26  C   UNL     1       0.958   9.883  19.341  0.00  0.00    +0.000 A 
ATOM     27  C   UNL     1       1.639   9.085  18.413  0.00  0.00    +0.000 A 
ATOM     28  C   UNL     1       2.153   7.845  18.808  0.00  0.00    +0.000 A 
BRANCH  26  29
ATOM     29  N   UNL     1       0.422  11.184  18.923  0.00  0.00    +0.000 N 
ATOM     30  O   UNL     1      -0.632  11.189  18.264  0.00  0.00    +0.000 OA
ATOM     31  O   UNL     1       1.044  12.200  19.256  0.00  0.00    +0.000 OA
ENDBRANCH  26  29
ENDBRANCH  21  23
ENDBRANCH  18  19
ENDBRANCH   2  18
TORSDOF 8
ENDMDL
MODEL 2
REMARK VINA RESULT:      -7.6      0.414      1.274
REMARK  Name = 
REMARK  9 active torsions:
REMARK  status: ('A' for Active; 'I' for Inactive)
REMARK    1  A    between atoms: C_1  and  C_2
REMARK    2  A    between atoms: C_2  and  C_3
REMARK    3  A    between atoms: C_3  and  C_4
REMARK    4  A    between atoms: N_6  and  C_7
REMARK    5  A    between atoms: C_10  and  N_11
REMARK    6  A    between atoms: N_16  and  N_17
REMARK    7  A    between atoms: N_17  and  C_18
REMARK    8  A    between atoms: C_21  and  N_22
REMARK    9  A    between atoms: C_26  and  N_27
REMARK                            x       y       z     vdW  Elec       q    Type
REMARK                         _______ _______ _______ _____ _____    ______ ____
ROOT
ATOM      1  C   UNL     1       4.309   2.188  19.867  0.00  0.00    +0.000 C 
ATOM      2  C   UNL     1       3.942   3.649  19.734  0.00  0.00    +0.000 C 
ATOM      3  N   UNL     1       4.736   4.549  19.222  0.00  0.00    +0.000 NA
ENDROOT
BRANCH   3   4
ATOM      4  N   UNL     1       5.970   4.146  18.796  0.00  0.00    +0.000 N 
ATOM      5  H   UNL     1       6.770   4.210  19.438  0.00  0.00    +0.000 HD
BRANCH   4   6
ATOM      6  C   UNL     1       6.314   4.389  17.441  0.00  0.00    +0.000 A 
ATOM      7  C   UNL     1       5.892   3.470  16.457  0.00  0.00    +0.000 A 
ATOM      8  C   UNL     1       6.200   3.637  15.104  0.00  0.00    +0.000 A 
ATOM      9  C   UNL     1       6.956   4.739  14.701  0.00  0.00    +0.000 A 
ATOM     10  C   UNL     1       7.434   5.653  15.647  0.00  0.00    +0.000 A 
ATOM     11  C   UNL     1       7.125   5.468  17.012  0.00  0.00    +0.000 A 
BRANCH   9  12
ATOM     12  N   UNL     1       7.239   4.939  13.274  0.00  0.00    +0.000 N 
ATOM     13  O   UNL     1       6.703   4.169  12.467  0.00  0.00    +0.000 OA
ATOM     14  O   UNL     1       7.992   5.873  12.964  0.00  0.00    +0.000 OA
ENDBRANCH   9  12
BRANCH  11  15
ATOM     15  N   UNL     1       7.657   6.456  17.967  0.00  0.00    +0.000 N 
ATOM     16  O   UNL     1       8.018   6.055  19.084  0.00  0.00    +0.000 OA
ATOM     17  O   UNL     1       7.702   7.642  17.607  0.00  0.00    +0.000 OA
ENDBRANCH  11  15
ENDBRANCH   4   6
ENDBRANCH   3   4
BRANCH   2  18
ATOM     18  C   UNL     1       2.608   4.124  20.285  0.00  0.00    +0.000 C 
BRANCH  18  19
ATOM     19  C   UNL     1       2.032   5.359  19.624  0.00  0.00    +0.000 C 
ATOM     20  O   UNL     1       1.305   5.287  18.637  0.00  0.00    +0.000 OA
ATOM     21  N   UNL     1       2.390   6.550  20.243  0.00  0.00    +0.000 N 
ATOM     22  H   UNL     1       3.261   6.546  20.761  0.00  0.00    +0.000 HD
BRANCH  21  23
ATOM     23  C   UNL     1       1.917   7.808  19.808  0.00  0.00    +0.000 A 
ATOM     24  C   UNL     1       2.169   8.293  18.519  0.00  0.00    +0.000 A 
ATOM     25  C   UNL     1       1.700   9.556  18.133  0.00  0.00    +0.000 A 
ATOM     26  C   UNL     1       1.003  10.345  19.056  0.00  0.00    +0.000 A 
ATOM     27  C   UNL     1       0.741   9.860  20.344  0.00  0.00    +0.000 A 
ATOM     28  C   UNL     1       1.170   8.578  20.705  0.00  0.00    +0.000 A 
BRANCH  26  29
ATOM     29  N   UNL     1       0.549  11.689  18.682  0.00  0.00    +0.000 N 
ATOM     30  O   UNL     1       1.384  12.610  18.714  0.00  0.00    +0.000 OA
ATOM     31  O   UNL     1      -0.634  11.828  18.349  0.00  0.00    +0.000 OA
ENDBRANCH  26  29
ENDBRANCH  21  23
ENDBRANCH  18  19
ENDBRANCH   2  18
TORSDOF 8
ENDMDL
MODEL 3
REMARK VINA RESULT:      -7.6      2.415      8.941
REMARK  Name = 
REMARK  9 active torsions:
REMARK  status: ('A' for Active; 'I' for Inactive)
REMARK    1  A    between atoms: C_1  and  C_2
REMARK    2  A    between atoms: C_2  and  C_3
REMARK    3  A    between atoms: C_3  and  C_4
REMARK    4  A    between atoms: N_6  and  C_7
REMARK    5  A    between atoms: C_10  and  N_11
REMARK    6  A    between atoms: N_16  and  N_17
REMARK    7  A    between atoms: N_17  and  C_18
REMARK    8  A    between atoms: C_21  and  N_22
REMARK    9  A    between atoms: C_26  and  N_27
REMARK                            x       y       z     vdW  Elec       q    Type
REMARK                         _______ _______ _______ _____ _____    ______ ____
ROOT
ATOM      1  C   UNL     1       1.566   8.608  21.889  0.00  0.00    +0.000 C 
ATOM      2  C   UNL     1       1.638   7.879  20.566  0.00  0.00    +0.000 C 
ATOM      3  N   UNL     1       1.555   8.474  19.408  0.00  0.00    +0.000 NA
ENDROOT
BRANCH   3   4
ATOM      4  N   UNL     1       1.380   9.829  19.396  0.00  0.00    +0.000 N 
ATOM      5  H   UNL     1       1.915  10.411  20.052  0.00  0.00    +0.000 HD
BRANCH   4   6
ATOM      6  C   UNL     1       0.077  10.326  19.134  0.00  0.00    +0.000 A 
ATOM      7  C   UNL     1      -0.561   9.960  17.930  0.00  0.00    +0.000 A 
ATOM      8  C   UNL     1      -1.839  10.417  17.600  0.00  0.00    +0.000 A 
ATOM      9  C   UNL     1      -2.514  11.269  18.475  0.00  0.00    +0.000 A 
ATOM     10  C   UNL     1      -1.903  11.694  19.660  0.00  0.00    +0.000 A 
ATOM     11  C   UNL     1      -0.607  11.234  19.979  0.00  0.00    +0.000 A 
BRANCH   9  12
ATOM     12  N   UNL     1      -3.877  11.711  18.149  0.00  0.00    +0.000 N 
ATOM     13  O   UNL     1      -4.246  11.616  16.971  0.00  0.00    +0.000 OA
ATOM     14  O   UNL     1      -4.575  12.144  19.074  0.00  0.00    +0.000 OA
ENDBRANCH   9  12
BRANCH  11  15
ATOM     15  N   UNL     1      -0.007  11.715  21.236  0.00  0.00    +0.000 N 
ATOM     16  O   UNL     1       1.145  12.173  21.197  0.00  0.00    +0.000 OA
ATOM     17  O   UNL     1      -0.683  11.623  22.272  0.00  0.00    +0.000 OA
ENDBRANCH  11  15
ENDBRANCH   4   6
ENDBRANCH   3   4
BRANCH   2  18
ATOM     18  C   UNL     1       1.744   6.363  20.569  0.00  0.00    +0.000 C 
BRANCH  18  19
ATOM     19  C   UNL     1       2.402   5.753  19.348  0.00  0.00    +0.000 C 
ATOM     20  O   UNL     1       1.831   4.915  18.656  0.00  0.00    +0.000 OA
ATOM     21  N   UNL     1       3.677   6.238  19.093  0.00  0.00    +0.000 N 
ATOM     22  H   UNL     1       4.195   6.594  19.888  0.00  0.00    +0.000 HD
BRANCH  21  23
ATOM     23  C   UNL     1       4.439   5.830  17.975  0.00  0.00    +0.000 A 
ATOM     24  C   UNL     1       5.146   4.622  17.956  0.00  0.00    +0.000 A 
ATOM     25  C   UNL     1       5.907   4.263  16.836  0.00  0.00    +0.000 A 
ATOM     26  C   UNL     1       5.981   5.136  15.744  0.00  0.00    +0.000 A 
ATOM     27  C   UNL     1       5.267   6.342  15.754  0.00  0.00    +0.000 A 
ATOM     28  C   UNL     1       4.472   6.669  16.857  0.00  0.00    +0.000 A 
BRANCH  26  29
ATOM     29  N   UNL     1       6.814   4.796  14.584  0.00  0.00    +0.000 N 
ATOM     30  O   UNL     1       6.446   3.849  13.868  0.00  0.00    +0.000 OA
ATOM     31  O   UNL     1       7.828   5.475  14.382  0.00  0.00    +0.000 OA
ENDBRANCH  26  29
ENDBRANCH  21  23
ENDBRANCH  18  19
ENDBRANCH   2  18
TORSDOF 8
ENDMDL
MODEL 4
REMARK VINA RESULT:      -7.5      4.722      7.354
REMARK  Name = 
REMARK  9 active torsions:
REMARK  status: ('A' for Active; 'I' for Inactive)
REMARK    1  A    between atoms: C_1  and  C_2
REMARK    2  A    between atoms: C_2  and  C_3
REMARK    3  A    between atoms: C_3  and  C_4
REMARK    4  A    between atoms: N_6  and  C_7
REMARK    5  A    between atoms: C_10  and  N_11
REMARK    6  A    between atoms: N_16  and  N_17
REMARK    7  A    between atoms: N_17  and  C_18
REMARK    8  A    between atoms: C_21  and  N_22
REMARK    9  A    between atoms: C_26  and  N_27
REMARK                            x       y       z     vdW  Elec       q    Type
REMARK                         _______ _______ _______ _____ _____    ______ ____
ROOT
ATOM      1  C   UNL     1       7.237   4.989  16.763  0.00  0.00    +0.000 C 
ATOM      2  C   UNL     1       6.901   6.181  17.630  0.00  0.00    +0.000 C 
ATOM      3  N   UNL     1       5.722   6.739  17.664  0.00  0.00    +0.000 NA
ENDROOT
BRANCH   3   4
ATOM      4  N   UNL     1       4.746   6.222  16.861  0.00  0.00    +0.000 N 
ATOM      5  H   UNL     1       4.347   6.806  16.115  0.00  0.00    +0.000 HD
BRANCH   4   6
ATOM      6  C   UNL     1       3.805   5.337  17.447  0.00  0.00    +0.000 A 
ATOM      7  C   UNL     1       3.891   3.960  17.151  0.00  0.00    +0.000 A 
ATOM      8  C   UNL     1       2.995   3.029  17.684  0.00  0.00    +0.000 A 
ATOM      9  C   UNL     1       1.974   3.462  18.530  0.00  0.00    +0.000 A 
ATOM     10  C   UNL     1       1.823   4.824  18.817  0.00  0.00    +0.000 A 
ATOM     11  C   UNL     1       2.727   5.756  18.266  0.00  0.00    +0.000 A 
BRANCH   9  12
ATOM     12  N   UNL     1       1.062   2.478  19.127  0.00  0.00    +0.000 N 
ATOM     13  O   UNL     1       0.165   2.014  18.410  0.00  0.00    +0.000 OA
ATOM     14  O   UNL     1       1.250   2.165  20.310  0.00  0.00    +0.000 OA
ENDBRANCH   9  12
BRANCH  11  15
ATOM     15  N   UNL     1       2.521   7.178  18.595  0.00  0.00    +0.000 N 
ATOM     16  O   UNL     1       2.332   7.482  19.783  0.00  0.00    +0.000 OA
ATOM     17  O   UNL     1       2.532   7.995  17.662  0.00  0.00    +0.000 OA
ENDBRANCH  11  15
ENDBRANCH   4   6
ENDBRANCH   3   4
BRANCH   2  18
ATOM     18  C   UNL     1       8.001   6.818  18.461  0.00  0.00    +0.000 C 
BRANCH  18  19
ATOM     19  C   UNL     1       8.220   8.299  18.230  0.00  0.00    +0.000 C 
ATOM     20  O   UNL     1       7.712   8.889  17.281  0.00  0.00    +0.000 OA
ATOM     21  N   UNL     1       9.022   8.907  19.187  0.00  0.00    +0.000 N 
ATOM     22  H   UNL     1       9.687   8.310  19.666  0.00  0.00    +0.000 HD
BRANCH  21  23
ATOM     23  C   UNL     1       9.307  10.290  19.177  0.00  0.00    +0.000 A 
ATOM     24  C   UNL     1       9.221  11.077  20.332  0.00  0.00    +0.000 A 
ATOM     25  C   UNL     1       9.492  12.451  20.276  0.00  0.00    +0.000 A 
ATOM     26  C   UNL     1       9.820  13.039  19.049  0.00  0.00    +0.000 A 
ATOM     27  C   UNL     1       9.917  12.255  17.892  0.00  0.00    +0.000 A 
ATOM     28  C   UNL     1       9.693  10.876  17.967  0.00  0.00    +0.000 A 
BRANCH  26  29
ATOM     29  N   UNL     1      10.058  14.485  18.966  0.00  0.00    +0.000 N 
ATOM     30  O   UNL     1       9.341  15.229  19.657  0.00  0.00    +0.000 OA
ATOM     31  O   UNL     1      10.963  14.880  18.220  0.00  0.00    +0.000 OA
ENDBRANCH  26  29
ENDBRANCH  21  23
ENDBRANCH  18  19
ENDBRANCH   2  18
TORSDOF 8
ENDMDL
MODEL 5
REMARK VINA RESULT:      -7.5      3.453      5.109
REMARK  Name = 
REMARK  9 active torsions:
REMARK  status: ('A' for Active; 'I' for Inactive)
REMARK    1  A    between atoms: C_1  and  C_2
REMARK    2  A    between atoms: C_2  and  C_3
REMARK    3  A    between atoms: C_3  and  C_4
REMARK    4  A    between atoms: N_6  and  C_7
REMARK    5  A    between atoms: C_10  and  N_11
REMARK    6  A    between atoms: N_16  and  N_17
REMARK    7  A    between atoms: N_17  and  C_18
REMARK    8  A    between atoms: C_21  and  N_22
REMARK    9  A    between atoms: C_26  and  N_27
REMARK                            x       y       z     vdW  Elec       q    Type
REMARK                         _______ _______ _______ _____ _____    ______ ____
ROOT
ATOM      1  C   UNL     1       1.449   8.819  18.315  0.00  0.00    +0.000 C 
ATOM      2  C   UNL     1       1.820   7.981  19.518  0.00  0.00    +0.000 C 
ATOM      3  N   UNL     1       2.172   6.727  19.443  0.00  0.00    +0.000 NA
ENDROOT
BRANCH   3   4
ATOM      4  N   UNL     1       2.192   6.140  18.209  0.00  0.00    +0.000 N 
ATOM      5  H   UNL     1       1.410   5.537  17.926  0.00  0.00    +0.000 HD
BRANCH   4   6
ATOM      6  C   UNL     1       3.446   5.714  17.700  0.00  0.00    +0.000 A 
ATOM      7  C   UNL     1       4.457   6.675  17.488  0.00  0.00    +0.000 A 
ATOM      8  C   UNL     1       5.713   6.332  16.981  0.00  0.00    +0.000 A 
ATOM      9  C   UNL     1       5.987   5.002  16.661  0.00  0.00    +0.000 A 
ATOM     10  C   UNL     1       5.000   4.021  16.812  0.00  0.00    +0.000 A 
ATOM     11  C   UNL     1       3.732   4.380  17.316  0.00  0.00    +0.000 A 
BRANCH   9  12
ATOM     12  N   UNL     1       7.323   4.635  16.172  0.00  0.00    +0.000 N 
ATOM     13  O   UNL     1       8.136   4.195  16.996  0.00  0.00    +0.000 OA
ATOM     14  O   UNL     1       7.551   4.780  14.964  0.00  0.00    +0.000 OA
ENDBRANCH   9  12
BRANCH  11  15
ATOM     15  N   UNL     1       2.728   3.310  17.451  0.00  0.00    +0.000 N 
ATOM     16  O   UNL     1       3.114   2.186  17.807  0.00  0.00    +0.000 OA
ATOM     17  O   UNL     1       1.548   3.588  17.185  0.00  0.00    +0.000 OA
ENDBRANCH  11  15
ENDBRANCH   4   6
ENDBRANCH   3   4
BRANCH   2  18
ATOM     18  C   UNL     1       1.716   8.597  20.902  0.00  0.00    +0.000 C 
BRANCH  18  19
ATOM     19  C   UNL     1       0.355   9.150  21.271  0.00  0.00    +0.000 C 
ATOM     20  O   UNL     1      -0.601   8.416  21.504  0.00  0.00    +0.000 OA
ATOM     21  N   UNL     1       0.306  10.537  21.329  0.00  0.00    +0.000 N 
ATOM     22  H   UNL     1       0.979  11.038  20.761  0.00  0.00    +0.000 HD
BRANCH  21  23
ATOM     23  C   UNL     1      -0.859  11.244  21.702  0.00  0.00    +0.000 A 
ATOM     24  C   UNL     1      -1.311  11.290  23.026  0.00  0.00    +0.000 A 
ATOM     25  C   UNL     1      -2.483  11.986  23.351  0.00  0.00    +0.000 A 
ATOM     26  C   UNL     1      -3.218  12.611  22.337  0.00  0.00    +0.000 A 
ATOM     27  C   UNL     1      -2.764  12.576  21.012  0.00  0.00    +0.000 A 
ATOM     28  C   UNL     1      -1.568  11.920  20.704  0.00  0.00    +0.000 A 
BRANCH  26  29
ATOM     29  N   UNL     1      -4.473  13.301  22.656  0.00  0.00    +0.000 N 
ATOM     30  O   UNL     1      -4.990  13.998  21.766  0.00  0.00    +0.000 OA
ATOM     31  O   UNL     1      -4.949  13.143  23.787  0.00  0.00    +0.000 OA
ENDBRANCH  26  29
ENDBRANCH  21  23
ENDBRANCH  18  19
ENDBRANCH   2  18
TORSDOF 8
ENDMDL
MODEL 6
REMARK VINA RESULT:      -7.5      3.413      4.876
REMARK  Name = 
REMARK  9 active torsions:
REMARK  status: ('A' for Active; 'I' for Inactive)
REMARK    1  A    between atoms: C_1  and  C_2
REMARK    2  A    between atoms: C_2  and  C_3
REMARK    3  A    between atoms: C_3  and  C_4
REMARK    4  A    between atoms: N_6  and  C_7
REMARK    5  A    between atoms: C_10  and  N_11
REMARK    6  A    between atoms: N_16  and  N_17
REMARK    7  A    between atoms: N_17  and  C_18
REMARK    8  A    between atoms: C_21  and  N_22
REMARK    9  A    between atoms: C_26  and  N_27
REMARK                            x       y       z     vdW  Elec       q    Type
REMARK                         _______ _______ _______ _____ _____    ______ ____
ROOT
ATOM      1  C   UNL     1       1.659   5.899  20.931  0.00  0.00    +0.000 C 
ATOM      2  C   UNL     1       1.846   7.195  20.176  0.00  0.00    +0.000 C 
ATOM      3  N   UNL     1       2.080   7.256  18.893  0.00  0.00    +0.000 NA
ENDROOT
BRANCH   3   4
ATOM      4  N   UNL     1       2.172   6.081  18.203  0.00  0.00    +0.000 N 
ATOM      5  H   UNL     1       1.609   5.275  18.504  0.00  0.00    +0.000 HD
BRANCH   4   6
ATOM      6  C   UNL     1       3.440   5.719  17.679  0.00  0.00    +0.000 A 
ATOM      7  C   UNL     1       4.395   6.732  17.448  0.00  0.00    +0.000 A 
ATOM      8  C   UNL     1       5.660   6.453  16.926  0.00  0.00    +0.000 A 
ATOM      9  C   UNL     1       6.001   5.137  16.609  0.00  0.00    +0.000 A 
ATOM     10  C   UNL     1       5.070   4.106  16.779  0.00  0.00    +0.000 A 
ATOM     11  C   UNL     1       3.791   4.400  17.298  0.00  0.00    +0.000 A 
BRANCH   9  12
ATOM     12  N   UNL     1       7.348   4.839  16.104  0.00  0.00    +0.000 N 
ATOM     13  O   UNL     1       7.653   5.277  14.987  0.00  0.00    +0.000 OA
ATOM     14  O   UNL     1       8.099   4.176  16.832  0.00  0.00    +0.000 OA
ENDBRANCH   9  12
BRANCH  11  15
ATOM     15  N   UNL     1       2.848   3.279  17.452  0.00  0.00    +0.000 N 
ATOM     16  O   UNL     1       1.643   3.495  17.245  0.00  0.00    +0.000 OA
ATOM     17  O   UNL     1       3.308   2.179  17.795  0.00  0.00    +0.000 OA
ENDBRANCH  11  15
ENDBRANCH   4   6
ENDBRANCH   3   4
BRANCH   2  18
ATOM     18  C   UNL     1       1.833   8.503  20.948  0.00  0.00    +0.000 C 
BRANCH  18  19
ATOM     19  C   UNL     1       0.461   9.056  21.273  0.00  0.00    +0.000 C 
ATOM     20  O   UNL     1      -0.505   8.322  21.463  0.00  0.00    +0.000 OA
ATOM     21  N   UNL     1       0.413  10.442  21.345  0.00  0.00    +0.000 N 
ATOM     22  H   UNL     1       1.108  10.947  20.807  0.00  0.00    +0.000 HD
BRANCH  21  23
ATOM     23  C   UNL     1      -0.762  11.149  21.683  0.00  0.00    +0.000 A 
ATOM     24  C   UNL     1      -1.235  11.223  22.999  0.00  0.00    +0.000 A 
ATOM     25  C   UNL     1      -2.417  11.917  23.290  0.00  0.00    +0.000 A 
ATOM     26  C   UNL     1      -3.141  12.511  22.250  0.00  0.00    +0.000 A 
ATOM     27  C   UNL     1      -2.668  12.448  20.933  0.00  0.00    +0.000 A 
ATOM     28  C   UNL     1      -1.461  11.795  20.659  0.00  0.00    +0.000 A 
BRANCH  26  29
ATOM     29  N   UNL     1      -4.407  13.199  22.533  0.00  0.00    +0.000 N 
ATOM     30  O   UNL     1      -4.361  14.420  22.760  0.00  0.00    +0.000 OA
ATOM     31  O   UNL     1      -5.445  12.527  22.521  0.00  0.00    +0.000 OA
ENDBRANCH  26  29
ENDBRANCH  21  23
ENDBRANCH  18  19
ENDBRANCH   2  18
TORSDOF 8
ENDMDL
MODEL 7
REMARK VINA RESULT:      -7.5      4.843      7.547
REMARK  Name = 
REMARK  9 active torsions:
REMARK  status: ('A' for Active; 'I' for Inactive)
REMARK    1  A    between atoms: C_1  and  C_2
REMARK    2  A    between atoms: C_2  and  C_3
REMARK    3  A    between atoms: C_3  and  C_4
REMARK    4  A    between atoms: N_6  and  C_7
REMARK    5  A    between atoms: C_10  and  N_11
REMARK    6  A    between atoms: N_16  and  N_17
REMARK    7  A    between atoms: N_17  and  C_18
REMARK    8  A    between atoms: C_21  and  N_22
REMARK    9  A    between atoms: C_26  and  N_27
REMARK                            x       y       z     vdW  Elec       q    Type
REMARK                         _______ _______ _______ _____ _____    ______ ____
ROOT
ATOM      1  C   UNL     1       7.223   5.450  16.342  0.00  0.00    +0.000 C 
ATOM      2  C   UNL     1       6.878   6.416  17.453  0.00  0.00    +0.000 C 
ATOM      3  N   UNL     1       5.664   6.822  17.706  0.00  0.00    +0.000 NA
ENDROOT
BRANCH   3   4
ATOM      4  N   UNL     1       4.655   6.355  16.911  0.00  0.00    +0.000 N 
ATOM      5  H   UNL     1       4.255   6.971  16.193  0.00  0.00    +0.000 HD
BRANCH   4   6
ATOM      6  C   UNL     1       3.704   5.479  17.495  0.00  0.00    +0.000 A 
ATOM      7  C   UNL     1       3.774   4.102  17.195  0.00  0.00    +0.000 A 
ATOM      8  C   UNL     1       2.868   3.180  17.725  0.00  0.00    +0.000 A 
ATOM      9  C   UNL     1       1.851   3.622  18.572  0.00  0.00    +0.000 A 
ATOM     10  C   UNL     1       1.714   4.985  18.862  0.00  0.00    +0.000 A 
ATOM     11  C   UNL     1       2.630   5.909  18.313  0.00  0.00    +0.000 A 
BRANCH   9  12
ATOM     12  N   UNL     1       0.927   2.647  19.166  0.00  0.00    +0.000 N 
ATOM     13  O   UNL     1       0.213   1.988  18.397  0.00  0.00    +0.000 OA
ATOM     14  O   UNL     1       0.925   2.536  20.399  0.00  0.00    +0.000 OA
ENDBRANCH   9  12
BRANCH  11  15
ATOM     15  N   UNL     1       2.439   7.331  18.646  0.00  0.00    +0.000 N 
ATOM     16  O   UNL     1       2.535   8.164  17.732  0.00  0.00    +0.000 OA
ATOM     17  O   UNL     1       2.207   7.622  19.829  0.00  0.00    +0.000 OA
ENDBRANCH  11  15
ENDBRANCH   4   6
ENDBRANCH   3   4
BRANCH   2  18
ATOM     18  C   UNL     1       8.001   7.008  18.286  0.00  0.00    +0.000 C 
BRANCH  18  19
ATOM     19  C   UNL     1       8.207   8.502  18.138  0.00  0.00    +0.000 C 
ATOM     20  O   UNL     1       7.616   9.155  17.283  0.00  0.00    +0.000 OA
ATOM     21  N   UNL     1       9.098   9.042  19.055  0.00  0.00    +0.000 N 
ATOM     22  H   UNL     1       9.801   8.414  19.428  0.00  0.00    +0.000 HD
BRANCH  21  23
ATOM     23  C   UNL     1       9.389  10.423  19.113  0.00  0.00    +0.000 A 
ATOM     24  C   UNL     1       9.890  11.126  18.010  0.00  0.00    +0.000 A 
ATOM     25  C   UNL     1      10.186  12.492  18.115  0.00  0.00    +0.000 A 
ATOM     26  C   UNL     1      10.007  13.144  19.340  0.00  0.00    +0.000 A 
ATOM     27  C   UNL     1       9.497  12.448  20.444  0.00  0.00    +0.000 A 
ATOM     28  C   UNL     1       9.159  11.096  20.317  0.00  0.00    +0.000 A 
BRANCH  26  29
ATOM     29  N   UNL     1      10.359  14.563  19.478  0.00  0.00    +0.000 N 
ATOM     30  O   UNL     1       9.901  15.179  20.456  0.00  0.00    +0.000 OA
ATOM     31  O   UNL     1      11.096  15.061  18.618  0.00  0.00    +0.000 OA
ENDBRANCH  26  29
ENDBRANCH  21  23
ENDBRANCH  18  19
ENDBRANCH   2  18
TORSDOF 8
ENDMDL
MODEL 8
REMARK VINA RESULT:      -7.4      3.519      5.213
REMARK  Name = 
REMARK  9 active torsions:
REMARK  status: ('A' for Active; 'I' for Inactive)
REMARK    1  A    between atoms: C_1  and  C_2
REMARK    2  A    between atoms: C_2  and  C_3
REMARK    3  A    between atoms: C_3  and  C_4
REMARK    4  A    between atoms: N_6  and  C_7
REMARK    5  A    between atoms: C_10  and  N_11
REMARK    6  A    between atoms: N_16  and  N_17
REMARK    7  A    between atoms: N_17  and  C_18
REMARK    8  A    between atoms: C_21  and  N_22
REMARK    9  A    between atoms: C_26  and  N_27
REMARK                            x       y       z     vdW  Elec       q    Type
REMARK                         _______ _______ _______ _____ _____    ______ ____
ROOT
ATOM      1  C   UNL     1       1.471   8.952  18.300  0.00  0.00    +0.000 C 
ATOM      2  C   UNL     1       1.817   8.137  19.525  0.00  0.00    +0.000 C 
ATOM      3  N   UNL     1       2.153   6.876  19.482  0.00  0.00    +0.000 NA
ENDROOT
BRANCH   3   4
ATOM      4  N   UNL     1       2.180   6.262  18.263  0.00  0.00    +0.000 N 
ATOM      5  H   UNL     1       1.409   5.635  17.998  0.00  0.00    +0.000 HD
BRANCH   4   6
ATOM      6  C   UNL     1       3.440   5.851  17.755  0.00  0.00    +0.000 A 
ATOM      7  C   UNL     1       4.347   6.836  17.311  0.00  0.00    +0.000 A 
ATOM      8  C   UNL     1       5.602   6.508  16.791  0.00  0.00    +0.000 A 
ATOM      9  C   UNL     1       5.979   5.168  16.694  0.00  0.00    +0.000 A 
ATOM     10  C   UNL     1       5.094   4.155  17.082  0.00  0.00    +0.000 A 
ATOM     11  C   UNL     1       3.825   4.498  17.596  0.00  0.00    +0.000 A 
BRANCH   9  12
ATOM     12  N   UNL     1       7.316   4.826  16.192  0.00  0.00    +0.000 N 
ATOM     13  O   UNL     1       8.072   4.200  16.946  0.00  0.00    +0.000 OA
ATOM     14  O   UNL     1       7.602   5.178  15.039  0.00  0.00    +0.000 OA
ENDBRANCH   9  12
BRANCH  11  15
ATOM     15  N   UNL     1       2.930   3.393  17.984  0.00  0.00    +0.000 N 
ATOM     16  O   UNL     1       2.439   2.694  17.085  0.00  0.00    +0.000 OA
ATOM     17  O   UNL     1       2.703   3.231  19.193  0.00  0.00    +0.000 OA
ENDBRANCH  11  15
ENDBRANCH   4   6
ENDBRANCH   3   4
BRANCH   2  18
ATOM     18  C   UNL     1       1.706   8.785  20.894  0.00  0.00    +0.000 C 
BRANCH  18  19
ATOM     19  C   UNL     1       0.322   9.263  21.280  0.00  0.00    +0.000 C 
ATOM     20  O   UNL     1      -0.582   8.478  21.552  0.00  0.00    +0.000 OA
ATOM     21  N   UNL     1       0.188  10.645  21.308  0.00  0.00    +0.000 N 
ATOM     22  H   UNL     1       0.817  11.172  20.714  0.00  0.00    +0.000 HD
BRANCH  21  23
ATOM     23  C   UNL     1      -1.009  11.288  21.690  0.00  0.00    +0.000 A 
ATOM     24  C   UNL     1      -1.827  11.950  20.765  0.00  0.00    +0.000 A 
ATOM     25  C   UNL     1      -2.997  12.595  21.187  0.00  0.00    +0.000 A 
ATOM     26  C   UNL     1      -3.330  12.600  22.547  0.00  0.00    +0.000 A 
ATOM     27  C   UNL     1      -2.520  11.931  23.475  0.00  0.00    +0.000 A 
ATOM     28  C   UNL     1      -1.380  11.249  23.037  0.00  0.00    +0.000 A 
BRANCH  26  29
ATOM     29  N   UNL     1      -4.526  13.313  23.010  0.00  0.00    +0.000 N 
ATOM     30  O   UNL     1      -5.363  12.669  23.667  0.00  0.00    +0.000 OA
ATOM     31  O   UNL     1      -4.629  14.512  22.728  0.00  0.00    +0.000 OA
ENDBRANCH  26  29
ENDBRANCH  21  23
ENDBRANCH  18  19
ENDBRANCH   2  18
TORSDOF 8
ENDMDL
MODEL 9
REMARK VINA RESULT:      -7.4      3.542      5.334
REMARK  Name = 
REMARK  9 active torsions:
REMARK  status: ('A' for Active; 'I' for Inactive)
REMARK    1  A    between atoms: C_1  and  C_2
REMARK    2  A    between atoms: C_2  and  C_3
REMARK    3  A    between atoms: C_3  and  C_4
REMARK    4  A    between atoms: N_6  and  C_7
REMARK    5  A    between atoms: C_10  and  N_11
REMARK    6  A    between atoms: N_16  and  N_17
REMARK    7  A    between atoms: N_17  and  C_18
REMARK    8  A    between atoms: C_21  and  N_22
REMARK    9  A    between atoms: C_26  and  N_27
REMARK                            x       y       z     vdW  Elec       q    Type
REMARK                         _______ _______ _______ _____ _____    ______ ____
ROOT
ATOM      1  C   UNL     1       1.670   7.847  20.551  0.00  0.00    +0.000 C 
ATOM      2  C   UNL     1       1.654   8.406  19.146  0.00  0.00    +0.000 C 
ATOM      3  N   UNL     1       1.965   7.709  18.088  0.00  0.00    +0.000 NA
ENDROOT
BRANCH   3   4
ATOM      4  N   UNL     1       2.338   6.407  18.267  0.00  0.00    +0.000 N 
ATOM      5  H   UNL     1       2.124   5.940  19.157  0.00  0.00    +0.000 HD
BRANCH   4   6
ATOM      6  C   UNL     1       3.563   5.983  17.688  0.00  0.00    +0.000 A 
ATOM      7  C   UNL     1       4.514   6.959  17.321  0.00  0.00    +0.000 A 
ATOM      8  C   UNL     1       5.738   6.619  16.739  0.00  0.00    +0.000 A 
ATOM      9  C   UNL     1       6.038   5.277  16.499  0.00  0.00    +0.000 A 
ATOM     10  C   UNL     1       5.106   4.279  16.805  0.00  0.00    +0.000 A 
ATOM     11  C   UNL     1       3.869   4.634  17.385  0.00  0.00    +0.000 A 
BRANCH   9  12
ATOM     12  N   UNL     1       7.344   4.917  15.930  0.00  0.00    +0.000 N 
ATOM     13  O   UNL     1       8.101   4.223  16.621  0.00  0.00    +0.000 OA
ATOM     14  O   UNL     1       7.603   5.324  14.790  0.00  0.00    +0.000 OA
ENDBRANCH   9  12
BRANCH  11  15
ATOM     15  N   UNL     1       2.922   3.545  17.683  0.00  0.00    +0.000 N 
ATOM     16  O   UNL     1       3.342   2.560  18.309  0.00  0.00    +0.000 OA
ATOM     17  O   UNL     1       1.756   3.666  17.277  0.00  0.00    +0.000 OA
ENDBRANCH  11  15
ENDBRANCH   4   6
ENDBRANCH   3   4
BRANCH   2  18
ATOM     18  C   UNL     1       1.326   9.876  18.945  0.00  0.00    +0.000 C 
BRANCH  18  19
ATOM     19  C   UNL     1       0.016  10.341  19.545  0.00  0.00    +0.000 C 
ATOM     20  O   UNL     1      -1.067   9.935  19.133  0.00  0.00    +0.000 OA
ATOM     21  N   UNL     1       0.163  11.241  20.593  0.00  0.00    +0.000 N 
ATOM     22  H   UNL     1       1.010  11.798  20.596  0.00  0.00    +0.000 HD
BRANCH  21  23
ATOM     23  C   UNL     1      -0.935  11.756  21.316  0.00  0.00    +0.000 A 
ATOM     24  C   UNL     1      -1.728  12.800  20.823  0.00  0.00    +0.000 A 
ATOM     25  C   UNL     1      -2.796  13.298  21.581  0.00  0.00    +0.000 A 
ATOM     26  C   UNL     1      -3.049  12.764  22.850  0.00  0.00    +0.000 A 
ATOM     27  C   UNL     1      -2.266  11.712  23.343  0.00  0.00    +0.000 A 
ATOM     28  C   UNL     1      -1.231  11.190  22.559  0.00  0.00    +0.000 A 
BRANCH  26  29
ATOM     29  N   UNL     1      -4.134  13.308  23.675  0.00  0.00    +0.000 N 
ATOM     30  O   UNL     1      -4.863  12.500  24.277  0.00  0.00    +0.000 OA
ATOM     31  O   UNL     1      -4.256  14.538  23.732  0.00  0.00    +0.000 OA
ENDBRANCH  26  29
ENDBRANCH  21  23
ENDBRANCH  18  19
ENDBRANCH   2  18
TORSDOF 8
ENDMDL
