MODEL 1
REMARK VINA RESULT:      -7.2      0.000      0.000
REMARK  Name = 
REMARK  5 active torsions:
REMARK  status: ('A' for Active; 'I' for Inactive)
REMARK    1  A    between atoms: C_1  and  C_2
REMARK    2  A    between atoms: N_4  and  C_5
REMARK    3  A    between atoms: N_8  and  C_9
REMARK    4  A    between atoms: C_9  and  C_10
REMARK    5  A    between atoms: C_12  and  C_13
REMARK                            x       y       z     vdW  Elec       q    Type
REMARK                         _______ _______ _______ _____ _____    ______ ____
ROOT
ATOM      1  C   UNL     1       1.504   2.715  21.562  0.00  0.00    +0.000 C 
ATOM      2  C   UNL     1       1.855   3.805  20.601  0.00  0.00    +0.000 A 
ATOM      3  C   UNL     1       1.644   5.101  20.839  0.00  0.00    +0.000 A 
ATOM      4  N   UNL     1       2.000   6.074  19.939  0.00  0.00    +0.000 N 
ATOM      5  C   UNL     1       1.827   7.476  20.286  0.00  0.00    +0.000 C 
ATOM      6  C   UNL     1       2.554   5.782  18.696  0.00  0.00    +0.000 A 
ATOM      7  O   UNL     1       2.894   6.674  17.918  0.00  0.00    +0.000 OA
ATOM      8  N   UNL     1       2.723   4.433  18.407  0.00  0.00    +0.000 N 
ATOM      9  C   UNL     1       2.521   3.420  19.329  0.00  0.00    +0.000 A 
ATOM     10  O   UNL     1       2.892   2.260  19.173  0.00  0.00    +0.000 OA
ENDROOT
BRANCH   8  11
ATOM     11  C   UNL     1       3.384   4.096  17.154  0.00  0.00    +0.000 C 
BRANCH  11  12
ATOM     12  C   UNL     1       4.828   4.537  17.115  0.00  0.00    +0.000 A 
ATOM     13  N   UNL     1       5.605   4.647  18.176  0.00  0.00    +0.000 NA
ATOM     14  C   UNL     1       6.804   5.297  17.856  0.00  0.00    +0.000 A 
ATOM     15  C   UNL     1       6.922   5.617  16.514  0.00  0.00    +0.000 A 
ATOM     16  S   UNL     1       5.529   5.123  15.653  0.00  0.00    +0.000 S 
BRANCH  14  17
ATOM     17  C   UNL     1       7.816   5.641  18.912  0.00  0.00    +0.000 C 
ATOM     18  F   UNL     1       8.378   6.865  18.750  0.00  0.00    +0.000 F 
ATOM     19  F   UNL     1       7.271   5.619  20.159  0.00  0.00    +0.000 F 
ATOM     20  F   UNL     1       8.837   4.740  18.928  0.00  0.00    +0.000 F 
ENDBRANCH  14  17
ENDBRANCH  11  12
ENDBRANCH   8  11
TORSDOF 3
ENDMDL
MODEL 2
REMARK VINA RESULT:      -7.1      0.695      2.409
REMARK  Name = 
REMARK  5 active torsions:
REMARK  status: ('A' for Active; 'I' for Inactive)
REMARK    1  A    between atoms: C_1  and  C_2
REMARK    2  A    between atoms: N_4  and  C_5
REMARK    3  A    between atoms: N_8  and  C_9
REMARK    4  A    between atoms: C_9  and  C_10
REMARK    5  A    between atoms: C_12  and  C_13
REMARK                            x       y       z     vdW  Elec       q    Type
REMARK                         _______ _______ _______ _____ _____    ______ ____
ROOT
ATOM      1  C   UNL     1       1.594   7.395  20.583  0.00  0.00    +0.000 C 
ATOM      2  C   UNL     1       1.858   5.963  20.244  0.00  0.00    +0.000 A 
ATOM      3  C   UNL     1       1.572   4.943  21.056  0.00  0.00    +0.000 A 
ATOM      4  N   UNL     1       1.809   3.639  20.699  0.00  0.00    +0.000 N 
ATOM      5  C   UNL     1       1.398   2.562  21.586  0.00  0.00    +0.000 C 
ATOM      6  C   UNL     1       2.414   3.288  19.496  0.00  0.00    +0.000 A 
ATOM      7  O   UNL     1       2.588   2.109  19.184  0.00  0.00    +0.000 OA
ATOM      8  N   UNL     1       2.775   4.342  18.666  0.00  0.00    +0.000 N 
ATOM      9  C   UNL     1       2.429   5.661  18.905  0.00  0.00    +0.000 A 
ATOM     10  O   UNL     1       2.524   6.562  18.076  0.00  0.00    +0.000 OA
ENDROOT
BRANCH   8  11
ATOM     11  C   UNL     1       3.326   4.006  17.360  0.00  0.00    +0.000 C 
BRANCH  11  12
ATOM     12  C   UNL     1       4.803   4.299  17.253  0.00  0.00    +0.000 A 
ATOM     13  N   UNL     1       5.580   4.609  18.274  0.00  0.00    +0.000 NA
ATOM     14  C   UNL     1       6.834   5.053  17.835  0.00  0.00    +0.000 A 
ATOM     15  C   UNL     1       6.990   5.008  16.460  0.00  0.00    +0.000 A 
ATOM     16  S   UNL     1       5.564   4.430  15.712  0.00  0.00    +0.000 S 
BRANCH  14  17
ATOM     17  C   UNL     1       7.866   5.567  18.799  0.00  0.00    +0.000 C 
ATOM     18  F   UNL     1       8.383   6.772  18.450  0.00  0.00    +0.000 F 
ATOM     19  F   UNL     1       7.359   5.703  20.054  0.00  0.00    +0.000 F 
ATOM     20  F   UNL     1       8.915   4.705  18.904  0.00  0.00    +0.000 F 
ENDBRANCH  14  17
ENDBRANCH  11  12
ENDBRANCH   8  11
TORSDOF 3
ENDMDL
MODEL 3
REMARK VINA RESULT:      -6.9      3.561      4.008
REMARK  Name = 
REMARK  5 active torsions:
REMARK  status: ('A' for Active; 'I' for Inactive)
REMARK    1  A    between atoms: C_1  and  C_2
REMARK    2  A    between atoms: N_4  and  C_5
REMARK    3  A    between atoms: N_8  and  C_9
REMARK    4  A    between atoms: C_9  and  C_10
REMARK    5  A    between atoms: C_12  and  C_13
REMARK                            x       y       z     vdW  Elec       q    Type
REMARK                         _______ _______ _______ _____ _____    ______ ____
ROOT
ATOM      1  C   UNL     1       0.840   2.311  18.588  0.00  0.00    +0.000 C 
ATOM      2  C   UNL     1       1.893   3.371  18.569  0.00  0.00    +0.000 A 
ATOM      3  C   UNL     1       1.683   4.635  18.943  0.00  0.00    +0.000 A 
ATOM      4  N   UNL     1       2.682   5.575  18.931  0.00  0.00    +0.000 N 
ATOM      5  C   UNL     1       2.419   6.915  19.430  0.00  0.00    +0.000 C 
ATOM      6  C   UNL     1       3.969   5.297  18.479  0.00  0.00    +0.000 A 
ATOM      7  O   UNL     1       4.858   6.149  18.508  0.00  0.00    +0.000 OA
ATOM      8  N   UNL     1       4.189   4.001  18.028  0.00  0.00    +0.000 N 
ATOM      9  C   UNL     1       3.265   2.977  18.153  0.00  0.00    +0.000 A 
ATOM     10  O   UNL     1       3.525   1.789  17.988  0.00  0.00    +0.000 OA
ENDROOT
BRANCH   8  11
ATOM     11  C   UNL     1       5.548   3.652  17.635  0.00  0.00    +0.000 C 
BRANCH  11  12
ATOM     12  C   UNL     1       5.891   4.115  16.239  0.00  0.00    +0.000 A 
ATOM     13  N   UNL     1       5.406   3.582  15.133  0.00  0.00    +0.000 NA
ATOM     14  C   UNL     1       6.084   4.062  14.005  0.00  0.00    +0.000 A 
ATOM     15  C   UNL     1       7.048   5.011  14.297  0.00  0.00    +0.000 A 
ATOM     16  S   UNL     1       7.124   5.293  15.982  0.00  0.00    +0.000 S 
BRANCH  14  17
ATOM     17  C   UNL     1       5.792   3.530  12.630  0.00  0.00    +0.000 C 
ATOM     18  F   UNL     1       4.526   3.775  12.209  0.00  0.00    +0.000 F 
ATOM     19  F   UNL     1       6.629   4.061  11.697  0.00  0.00    +0.000 F 
ATOM     20  F   UNL     1       5.970   2.181  12.576  0.00  0.00    +0.000 F 
ENDBRANCH  14  17
ENDBRANCH  11  12
ENDBRANCH   8  11
TORSDOF 3
ENDMDL
MODEL 4
REMARK VINA RESULT:      -6.8      3.362      5.855
REMARK  Name = 
REMARK  5 active torsions:
REMARK  status: ('A' for Active; 'I' for Inactive)
REMARK    1  A    between atoms: C_1  and  C_2
REMARK    2  A    between atoms: N_4  and  C_5
REMARK    3  A    between atoms: N_8  and  C_9
REMARK    4  A    between atoms: C_9  and  C_10
REMARK    5  A    between atoms: C_12  and  C_13
REMARK                            x       y       z     vdW  Elec       q    Type
REMARK                         _______ _______ _______ _____ _____    ______ ____
ROOT
ATOM      1  C   UNL     1       8.214   7.296  18.352  0.00  0.00    +0.000 C 
ATOM      2  C   UNL     1       7.234   6.296  17.830  0.00  0.00    +0.000 A 
ATOM      3  C   UNL     1       7.004   6.089  16.532  0.00  0.00    +0.000 A 
ATOM      4  N   UNL     1       6.111   5.145  16.091  0.00  0.00    +0.000 N 
ATOM      5  C   UNL     1       5.962   4.902  14.665  0.00  0.00    +0.000 C 
ATOM      6  C   UNL     1       5.342   4.375  16.959  0.00  0.00    +0.000 A 
ATOM      7  O   UNL     1       4.570   3.512  16.540  0.00  0.00    +0.000 OA
ATOM      8  N   UNL     1       5.525   4.621  18.315  0.00  0.00    +0.000 N 
ATOM      9  C   UNL     1       6.512   5.451  18.818  0.00  0.00    +0.000 A 
ATOM     10  O   UNL     1       6.843   5.493  19.999  0.00  0.00    +0.000 OA
ENDROOT
BRANCH   8  11
ATOM     11  C   UNL     1       4.804   3.769  19.251  0.00  0.00    +0.000 C 
BRANCH  11  12
ATOM     12  C   UNL     1       3.477   4.354  19.674  0.00  0.00    +0.000 A 
ATOM     13  N   UNL     1       3.204   5.645  19.703  0.00  0.00    +0.000 NA
ATOM     14  C   UNL     1       1.989   5.887  20.356  0.00  0.00    +0.000 A 
ATOM     15  C   UNL     1       1.336   4.735  20.763  0.00  0.00    +0.000 A 
ATOM     16  S   UNL     1       2.248   3.349  20.345  0.00  0.00    +0.000 S 
BRANCH  14  17
ATOM     17  C   UNL     1       1.502   7.285  20.616  0.00  0.00    +0.000 C 
ATOM     18  F   UNL     1       1.570   8.095  19.529  0.00  0.00    +0.000 F 
ATOM     19  F   UNL     1       0.208   7.298  21.038  0.00  0.00    +0.000 F 
ATOM     20  F   UNL     1       2.228   7.885  21.598  0.00  0.00    +0.000 F 
ENDBRANCH  14  17
ENDBRANCH  11  12
ENDBRANCH   8  11
TORSDOF 3
ENDMDL
MODEL 5
REMARK VINA RESULT:      -6.7      1.231      2.727
REMARK  Name = 
REMARK  5 active torsions:
REMARK  status: ('A' for Active; 'I' for Inactive)
REMARK    1  A    between atoms: C_1  and  C_2
REMARK    2  A    between atoms: N_4  and  C_5
REMARK    3  A    between atoms: N_8  and  C_9
REMARK    4  A    between atoms: C_9  and  C_10
REMARK    5  A    between atoms: C_12  and  C_13
REMARK                            x       y       z     vdW  Elec       q    Type
REMARK                         _______ _______ _______ _____ _____    ______ ____
ROOT
ATOM      1  C   UNL     1       1.525   7.391  20.504  0.00  0.00    +0.000 C 
ATOM      2  C   UNL     1       2.026   6.024  20.167  0.00  0.00    +0.000 A 
ATOM      3  C   UNL     1       2.015   4.998  21.020  0.00  0.00    +0.000 A 
ATOM      4  N   UNL     1       2.465   3.751  20.666  0.00  0.00    +0.000 N 
ATOM      5  C   UNL     1       2.349   2.648  21.607  0.00  0.00    +0.000 C 
ATOM      6  C   UNL     1       3.015   3.477  19.417  0.00  0.00    +0.000 A 
ATOM      7  O   UNL     1       3.383   2.342  19.112  0.00  0.00    +0.000 OA
ATOM      8  N   UNL     1       3.092   4.550  18.538  0.00  0.00    +0.000 N 
ATOM      9  C   UNL     1       2.522   5.788  18.786  0.00  0.00    +0.000 A 
ATOM     10  O   UNL     1       2.368   6.660  17.935  0.00  0.00    +0.000 OA
ENDROOT
BRANCH   8  11
ATOM     11  C   UNL     1       3.577   4.277  17.192  0.00  0.00    +0.000 C 
BRANCH  11  12
ATOM     12  C   UNL     1       4.979   4.787  16.960  0.00  0.00    +0.000 A 
ATOM     13  N   UNL     1       5.529   5.792  17.616  0.00  0.00    +0.000 NA
ATOM     14  C   UNL     1       6.737   6.179  17.022  0.00  0.00    +0.000 A 
ATOM     15  C   UNL     1       7.101   5.396  15.940  0.00  0.00    +0.000 A 
ATOM     16  S   UNL     1       5.927   4.186  15.650  0.00  0.00    +0.000 S 
BRANCH  14  17
ATOM     17  C   UNL     1       7.507   7.371  17.516  0.00  0.00    +0.000 C 
ATOM     18  F   UNL     1       6.746   8.483  17.675  0.00  0.00    +0.000 F 
ATOM     19  F   UNL     1       8.102   7.124  18.715  0.00  0.00    +0.000 F 
ATOM     20  F   UNL     1       8.510   7.701  16.656  0.00  0.00    +0.000 F 
ENDBRANCH  14  17
ENDBRANCH  11  12
ENDBRANCH   8  11
TORSDOF 3
ENDMDL
MODEL 6
REMARK VINA RESULT:      -6.7      3.282      4.636
REMARK  Name = 
REMARK  5 active torsions:
REMARK  status: ('A' for Active; 'I' for Inactive)
REMARK    1  A    between atoms: C_1  and  C_2
REMARK    2  A    between atoms: N_4  and  C_5
REMARK    3  A    between atoms: N_8  and  C_9
REMARK    4  A    between atoms: C_9  and  C_10
REMARK    5  A    between atoms: C_12  and  C_13
REMARK                            x       y       z     vdW  Elec       q    Type
REMARK                         _______ _______ _______ _____ _____    ______ ____
ROOT
ATOM      1  C   UNL     1       2.631   8.124  17.657  0.00  0.00    +0.000 C 
ATOM      2  C   UNL     1       3.368   6.915  18.132  0.00  0.00    +0.000 A 
ATOM      3  C   UNL     1       2.851   6.010  18.966  0.00  0.00    +0.000 A 
ATOM      4  N   UNL     1       3.554   4.900  19.363  0.00  0.00    +0.000 N 
ATOM      5  C   UNL     1       2.911   3.902  20.203  0.00  0.00    +0.000 C 
ATOM      6  C   UNL     1       4.868   4.664  18.973  0.00  0.00    +0.000 A 
ATOM      7  O   UNL     1       5.468   3.644  19.317  0.00  0.00    +0.000 OA
ATOM      8  N   UNL     1       5.443   5.628  18.155  0.00  0.00    +0.000 N 
ATOM      9  C   UNL     1       4.740   6.687  17.606  0.00  0.00    +0.000 A 
ATOM     10  O   UNL     1       5.161   7.400  16.700  0.00  0.00    +0.000 OA
ENDROOT
BRANCH   8  11
ATOM     11  C   UNL     1       6.786   5.366  17.654  0.00  0.00    +0.000 C 
BRANCH  11  12
ATOM     12  C   UNL     1       6.793   4.867  16.229  0.00  0.00    +0.000 A 
ATOM     13  N   UNL     1       7.602   5.311  15.285  0.00  0.00    +0.000 NA
ATOM     14  C   UNL     1       7.215   4.832  14.026  0.00  0.00    +0.000 A 
ATOM     15  C   UNL     1       6.131   3.972  14.068  0.00  0.00    +0.000 A 
ATOM     16  S   UNL     1       5.581   3.774  15.675  0.00  0.00    +0.000 S 
BRANCH  14  17
ATOM     17  C   UNL     1       7.909   5.277  12.770  0.00  0.00    +0.000 C 
ATOM     18  F   UNL     1       9.237   5.503  12.934  0.00  0.00    +0.000 F 
ATOM     19  F   UNL     1       7.784   4.360  11.774  0.00  0.00    +0.000 F 
ATOM     20  F   UNL     1       7.371   6.433  12.293  0.00  0.00    +0.000 F 
ENDBRANCH  14  17
ENDBRANCH  11  12
ENDBRANCH   8  11
TORSDOF 3
ENDMDL
MODEL 7
REMARK VINA RESULT:      -6.6      1.051      1.548
REMARK  Name = 
REMARK  5 active torsions:
REMARK  status: ('A' for Active; 'I' for Inactive)
REMARK    1  A    between atoms: C_1  and  C_2
REMARK    2  A    between atoms: N_4  and  C_5
REMARK    3  A    between atoms: N_8  and  C_9
REMARK    4  A    between atoms: C_9  and  C_10
REMARK    5  A    between atoms: C_12  and  C_13
REMARK                            x       y       z     vdW  Elec       q    Type
REMARK                         _______ _______ _______ _____ _____    ______ ____
ROOT
ATOM      1  C   UNL     1       2.440   2.693  21.720  0.00  0.00    +0.000 C 
ATOM      2  C   UNL     1       2.425   3.826  20.747  0.00  0.00    +0.000 A 
ATOM      3  C   UNL     1       2.001   5.056  21.045  0.00  0.00    +0.000 A 
ATOM      4  N   UNL     1       2.022   6.077  20.128  0.00  0.00    +0.000 N 
ATOM      5  C   UNL     1       1.630   7.418  20.531  0.00  0.00    +0.000 C 
ATOM      6  C   UNL     1       2.434   5.895  18.811  0.00  0.00    +0.000 A 
ATOM      7  O   UNL     1       2.475   6.834  18.015  0.00  0.00    +0.000 OA
ATOM      8  N   UNL     1       2.821   4.605  18.467  0.00  0.00    +0.000 N 
ATOM      9  C   UNL     1       2.959   3.576  19.382  0.00  0.00    +0.000 A 
ATOM     10  O   UNL     1       3.525   2.512  19.145  0.00  0.00    +0.000 OA
ENDROOT
BRANCH   8  11
ATOM     11  C   UNL     1       3.345   4.401  17.123  0.00  0.00    +0.000 C 
BRANCH  11  12
ATOM     12  C   UNL     1       4.802   4.777  16.998  0.00  0.00    +0.000 A 
ATOM     13  N   UNL     1       5.365   5.803  17.608  0.00  0.00    +0.000 NA
ATOM     14  C   UNL     1       6.656   6.034  17.116  0.00  0.00    +0.000 A 
ATOM     15  C   UNL     1       7.061   5.113  16.164  0.00  0.00    +0.000 A 
ATOM     16  S   UNL     1       5.824   3.970  15.868  0.00  0.00    +0.000 S 
BRANCH  14  17
ATOM     17  C   UNL     1       7.471   7.211  17.572  0.00  0.00    +0.000 C 
ATOM     18  F   UNL     1       8.188   6.974  18.699  0.00  0.00    +0.000 F 
ATOM     19  F   UNL     1       8.355   7.611  16.618  0.00  0.00    +0.000 F 
ATOM     20  F   UNL     1       6.678   8.288  17.830  0.00  0.00    +0.000 F 
ENDBRANCH  14  17
ENDBRANCH  11  12
ENDBRANCH   8  11
TORSDOF 3
ENDMDL
MODEL 8
REMARK VINA RESULT:      -6.6      3.094      3.909
REMARK  Name = 
REMARK  5 active torsions:
REMARK  status: ('A' for Active; 'I' for Inactive)
REMARK    1  A    between atoms: C_1  and  C_2
REMARK    2  A    between atoms: N_4  and  C_5
REMARK    3  A    between atoms: N_8  and  C_9
REMARK    4  A    between atoms: C_9  and  C_10
REMARK    5  A    between atoms: C_12  and  C_13
REMARK                            x       y       z     vdW  Elec       q    Type
REMARK                         _______ _______ _______ _____ _____    ______ ____
ROOT
ATOM      1  C   UNL     1       0.531   2.531  18.685  0.00  0.00    +0.000 C 
ATOM      2  C   UNL     1       1.935   2.955  18.972  0.00  0.00    +0.000 A 
ATOM      3  C   UNL     1       2.822   2.197  19.620  0.00  0.00    +0.000 A 
ATOM      4  N   UNL     1       4.110   2.614  19.846  0.00  0.00    +0.000 N 
ATOM      5  C   UNL     1       5.059   1.714  20.480  0.00  0.00    +0.000 C 
ATOM      6  C   UNL     1       4.569   3.872  19.469  0.00  0.00    +0.000 A 
ATOM      7  O   UNL     1       5.738   4.212  19.654  0.00  0.00    +0.000 OA
ATOM      8  N   UNL     1       3.640   4.698  18.848  0.00  0.00    +0.000 N 
ATOM      9  C   UNL     1       2.377   4.280  18.463  0.00  0.00    +0.000 A 
ATOM     10  O   UNL     1       1.642   4.909  17.708  0.00  0.00    +0.000 OA
ENDROOT
BRANCH   8  11
ATOM     11  C   UNL     1       4.113   5.986  18.358  0.00  0.00    +0.000 C 
BRANCH  11  12
ATOM     12  C   UNL     1       5.081   5.856  17.207  0.00  0.00    +0.000 A 
ATOM     13  N   UNL     1       4.842   5.175  16.102  0.00  0.00    +0.000 NA
ATOM     14  C   UNL     1       6.006   5.042  15.332  0.00  0.00    +0.000 A 
ATOM     15  C   UNL     1       7.104   5.694  15.867  0.00  0.00    +0.000 A 
ATOM     16  S   UNL     1       6.691   6.458  17.341  0.00  0.00    +0.000 S 
BRANCH  14  17
ATOM     17  C   UNL     1       6.025   4.218  14.076  0.00  0.00    +0.000 C 
ATOM     18  F   UNL     1       4.833   4.185  13.428  0.00  0.00    +0.000 F 
ATOM     19  F   UNL     1       6.946   4.678  13.186  0.00  0.00    +0.000 F 
ATOM     20  F   UNL     1       6.364   2.926  14.340  0.00  0.00    +0.000 F 
ENDBRANCH  14  17
ENDBRANCH  11  12
ENDBRANCH   8  11
TORSDOF 3
ENDMDL
MODEL 9
REMARK VINA RESULT:      -6.6      3.297      3.888
REMARK  Name = 
REMARK  5 active torsions:
REMARK  status: ('A' for Active; 'I' for Inactive)
REMARK    1  A    between atoms: C_1  and  C_2
REMARK    2  A    between atoms: N_4  and  C_5
REMARK    3  A    between atoms: N_8  and  C_9
REMARK    4  A    between atoms: C_9  and  C_10
REMARK    5  A    between atoms: C_12  and  C_13
REMARK                            x       y       z     vdW  Elec       q    Type
REMARK                         _______ _______ _______ _____ _____    ______ ____
ROOT
ATOM      1  C   UNL     1       2.844   3.519  20.330  0.00  0.00    +0.000 C 
ATOM      2  C   UNL     1       3.361   4.607  19.445  0.00  0.00    +0.000 A 
ATOM      3  C   UNL     1       2.660   5.695  19.118  0.00  0.00    +0.000 A 
ATOM      4  N   UNL     1       3.177   6.682  18.319  0.00  0.00    +0.000 N 
ATOM      5  C   UNL     1       2.401   7.886  18.066  0.00  0.00    +0.000 C 
ATOM      6  C   UNL     1       4.443   6.600  17.747  0.00  0.00    +0.000 A 
ATOM      7  O   UNL     1       4.898   7.514  17.058  0.00  0.00    +0.000 OA
ATOM      8  N   UNL     1       5.163   5.445  18.027  0.00  0.00    +0.000 N 
ATOM      9  C   UNL     1       4.754   4.488  18.940  0.00  0.00    +0.000 A 
ATOM     10  O   UNL     1       5.477   3.597  19.377  0.00  0.00    +0.000 OA
ENDROOT
BRANCH   8  11
ATOM     11  C   UNL     1       6.526   5.368  17.520  0.00  0.00    +0.000 C 
BRANCH  11  12
ATOM     12  C   UNL     1       6.594   4.879  16.092  0.00  0.00    +0.000 A 
ATOM     13  N   UNL     1       7.477   5.292  15.202  0.00  0.00    +0.000 NA
ATOM     14  C   UNL     1       7.143   4.841  13.918  0.00  0.00    +0.000 A 
ATOM     15  C   UNL     1       6.019   4.033  13.887  0.00  0.00    +0.000 A 
ATOM     16  S   UNL     1       5.366   3.849  15.457  0.00  0.00    +0.000 S 
BRANCH  14  17
ATOM     17  C   UNL     1       7.930   5.262  12.709  0.00  0.00    +0.000 C 
ATOM     18  F   UNL     1       7.460   6.389  12.119  0.00  0.00    +0.000 F 
ATOM     19  F   UNL     1       9.237   5.491  13.014  0.00  0.00    +0.000 F 
ATOM     20  F   UNL     1       7.928   4.289  11.757  0.00  0.00    +0.000 F 
ENDBRANCH  14  17
ENDBRANCH  11  12
ENDBRANCH   8  11
TORSDOF 3
ENDMDL
