MODEL 1
REMARK VINA RESULT:      -7.7      0.000      0.000
REMARK  Name = 
REMARK  3 active torsions:
REMARK  status: ('A' for Active; 'I' for Inactive)
REMARK    1  A    between atoms: C_1  and  C_2
REMARK    2  A    between atoms: C_6  and  C_7
REMARK    3  A    between atoms: C_15  and  C_16
REMARK                            x       y       z     vdW  Elec       q    Type
REMARK                         _______ _______ _______ _____ _____    ______ ____
ROOT
ATOM      1  C   UNL     1       1.906   7.823  19.454  0.00  0.00    +0.000 C 
ATOM      2  O   UNL     1       2.512   8.402  18.551  0.00  0.00    +0.000 OA
ATOM      3  N   UNL     1       1.941   6.429  19.595  0.00  0.00    +0.000 N 
ATOM      4  C   UNL     1       1.194   5.630  20.596  0.00  0.00    +0.000 C 
ATOM      5  C   UNL     1       2.049   4.577  21.323  0.00  0.00    +0.000 C 
ATOM      6  C   UNL     1       2.938   3.936  20.343  0.00  0.00    +0.000 A 
ATOM      7  N   UNL     1       3.653   2.803  20.516  0.00  0.00    +0.000 N 
ATOM      8  N   UNL     1       4.365   2.471  19.432  0.00  0.00    +0.000 NA
ATOM      9  C   UNL     1       4.144   3.476  18.547  0.00  0.00    +0.000 A 
ATOM     10  C   UNL     1       3.223   4.416  19.088  0.00  0.00    +0.000 A 
ATOM     11  C   UNL     1       2.642   5.670  18.522  0.00  0.00    +0.000 C 
ATOM     12  H   UNL     1       3.709   2.204  21.334  0.00  0.00    +0.000 HD
ENDROOT
BRANCH   9  13
ATOM     13  C   UNL     1       4.752   3.505  17.202  0.00  0.00    +0.000 C 
ATOM     14  O   UNL     1       4.290   2.804  16.301  0.00  0.00    +0.000 OA
ATOM     15  N   UNL     1       5.844   4.353  16.977  0.00  0.00    +0.000 N 
ATOM     16  C   UNL     1       6.368   5.346  17.927  0.00  0.00    +0.000 C 
ATOM     17  C   UNL     1       6.824   6.623  17.210  0.00  0.00    +0.000 C 
ATOM     18  O   UNL     1       7.703   6.341  16.112  0.00  0.00    +0.000 OA
ATOM     19  C   UNL     1       7.053   5.482  15.160  0.00  0.00    +0.000 C 
ATOM     20  C   UNL     1       6.685   4.147  15.804  0.00  0.00    +0.000 C 
ENDBRANCH   9  13
BRANCH   1  26
ATOM     21  C   UNL     1      -1.261  11.602  20.228  0.00  0.00    +0.000 C 
ATOM     22  C   UNL     1      -0.335  10.565  20.790  0.00  0.00    +0.000 A 
ATOM     23  C   UNL     1      -0.123  10.461  22.168  0.00  0.00    +0.000 A 
ATOM     24  C   UNL     1       0.678   9.441  22.683  0.00  0.00    +0.000 A 
ATOM     25  C   UNL     1       1.290   8.529  21.821  0.00  0.00    +0.000 A 
ATOM     26  C   UNL     1       1.193   8.690  20.437  0.00  0.00    +0.000 A 
ATOM     27  C   UNL     1       0.338   9.683  19.930  0.00  0.00    +0.000 A 
ENDBRANCH   1  26
TORSDOF 2
ENDMDL
MODEL 2
REMARK VINA RESULT:      -7.4      1.818      2.648
REMARK  Name = 
REMARK  3 active torsions:
REMARK  status: ('A' for Active; 'I' for Inactive)
REMARK    1  A    between atoms: C_1  and  C_2
REMARK    2  A    between atoms: C_6  and  C_7
REMARK    3  A    between atoms: C_15  and  C_16
REMARK                            x       y       z     vdW  Elec       q    Type
REMARK                         _______ _______ _______ _____ _____    ______ ____
ROOT
ATOM      1  C   UNL     1       1.816  10.113  18.198  0.00  0.00    +0.000 C 
ATOM      2  O   UNL     1       2.517  10.205  17.189  0.00  0.00    +0.000 OA
ATOM      3  N   UNL     1       1.563   8.881  18.815  0.00  0.00    +0.000 N 
ATOM      4  C   UNL     1       0.679   8.651  19.983  0.00  0.00    +0.000 C 
ATOM      5  C   UNL     1       1.306   7.774  21.081  0.00  0.00    +0.000 C 
ATOM      6  C   UNL     1       2.029   6.666  20.441  0.00  0.00    +0.000 A 
ATOM      7  N   UNL     1       2.496   5.548  21.039  0.00  0.00    +0.000 N 
ATOM      8  N   UNL     1       3.109   4.722  20.183  0.00  0.00    +0.000 NA
ATOM      9  C   UNL     1       3.090   5.374  18.993  0.00  0.00    +0.000 A 
ATOM     10  C   UNL     1       2.391   6.606  19.117  0.00  0.00    +0.000 A 
ATOM     11  C   UNL     1       2.077   7.670  18.116  0.00  0.00    +0.000 C 
ATOM     12  H   UNL     1       2.437   5.277  22.016  0.00  0.00    +0.000 HD
ENDROOT
BRANCH   9  13
ATOM     13  C   UNL     1       3.674   4.805  17.761  0.00  0.00    +0.000 C 
ATOM     14  O   UNL     1       2.993   4.082  17.034  0.00  0.00    +0.000 OA
ATOM     15  N   UNL     1       4.999   5.122  17.438  0.00  0.00    +0.000 N 
ATOM     16  C   UNL     1       5.843   6.100  18.143  0.00  0.00    +0.000 C 
ATOM     17  C   UNL     1       6.733   6.879  17.167  0.00  0.00    +0.000 C 
ATOM     18  O   UNL     1       7.455   6.011  16.284  0.00  0.00    +0.000 OA
ATOM     19  C   UNL     1       6.544   5.196  15.529  0.00  0.00    +0.000 C 
ATOM     20  C   UNL     1       5.714   4.313  16.459  0.00  0.00    +0.000 C 
ENDBRANCH   9  13
BRANCH   1  26
ATOM     21  C   UNL     1      -2.079  12.734  19.893  0.00  0.00    +0.000 C 
ATOM     22  C   UNL     1      -0.616  12.670  19.567  0.00  0.00    +0.000 A 
ATOM     23  C   UNL     1       0.211  13.781  19.753  0.00  0.00    +0.000 A 
ATOM     24  C   UNL     1       1.584  13.683  19.522  0.00  0.00    +0.000 A 
ATOM     25  C   UNL     1       2.137  12.478  19.084  0.00  0.00    +0.000 A 
ATOM     26  C   UNL     1       1.311  11.394  18.773  0.00  0.00    +0.000 A 
ATOM     27  C   UNL     1      -0.060  11.483  19.064  0.00  0.00    +0.000 A 
ENDBRANCH   1  26
TORSDOF 2
ENDMDL
MODEL 3
REMARK VINA RESULT:      -7.3      2.129      2.842
REMARK  Name = 
REMARK  3 active torsions:
REMARK  status: ('A' for Active; 'I' for Inactive)
REMARK    1  A    between atoms: C_1  and  C_2
REMARK    2  A    between atoms: C_6  and  C_7
REMARK    3  A    between atoms: C_15  and  C_16
REMARK                            x       y       z     vdW  Elec       q    Type
REMARK                         _______ _______ _______ _____ _____    ______ ____
ROOT
ATOM      1  C   UNL     1       1.873  10.079  18.195  0.00  0.00    +0.000 C 
ATOM      2  O   UNL     1       2.564  10.157  17.178  0.00  0.00    +0.000 OA
ATOM      3  N   UNL     1       1.608   8.853  18.820  0.00  0.00    +0.000 N 
ATOM      4  C   UNL     1       0.734   8.640  19.998  0.00  0.00    +0.000 C 
ATOM      5  C   UNL     1       1.359   7.757  21.093  0.00  0.00    +0.000 C 
ATOM      6  C   UNL     1       2.060   6.637  20.449  0.00  0.00    +0.000 A 
ATOM      7  N   UNL     1       2.516   5.514  21.047  0.00  0.00    +0.000 N 
ATOM      8  N   UNL     1       3.109   4.676  20.187  0.00  0.00    +0.000 NA
ATOM      9  C   UNL     1       3.087   5.324  18.995  0.00  0.00    +0.000 A 
ATOM     10  C   UNL     1       2.407   6.567  19.122  0.00  0.00    +0.000 A 
ATOM     11  C   UNL     1       2.097   7.632  18.120  0.00  0.00    +0.000 C 
ATOM     12  H   UNL     1       2.464   5.248  22.025  0.00  0.00    +0.000 HD
ENDROOT
BRANCH   9  13
ATOM     13  C   UNL     1       3.649   4.743  17.759  0.00  0.00    +0.000 C 
ATOM     14  O   UNL     1       2.955   4.012  17.052  0.00  0.00    +0.000 OA
ATOM     15  N   UNL     1       4.969   5.055  17.411  0.00  0.00    +0.000 N 
ATOM     16  C   UNL     1       5.825   6.040  18.091  0.00  0.00    +0.000 C 
ATOM     17  C   UNL     1       6.698   6.809  17.092  0.00  0.00    +0.000 C 
ATOM     18  O   UNL     1       7.405   5.931  16.206  0.00  0.00    +0.000 OA
ATOM     19  C   UNL     1       6.480   5.109  15.474  0.00  0.00    +0.000 C 
ATOM     20  C   UNL     1       5.666   4.236  16.428  0.00  0.00    +0.000 C 
ENDBRANCH   9  13
BRANCH   1  26
ATOM     21  C   UNL     1       2.793  14.902  19.091  0.00  0.00    +0.000 C 
ATOM     22  C   UNL     1       1.879  13.720  19.227  0.00  0.00    +0.000 A 
ATOM     23  C   UNL     1       0.662  13.827  19.906  0.00  0.00    +0.000 A 
ATOM     24  C   UNL     1      -0.214  12.742  19.956  0.00  0.00    +0.000 A 
ATOM     25  C   UNL     1       0.130  11.535  19.345  0.00  0.00    +0.000 A 
ATOM     26  C   UNL     1       1.393  11.369  18.770  0.00  0.00    +0.000 A 
ATOM     27  C   UNL     1       2.243  12.483  18.673  0.00  0.00    +0.000 A 
ENDBRANCH   1  26
TORSDOF 2
ENDMDL
MODEL 4
REMARK VINA RESULT:      -7.3      3.902      9.536
REMARK  Name = 
REMARK  3 active torsions:
REMARK  status: ('A' for Active; 'I' for Inactive)
REMARK    1  A    between atoms: C_1  and  C_2
REMARK    2  A    between atoms: C_6  and  C_7
REMARK    3  A    between atoms: C_15  and  C_16
REMARK                            x       y       z     vdW  Elec       q    Type
REMARK                         _______ _______ _______ _____ _____    ______ ____
ROOT
ATOM      1  C   UNL     1       1.895   7.568  19.555  0.00  0.00    +0.000 C 
ATOM      2  O   UNL     1       1.672   7.040  20.646  0.00  0.00    +0.000 OA
ATOM      3  N   UNL     1       1.409   8.843  19.235  0.00  0.00    +0.000 N 
ATOM      4  C   UNL     1       1.556   9.536  17.933  0.00  0.00    +0.000 C 
ATOM      5  C   UNL     1       2.022  10.998  18.048  0.00  0.00    +0.000 C 
ATOM      6  C   UNL     1       1.316  11.628  19.173  0.00  0.00    +0.000 A 
ATOM      7  N   UNL     1       1.246  12.949  19.450  0.00  0.00    +0.000 N 
ATOM      8  N   UNL     1       0.521  13.209  20.545  0.00  0.00    +0.000 NA
ATOM      9  C   UNL     1       0.165  11.991  21.026  0.00  0.00    +0.000 A 
ATOM     10  C   UNL     1       0.637  10.963  20.165  0.00  0.00    +0.000 A 
ATOM     11  C   UNL     1       0.500   9.476  20.231  0.00  0.00    +0.000 C 
ATOM     12  H   UNL     1       1.660  13.727  18.947  0.00  0.00    +0.000 HD
ENDROOT
BRANCH   9  13
ATOM     13  C   UNL     1      -0.654  11.822  22.244  0.00  0.00    +0.000 C 
ATOM     14  O   UNL     1      -0.240  11.126  23.172  0.00  0.00    +0.000 OA
ATOM     15  N   UNL     1      -1.888  12.479  22.320  0.00  0.00    +0.000 N 
ATOM     16  C   UNL     1      -2.399  13.458  21.347  0.00  0.00    +0.000 C 
ATOM     17  C   UNL     1      -3.163  14.592  22.042  0.00  0.00    +0.000 C 
ATOM     18  O   UNL     1      -4.154  14.097  22.952  0.00  0.00    +0.000 OA
ATOM     19  C   UNL     1      -3.543  13.269  23.955  0.00  0.00    +0.000 C 
ATOM     20  C   UNL     1      -2.867  12.058  23.315  0.00  0.00    +0.000 C 
ENDBRANCH   9  13
BRANCH   1  26
ATOM     21  C   UNL     1       2.896   3.240  17.280  0.00  0.00    +0.000 C 
ATOM     22  C   UNL     1       3.264   4.670  17.542  0.00  0.00    +0.000 A 
ATOM     23  C   UNL     1       4.407   5.236  16.967  0.00  0.00    +0.000 A 
ATOM     24  C   UNL     1       4.693   6.588  17.154  0.00  0.00    +0.000 A 
ATOM     25  C   UNL     1       3.850   7.382  17.935  0.00  0.00    +0.000 A 
ATOM     26  C   UNL     1       2.774   6.809  18.619  0.00  0.00    +0.000 A 
ATOM     27  C   UNL     1       2.460   5.461  18.378  0.00  0.00    +0.000 A 
ENDBRANCH   1  26
TORSDOF 2
ENDMDL
MODEL 5
REMARK VINA RESULT:      -7.3      2.974      5.322
REMARK  Name = 
REMARK  3 active torsions:
REMARK  status: ('A' for Active; 'I' for Inactive)
REMARK    1  A    between atoms: C_1  and  C_2
REMARK    2  A    between atoms: C_6  and  C_7
REMARK    3  A    between atoms: C_15  and  C_16
REMARK                            x       y       z     vdW  Elec       q    Type
REMARK                         _______ _______ _______ _____ _____    ______ ____
ROOT
ATOM      1  C   UNL     1      -0.496  10.743  22.576  0.00  0.00    +0.000 C 
ATOM      2  O   UNL     1      -0.666   9.743  23.276  0.00  0.00    +0.000 OA
ATOM      3  N   UNL     1       0.343  10.728  21.454  0.00  0.00    +0.000 N 
ATOM      4  C   UNL     1       0.674  11.888  20.592  0.00  0.00    +0.000 C 
ATOM      5  C   UNL     1       0.559  11.603  19.084  0.00  0.00    +0.000 C 
ATOM      6  C   UNL     1       1.115  10.268  18.816  0.00  0.00    +0.000 A 
ATOM      7  N   UNL     1       1.433   9.750  17.609  0.00  0.00    +0.000 N 
ATOM      8  N   UNL     1       1.925   8.507  17.695  0.00  0.00    +0.000 NA
ATOM      9  C   UNL     1       1.856   8.194  19.014  0.00  0.00    +0.000 A 
ATOM     10  C   UNL     1       1.364   9.301  19.759  0.00  0.00    +0.000 A 
ATOM     11  C   UNL     1       1.121   9.479  21.222  0.00  0.00    +0.000 C 
ATOM     12  H   UNL     1       1.347  10.174  16.691  0.00  0.00    +0.000 HD
ENDROOT
BRANCH   9  13
ATOM     13  C   UNL     1       2.304   6.893  19.550  0.00  0.00    +0.000 C 
ATOM     14  O   UNL     1       1.700   6.373  20.489  0.00  0.00    +0.000 OA
ATOM     15  N   UNL     1       3.408   6.267  18.958  0.00  0.00    +0.000 N 
ATOM     16  C   UNL     1       4.095   6.716  17.737  0.00  0.00    +0.000 C 
ATOM     17  C   UNL     1       4.535   5.528  16.872  0.00  0.00    +0.000 C 
ATOM     18  O   UNL     1       5.262   4.550  17.628  0.00  0.00    +0.000 OA
ATOM     19  C   UNL     1       4.458   4.059  18.713  0.00  0.00    +0.000 C 
ATOM     20  C   UNL     1       4.092   5.194  19.668  0.00  0.00    +0.000 C 
ENDBRANCH   9  13
BRANCH   1  26
ATOM     21  C   UNL     1      -4.785  12.607  24.321  0.00  0.00    +0.000 C 
ATOM     22  C   UNL     1      -3.410  12.843  23.770  0.00  0.00    +0.000 A 
ATOM     23  C   UNL     1      -2.928  14.140  23.570  0.00  0.00    +0.000 A 
ATOM     24  C   UNL     1      -1.620  14.345  23.133  0.00  0.00    +0.000 A 
ATOM     25  C   UNL     1      -0.788  13.254  22.871  0.00  0.00    +0.000 A 
ATOM     26  C   UNL     1      -1.289  11.952  22.944  0.00  0.00    +0.000 A 
ATOM     27  C   UNL     1      -2.588  11.753  23.442  0.00  0.00    +0.000 A 
ENDBRANCH   1  26
TORSDOF 2
ENDMDL
MODEL 6
REMARK VINA RESULT:      -7.1      1.784      2.686
REMARK  Name = 
REMARK  3 active torsions:
REMARK  status: ('A' for Active; 'I' for Inactive)
REMARK    1  A    between atoms: C_1  and  C_2
REMARK    2  A    between atoms: C_6  and  C_7
REMARK    3  A    between atoms: C_15  and  C_16
REMARK                            x       y       z     vdW  Elec       q    Type
REMARK                         _______ _______ _______ _____ _____    ______ ____
ROOT
ATOM      1  C   UNL     1       2.408   8.668  18.126  0.00  0.00    +0.000 C 
ATOM      2  O   UNL     1       2.967   9.502  17.412  0.00  0.00    +0.000 OA
ATOM      3  N   UNL     1       2.867   7.348  18.223  0.00  0.00    +0.000 N 
ATOM      4  C   UNL     1       2.229   6.252  18.991  0.00  0.00    +0.000 C 
ATOM      5  C   UNL     1       3.206   5.444  19.863  0.00  0.00    +0.000 C 
ATOM      6  C   UNL     1       4.443   5.223  19.101  0.00  0.00    +0.000 A 
ATOM      7  N   UNL     1       5.436   4.357  19.400  0.00  0.00    +0.000 N 
ATOM      8  N   UNL     1       6.431   4.384  18.504  0.00  0.00    +0.000 NA
ATOM      9  C   UNL     1       6.086   5.361  17.627  0.00  0.00    +0.000 A 
ATOM     10  C   UNL     1       4.815   5.901  17.966  0.00  0.00    +0.000 A 
ATOM     11  C   UNL     1       3.990   6.967  17.322  0.00  0.00    +0.000 C 
ATOM     12  H   UNL     1       5.510   3.719  20.186  0.00  0.00    +0.000 HD
ENDROOT
BRANCH   9  13
ATOM     13  C   UNL     1       6.924   5.724  16.466  0.00  0.00    +0.000 C 
ATOM     14  O   UNL     1       7.897   6.464  16.616  0.00  0.00    +0.000 OA
ATOM     15  N   UNL     1       6.595   5.197  15.211  0.00  0.00    +0.000 N 
ATOM     16  C   UNL     1       5.562   4.182  14.951  0.00  0.00    +0.000 C 
ATOM     17  C   UNL     1       6.005   3.198  13.861  0.00  0.00    +0.000 C 
ATOM     18  O   UNL     1       6.475   3.871  12.685  0.00  0.00    +0.000 OA
ATOM     19  C   UNL     1       7.580   4.729  13.009  0.00  0.00    +0.000 C 
ATOM     20  C   UNL     1       7.153   5.803  14.008  0.00  0.00    +0.000 C 
ENDBRANCH   9  13
BRANCH   1  26
ATOM     21  C   UNL     1      -2.033  10.945  18.217  0.00  0.00    +0.000 C 
ATOM     22  C   UNL     1      -0.901  10.304  18.964  0.00  0.00    +0.000 A 
ATOM     23  C   UNL     1      -0.916  10.222  20.360  0.00  0.00    +0.000 A 
ATOM     24  C   UNL     1       0.105   9.554  21.036  0.00  0.00    +0.000 A 
ATOM     25  C   UNL     1       1.159   8.979  20.323  0.00  0.00    +0.000 A 
ATOM     26  C   UNL     1       1.257   9.158  18.941  0.00  0.00    +0.000 A 
ATOM     27  C   UNL     1       0.196   9.781  18.262  0.00  0.00    +0.000 A 
ENDBRANCH   1  26
TORSDOF 2
ENDMDL
MODEL 7
REMARK VINA RESULT:      -7.1      1.736      2.876
REMARK  Name = 
REMARK  3 active torsions:
REMARK  status: ('A' for Active; 'I' for Inactive)
REMARK    1  A    between atoms: C_1  and  C_2
REMARK    2  A    between atoms: C_6  and  C_7
REMARK    3  A    between atoms: C_15  and  C_16
REMARK                            x       y       z     vdW  Elec       q    Type
REMARK                         _______ _______ _______ _____ _____    ______ ____
ROOT
ATOM      1  C   UNL     1       2.384   8.733  18.120  0.00  0.00    +0.000 C 
ATOM      2  O   UNL     1       2.957   9.559  17.407  0.00  0.00    +0.000 OA
ATOM      3  N   UNL     1       2.829   7.409  18.226  0.00  0.00    +0.000 N 
ATOM      4  C   UNL     1       2.174   6.323  18.993  0.00  0.00    +0.000 C 
ATOM      5  C   UNL     1       3.136   5.509  19.876  0.00  0.00    +0.000 C 
ATOM      6  C   UNL     1       4.377   5.272  19.124  0.00  0.00    +0.000 A 
ATOM      7  N   UNL     1       5.359   4.398  19.435  0.00  0.00    +0.000 N 
ATOM      8  N   UNL     1       6.361   4.411  18.547  0.00  0.00    +0.000 NA
ATOM      9  C   UNL     1       6.033   5.388  17.663  0.00  0.00    +0.000 A 
ATOM     10  C   UNL     1       4.765   5.942  17.990  0.00  0.00    +0.000 A 
ATOM     11  C   UNL     1       3.955   7.013  17.335  0.00  0.00    +0.000 C 
ATOM     12  H   UNL     1       5.420   3.763  20.225  0.00  0.00    +0.000 HD
ENDROOT
BRANCH   9  13
ATOM     13  C   UNL     1       6.883   5.737  16.507  0.00  0.00    +0.000 C 
ATOM     14  O   UNL     1       7.859   6.472  16.661  0.00  0.00    +0.000 OA
ATOM     15  N   UNL     1       6.563   5.203  15.253  0.00  0.00    +0.000 N 
ATOM     16  C   UNL     1       5.526   4.193  14.991  0.00  0.00    +0.000 C 
ATOM     17  C   UNL     1       5.972   3.199  13.912  0.00  0.00    +0.000 C 
ATOM     18  O   UNL     1       6.457   3.860  12.736  0.00  0.00    +0.000 OA
ATOM     19  C   UNL     1       7.565   4.714  13.064  0.00  0.00    +0.000 C 
ATOM     20  C   UNL     1       7.135   5.798  14.051  0.00  0.00    +0.000 C 
ENDBRANCH   9  13
BRANCH   1  26
ATOM     21  C   UNL     1       0.308   9.310  22.622  0.00  0.00    +0.000 C 
ATOM     22  C   UNL     1       0.220   9.480  21.134  0.00  0.00    +0.000 A 
ATOM     23  C   UNL     1      -0.914  10.040  20.541  0.00  0.00    +0.000 A 
ATOM     24  C   UNL     1      -0.950  10.265  19.164  0.00  0.00    +0.000 A 
ATOM     25  C   UNL     1       0.142   9.912  18.368  0.00  0.00    +0.000 A 
ATOM     26  C   UNL     1       1.232   9.238  18.923  0.00  0.00    +0.000 A 
ATOM     27  C   UNL     1       1.284   9.069  20.317  0.00  0.00    +0.000 A 
ENDBRANCH   1  26
TORSDOF 2
ENDMDL
MODEL 8
REMARK VINA RESULT:      -7.1      3.612      8.327
REMARK  Name = 
REMARK  3 active torsions:
REMARK  status: ('A' for Active; 'I' for Inactive)
REMARK    1  A    between atoms: C_1  and  C_2
REMARK    2  A    between atoms: C_6  and  C_7
REMARK    3  A    between atoms: C_15  and  C_16
REMARK                            x       y       z     vdW  Elec       q    Type
REMARK                         _______ _______ _______ _____ _____    ______ ____
ROOT
ATOM      1  C   UNL     1       2.305   7.926  18.151  0.00  0.00    +0.000 C 
ATOM      2  O   UNL     1       2.435   8.503  17.070  0.00  0.00    +0.000 OA
ATOM      3  N   UNL     1       1.836   8.588  19.293  0.00  0.00    +0.000 N 
ATOM      4  C   UNL     1       1.712   8.010  20.653  0.00  0.00    +0.000 C 
ATOM      5  C   UNL     1       0.362   8.292  21.335  0.00  0.00    +0.000 C 
ATOM      6  C   UNL     1      -0.021   9.684  21.059  0.00  0.00    +0.000 A 
ATOM      7  N   UNL     1      -0.992  10.396  21.674  0.00  0.00    +0.000 N 
ATOM      8  N   UNL     1      -1.095  11.644  21.201  0.00  0.00    +0.000 NA
ATOM      9  C   UNL     1      -0.190  11.711  20.191  0.00  0.00    +0.000 A 
ATOM     10  C   UNL     1       0.526  10.487  20.088  0.00  0.00    +0.000 A 
ATOM     11  C   UNL     1       1.623  10.057  19.169  0.00  0.00    +0.000 C 
ATOM     12  H   UNL     1      -1.620  10.106  22.417  0.00  0.00    +0.000 HD
ENDROOT
BRANCH   9  13
ATOM     13  C   UNL     1       0.022  12.933  19.388  0.00  0.00    +0.000 C 
ATOM     14  O   UNL     1      -0.740  13.197  18.457  0.00  0.00    +0.000 OA
ATOM     15  N   UNL     1       1.086  13.779  19.722  0.00  0.00    +0.000 N 
ATOM     16  C   UNL     1       1.949  13.645  20.907  0.00  0.00    +0.000 C 
ATOM     17  C   UNL     1       2.312  15.015  21.494  0.00  0.00    +0.000 C 
ATOM     18  O   UNL     1       2.819  15.912  20.497  0.00  0.00    +0.000 OA
ATOM     19  C   UNL     1       1.851  16.099  19.452  0.00  0.00    +0.000 C 
ATOM     20  C   UNL     1       1.545  14.772  18.759  0.00  0.00    +0.000 C 
ENDBRANCH   9  13
BRANCH   1  26
ATOM     21  C   UNL     1       5.707   4.317  18.712  0.00  0.00    +0.000 C 
ATOM     22  C   UNL     1       4.293   4.716  18.408  0.00  0.00    +0.000 A 
ATOM     23  C   UNL     1       3.325   3.754  18.103  0.00  0.00    +0.000 A 
ATOM     24  C   UNL     1       1.998   4.132  17.901  0.00  0.00    +0.000 A 
ATOM     25  C   UNL     1       1.631   5.477  17.982  0.00  0.00    +0.000 A 
ATOM     26  C   UNL     1       2.604   6.464  18.162  0.00  0.00    +0.000 A 
ATOM     27  C   UNL     1       3.927   6.070  18.423  0.00  0.00    +0.000 A 
ENDBRANCH   1  26
TORSDOF 2
ENDMDL
MODEL 9
REMARK VINA RESULT:      -7.0      4.944     10.575
REMARK  Name = 
REMARK  3 active torsions:
REMARK  status: ('A' for Active; 'I' for Inactive)
REMARK    1  A    between atoms: C_1  and  C_2
REMARK    2  A    between atoms: C_6  and  C_7
REMARK    3  A    between atoms: C_15  and  C_16
REMARK                            x       y       z     vdW  Elec       q    Type
REMARK                         _______ _______ _______ _____ _____    ______ ____
ROOT
ATOM      1  C   UNL     1       1.063   9.344  21.181  0.00  0.00    +0.000 C 
ATOM      2  O   UNL     1       1.566   9.493  22.296  0.00  0.00    +0.000 OA
ATOM      3  N   UNL     1       0.140  10.258  20.655  0.00  0.00    +0.000 N 
ATOM      4  C   UNL     1      -0.576  10.135  19.363  0.00  0.00    +0.000 C 
ATOM      5  C   UNL     1      -0.555  11.416  18.509  0.00  0.00    +0.000 C 
ATOM      6  C   UNL     1      -0.765  12.572  19.392  0.00  0.00    +0.000 A 
ATOM      7  N   UNL     1      -1.065  13.835  19.017  0.00  0.00    +0.000 N 
ATOM      8  N   UNL     1      -1.200  14.664  20.060  0.00  0.00    +0.000 NA
ATOM      9  C   UNL     1      -0.908  13.909  21.148  0.00  0.00    +0.000 A 
ATOM     10  C   UNL     1      -0.647  12.565  20.760  0.00  0.00    +0.000 A 
ATOM     11  C   UNL     1      -0.301  11.353  21.563  0.00  0.00    +0.000 C 
ATOM     12  H   UNL     1      -1.194  14.208  18.082  0.00  0.00    +0.000 HD
ENDROOT
BRANCH   9  13
ATOM     13  C   UNL     1      -0.935  14.445  22.524  0.00  0.00    +0.000 C 
ATOM     14  O   UNL     1       0.115  14.770  23.080  0.00  0.00    +0.000 OA
ATOM     15  N   UNL     1      -2.173  14.589  23.164  0.00  0.00    +0.000 N 
ATOM     16  C   UNL     1      -3.489  14.388  22.538  0.00  0.00    +0.000 C 
ATOM     17  C   UNL     1      -4.514  15.409  23.049  0.00  0.00    +0.000 C 
ATOM     18  O   UNL     1      -4.548  15.469  24.482  0.00  0.00    +0.000 OA
ATOM     19  C   UNL     1      -3.253  15.815  24.998  0.00  0.00    +0.000 C 
ATOM     20  C   UNL     1      -2.218  14.760  24.610  0.00  0.00    +0.000 C 
ENDBRANCH   9  13
BRANCH   1  26
ATOM     21  C   UNL     1       1.722   4.403  20.920  0.00  0.00    +0.000 C 
ATOM     22  C   UNL     1       1.887   5.757  20.297  0.00  0.00    +0.000 A 
ATOM     23  C   UNL     1       2.510   5.905  19.053  0.00  0.00    +0.000 A 
ATOM     24  C   UNL     1       2.586   7.160  18.449  0.00  0.00    +0.000 A 
ATOM     25  C   UNL     1       2.058   8.281  19.093  0.00  0.00    +0.000 A 
ATOM     26  C   UNL     1       1.545   8.175  20.388  0.00  0.00    +0.000 A 
ATOM     27  C   UNL     1       1.419   6.900  20.964  0.00  0.00    +0.000 A 
ENDBRANCH   1  26
TORSDOF 2
ENDMDL
