MODEL 1
REMARK VINA RESULT:      -8.1      0.000      0.000
REMARK  Name = 
REMARK  2 active torsions:
REMARK  status: ('A' for Active; 'I' for Inactive)
REMARK    1  A    between atoms: C_2  and  C_3
REMARK    2  A    between atoms: C_6  and  C_7
REMARK                            x       y       z     vdW  Elec       q    Type
REMARK                         _______ _______ _______ _____ _____    ______ ____
ROOT
ATOM      1  C   UNL     1       2.458   6.420  18.729  0.00  0.00    +0.000 C 
ATOM      2  C   UNL     1       3.312   6.068  19.932  0.00  0.00    +0.000 C 
ATOM      3  N   UNL     1       3.787   4.706  19.665  0.00  0.00    +0.000 NA
ATOM      4  C   UNL     1       3.991   4.627  18.193  0.00  0.00    +0.000 C 
ATOM      5  C   UNL     1       3.310   5.855  17.593  0.00  0.00    +0.000 C 
ATOM      6  H   UNL     1       3.055   4.044  19.920  0.00  0.00    +0.000 HD
ENDROOT
BRANCH   1   8
ATOM      7  O   UNL     1       2.460   8.504  17.518  0.00  0.00    +0.000 OA
ATOM      8  C   UNL     1       2.179   7.911  18.560  0.00  0.00    +0.000 C 
ATOM      9  N   UNL     1       1.524   8.563  19.577  0.00  0.00    +0.000 N 
ATOM     10  C   UNL     1       1.007   7.997  20.824  0.00  0.00    +0.000 C 
ATOM     11  C   UNL     1       0.312   9.142  21.475  0.00  0.00    +0.000 A 
ATOM     12  C   UNL     1      -0.343   9.168  22.695  0.00  0.00    +0.000 A 
ATOM     13  C   UNL     1      -0.871  10.384  23.128  0.00  0.00    +0.000 A 
ATOM     14  C   UNL     1      -0.742  11.540  22.342  0.00  0.00    +0.000 A 
ATOM     15  C   UNL     1      -0.075  11.502  21.116  0.00  0.00    +0.000 A 
ATOM     16  C   UNL     1       0.450  10.296  20.695  0.00  0.00    +0.000 A 
ATOM     17  C   UNL     1       1.226   9.992  19.456  0.00  0.00    +0.000 C 
ENDBRANCH   1   8
BRANCH   4  18
ATOM     18  C   UNL     1       5.503   4.530  17.882  0.00  0.00    +0.000 C 
ATOM     19  O   UNL     1       6.356   4.420  18.760  0.00  0.00    +0.000 OA
ATOM     20  N   UNL     1       5.850   4.570  16.542  0.00  0.00    +0.000 N 
ATOM     21  C   UNL     1       4.955   4.681  15.407  0.00  0.00    +0.000 C 
ATOM     22  C   UNL     1       5.786   4.185  14.240  0.00  0.00    +0.000 C 
ATOM     23  C   UNL     1       7.202   4.618  14.600  0.00  0.00    +0.000 C 
ATOM     24  C   UNL     1       7.238   4.583  16.126  0.00  0.00    +0.000 C 
ENDBRANCH   4  18
TORSDOF 2
ENDMDL
MODEL 2
REMARK VINA RESULT:      -7.9      3.359      8.389
REMARK  Name = 
REMARK  2 active torsions:
REMARK  status: ('A' for Active; 'I' for Inactive)
REMARK    1  A    between atoms: C_2  and  C_3
REMARK    2  A    between atoms: C_6  and  C_7
REMARK                            x       y       z     vdW  Elec       q    Type
REMARK                         _______ _______ _______ _____ _____    ______ ____
ROOT
ATOM      1  C   UNL     1       1.078   9.861  19.888  0.00  0.00    +0.000 C 
ATOM      2  C   UNL     1       0.828  11.017  20.838  0.00  0.00    +0.000 C 
ATOM      3  N   UNL     1       0.372  12.114  19.976  0.00  0.00    +0.000 NA
ATOM      4  C   UNL     1      -0.421  11.476  18.891  0.00  0.00    +0.000 C 
ATOM      5  C   UNL     1      -0.132   9.978  18.963  0.00  0.00    +0.000 C 
ATOM      6  H   UNL     1       1.184  12.562  19.554  0.00  0.00    +0.000 HD
ENDROOT
BRANCH   1   8
ATOM      7  O   UNL     1       0.544   8.242  21.592  0.00  0.00    +0.000 OA
ATOM      8  C   UNL     1       1.166   8.493  20.560  0.00  0.00    +0.000 C 
ATOM      9  N   UNL     1       1.899   7.514  19.933  0.00  0.00    +0.000 N 
ATOM     10  C   UNL     1       2.596   7.594  18.649  0.00  0.00    +0.000 C 
ATOM     11  C   UNL     1       3.116   6.214  18.437  0.00  0.00    +0.000 A 
ATOM     12  C   UNL     1       3.871   5.733  17.381  0.00  0.00    +0.000 A 
ATOM     13  C   UNL     1       4.296   4.406  17.432  0.00  0.00    +0.000 A 
ATOM     14  C   UNL     1       3.960   3.589  18.523  0.00  0.00    +0.000 A 
ATOM     15  C   UNL     1       3.202   4.087  19.584  0.00  0.00    +0.000 A 
ATOM     16  C   UNL     1       2.789   5.403  19.530  0.00  0.00    +0.000 A 
ATOM     17  C   UNL     1       2.005   6.183  20.534  0.00  0.00    +0.000 C 
ENDBRANCH   1   8
BRANCH   4  18
ATOM     18  C   UNL     1      -1.916  11.837  19.057  0.00  0.00    +0.000 C 
ATOM     19  O   UNL     1      -2.354  12.408  20.054  0.00  0.00    +0.000 OA
ATOM     20  N   UNL     1      -2.746  11.483  18.007  0.00  0.00    +0.000 N 
ATOM     21  C   UNL     1      -2.367  10.825  16.773  0.00  0.00    +0.000 C 
ATOM     22  C   UNL     1      -3.514  11.133  15.830  0.00  0.00    +0.000 C 
ATOM     23  C   UNL     1      -4.728  11.184  16.749  0.00  0.00    +0.000 C 
ATOM     24  C   UNL     1      -4.180  11.681  18.083  0.00  0.00    +0.000 C 
ENDBRANCH   4  18
TORSDOF 2
ENDMDL
MODEL 3
REMARK VINA RESULT:      -7.8      0.965      1.074
REMARK  Name = 
REMARK  2 active torsions:
REMARK  status: ('A' for Active; 'I' for Inactive)
REMARK    1  A    between atoms: C_2  and  C_3
REMARK    2  A    between atoms: C_6  and  C_7
REMARK                            x       y       z     vdW  Elec       q    Type
REMARK                         _______ _______ _______ _____ _____    ______ ____
ROOT
ATOM      1  C   UNL     1       1.984   7.255  18.841  0.00  0.00    +0.000 C 
ATOM      2  C   UNL     1       2.569   6.883  20.189  0.00  0.00    +0.000 C 
ATOM      3  N   UNL     1       3.045   5.506  20.020  0.00  0.00    +0.000 NA
ATOM      4  C   UNL     1       3.534   5.413  18.618  0.00  0.00    +0.000 C 
ATOM      5  C   UNL     1       3.026   6.659  17.896  0.00  0.00    +0.000 C 
ATOM      6  H   UNL     1       2.256   4.868  20.123  0.00  0.00    +0.000 HD
ENDROOT
BRANCH   1   8
ATOM      7  O   UNL     1       2.125   9.298  17.569  0.00  0.00    +0.000 OA
ATOM      8  C   UNL     1       1.791   8.754  18.622  0.00  0.00    +0.000 C 
ATOM      9  N   UNL     1       1.155   9.472  19.605  0.00  0.00    +0.000 N 
ATOM     10  C   UNL     1       0.584   8.974  20.857  0.00  0.00    +0.000 C 
ATOM     11  C   UNL     1      -0.059  10.176  21.460  0.00  0.00    +0.000 A 
ATOM     12  C   UNL     1      -0.734  10.276  22.664  0.00  0.00    +0.000 A 
ATOM     13  C   UNL     1      -1.202  11.531  23.050  0.00  0.00    +0.000 A 
ATOM     14  C   UNL     1      -0.993  12.653  22.233  0.00  0.00    +0.000 A 
ATOM     15  C   UNL     1      -0.307  12.541  21.023  0.00  0.00    +0.000 A 
ATOM     16  C   UNL     1       0.158  11.296  20.649  0.00  0.00    +0.000 A 
ATOM     17  C   UNL     1       0.939  10.911  19.436  0.00  0.00    +0.000 C 
ENDBRANCH   1   8
BRANCH   4  18
ATOM     18  C   UNL     1       5.075   5.266  18.613  0.00  0.00    +0.000 C 
ATOM     19  O   UNL     1       5.761   5.438  19.618  0.00  0.00    +0.000 OA
ATOM     20  N   UNL     1       5.647   4.923  17.400  0.00  0.00    +0.000 N 
ATOM     21  C   UNL     1       4.964   4.676  16.147  0.00  0.00    +0.000 C 
ATOM     22  C   UNL     1       5.969   3.883  15.334  0.00  0.00    +0.000 C 
ATOM     23  C   UNL     1       7.313   4.437  15.792  0.00  0.00    +0.000 C 
ATOM     24  C   UNL     1       7.086   4.849  17.243  0.00  0.00    +0.000 C 
ENDBRANCH   4  18
TORSDOF 2
ENDMDL
MODEL 4
REMARK VINA RESULT:      -7.7      4.871      7.002
REMARK  Name = 
REMARK  2 active torsions:
REMARK  status: ('A' for Active; 'I' for Inactive)
REMARK    1  A    between atoms: C_2  and  C_3
REMARK    2  A    between atoms: C_6  and  C_7
REMARK                            x       y       z     vdW  Elec       q    Type
REMARK                         _______ _______ _______ _____ _____    ______ ____
ROOT
ATOM      1  C   UNL     1       7.051   6.322  18.267  0.00  0.00    +0.000 C 
ATOM      2  C   UNL     1       7.480   5.063  17.538  0.00  0.00    +0.000 C 
ATOM      3  N   UNL     1       6.893   3.966  18.315  0.00  0.00    +0.000 NA
ATOM      4  C   UNL     1       5.590   4.477  18.820  0.00  0.00    +0.000 C 
ATOM      5  C   UNL     1       5.598   5.987  18.596  0.00  0.00    +0.000 C 
ATOM      6  H   UNL     1       7.491   3.773  19.118  0.00  0.00    +0.000 HD
ENDROOT
BRANCH   1   8
ATOM      7  O   UNL     1       6.555   7.769  16.403  0.00  0.00    +0.000 OA
ATOM      8  C   UNL     1       7.181   7.606  17.451  0.00  0.00    +0.000 C 
ATOM      9  N   UNL     1       7.957   8.619  17.962  0.00  0.00    +0.000 N 
ATOM     10  C   UNL     1       8.668   8.650  19.241  0.00  0.00    +0.000 C 
ATOM     11  C   UNL     1       9.241  10.025  19.298  0.00  0.00    +0.000 A 
ATOM     12  C   UNL     1      10.026  10.587  20.289  0.00  0.00    +0.000 A 
ATOM     13  C   UNL     1      10.499  11.884  20.092  0.00  0.00    +0.000 A 
ATOM     14  C   UNL     1      10.179  12.591  18.922  0.00  0.00    +0.000 A 
ATOM     15  C   UNL     1       9.390  12.011  17.927  0.00  0.00    +0.000 A 
ATOM     16  C   UNL     1       8.929  10.725  18.127  0.00  0.00    +0.000 A 
ATOM     17  C   UNL     1       8.104   9.873  17.220  0.00  0.00    +0.000 C 
ENDBRANCH   1   8
BRANCH   4  18
ATOM     18  C   UNL     1       4.431   3.740  18.108  0.00  0.00    +0.000 C 
ATOM     19  O   UNL     1       4.495   3.381  16.934  0.00  0.00    +0.000 OA
ATOM     20  N   UNL     1       3.303   3.500  18.874  0.00  0.00    +0.000 N 
ATOM     21  C   UNL     1       3.096   3.852  20.264  0.00  0.00    +0.000 C 
ATOM     22  C   UNL     1       1.962   2.946  20.704  0.00  0.00    +0.000 C 
ATOM     23  C   UNL     1       1.116   2.797  19.445  0.00  0.00    +0.000 C 
ATOM     24  C   UNL     1       2.115   2.905  18.296  0.00  0.00    +0.000 C 
ENDBRANCH   4  18
TORSDOF 2
ENDMDL
MODEL 5
REMARK VINA RESULT:      -7.7      1.944      2.836
REMARK  Name = 
REMARK  2 active torsions:
REMARK  status: ('A' for Active; 'I' for Inactive)
REMARK    1  A    between atoms: C_2  and  C_3
REMARK    2  A    between atoms: C_6  and  C_7
REMARK                            x       y       z     vdW  Elec       q    Type
REMARK                         _______ _______ _______ _____ _____    ______ ____
ROOT
ATOM      1  C   UNL     1       2.808   3.946  19.252  0.00  0.00    +0.000 C 
ATOM      2  C   UNL     1       3.928   3.034  19.715  0.00  0.00    +0.000 C 
ATOM      3  N   UNL     1       4.526   2.523  18.477  0.00  0.00    +0.000 NA
ATOM      4  C   UNL     1       4.437   3.635  17.492  0.00  0.00    +0.000 C 
ATOM      5  C   UNL     1       3.484   4.668  18.088  0.00  0.00    +0.000 C 
ATOM      6  H   UNL     1       3.961   1.748  18.132  0.00  0.00    +0.000 HD
ENDROOT
BRANCH   1   8
ATOM      7  O   UNL     1       2.188   4.576  21.495  0.00  0.00    +0.000 OA
ATOM      8  C   UNL     1       2.294   4.913  20.315  0.00  0.00    +0.000 C 
ATOM      9  N   UNL     1       2.027   6.207  19.935  0.00  0.00    +0.000 N 
ATOM     10  C   UNL     1       2.211   6.813  18.616  0.00  0.00    +0.000 C 
ATOM     11  C   UNL     1       1.860   8.246  18.830  0.00  0.00    +0.000 A 
ATOM     12  C   UNL     1       1.844   9.273  17.902  0.00  0.00    +0.000 A 
ATOM     13  C   UNL     1       1.418  10.532  18.327  0.00  0.00    +0.000 A 
ATOM     14  C   UNL     1       1.025  10.741  19.658  0.00  0.00    +0.000 A 
ATOM     15  C   UNL     1       1.041   9.695  20.583  0.00  0.00    +0.000 A 
ATOM     16  C   UNL     1       1.458   8.451  20.155  0.00  0.00    +0.000 A 
ATOM     17  C   UNL     1       1.539   7.173  20.922  0.00  0.00    +0.000 C 
ENDBRANCH   1   8
BRANCH   4  18
ATOM     18  C   UNL     1       5.854   4.182  17.196  0.00  0.00    +0.000 C 
ATOM     19  O   UNL     1       6.666   4.435  18.083  0.00  0.00    +0.000 OA
ATOM     20  N   UNL     1       6.163   4.371  15.859  0.00  0.00    +0.000 N 
ATOM     21  C   UNL     1       5.315   4.103  14.716  0.00  0.00    +0.000 C 
ATOM     22  C   UNL     1       6.287   4.008  13.556  0.00  0.00    +0.000 C 
ATOM     23  C   UNL     1       7.388   4.992  13.932  0.00  0.00    +0.000 C 
ATOM     24  C   UNL     1       7.421   4.967  15.457  0.00  0.00    +0.000 C 
ENDBRANCH   4  18
TORSDOF 2
ENDMDL
MODEL 6
REMARK VINA RESULT:      -7.6      3.704      9.099
REMARK  Name = 
REMARK  2 active torsions:
REMARK  status: ('A' for Active; 'I' for Inactive)
REMARK    1  A    between atoms: C_2  and  C_3
REMARK    2  A    between atoms: C_6  and  C_7
REMARK                            x       y       z     vdW  Elec       q    Type
REMARK                         _______ _______ _______ _____ _____    ______ ____
ROOT
ATOM      1  C   UNL     1       0.449  10.227  18.935  0.00  0.00    +0.000 C 
ATOM      2  C   UNL     1       0.704  11.575  19.580  0.00  0.00    +0.000 C 
ATOM      3  N   UNL     1      -0.179  12.502  18.864  0.00  0.00    +0.000 NA
ATOM      4  C   UNL     1      -1.406  11.726  18.538  0.00  0.00    +0.000 C 
ATOM      5  C   UNL     1      -1.071  10.257  18.787  0.00  0.00    +0.000 C 
ATOM      6  H   UNL     1       0.266  12.774  17.989  0.00  0.00    +0.000 HD
ENDROOT
BRANCH   1   8
ATOM      7  O   UNL     1       0.411   8.734  20.828  0.00  0.00    +0.000 OA
ATOM      8  C   UNL     1       0.930   9.029  19.751  0.00  0.00    +0.000 C 
ATOM      9  N   UNL     1       1.910   8.232  19.209  0.00  0.00    +0.000 N 
ATOM     10  C   UNL     1       2.549   8.356  17.898  0.00  0.00    +0.000 C 
ATOM     11  C   UNL     1       3.442   7.166  17.822  0.00  0.00    +0.000 A 
ATOM     12  C   UNL     1       4.298   6.799  16.798  0.00  0.00    +0.000 A 
ATOM     13  C   UNL     1       5.087   5.664  16.980  0.00  0.00    +0.000 A 
ATOM     14  C   UNL     1       5.005   4.919  18.167  0.00  0.00    +0.000 A 
ATOM     15  C   UNL     1       4.141   5.302  19.195  0.00  0.00    +0.000 A 
ATOM     16  C   UNL     1       3.366   6.430  19.011  0.00  0.00    +0.000 A 
ATOM     17  C   UNL     1       2.397   7.067  19.951  0.00  0.00    +0.000 C 
ENDBRANCH   1   8
BRANCH   4  18
ATOM     18  C   UNL     1      -2.594  12.252  19.379  0.00  0.00    +0.000 C 
ATOM     19  O   UNL     1      -2.447  12.771  20.483  0.00  0.00    +0.000 OA
ATOM     20  N   UNL     1      -3.849  12.108  18.812  0.00  0.00    +0.000 N 
ATOM     21  C   UNL     1      -4.167  11.534  17.521  0.00  0.00    +0.000 C 
ATOM     22  C   UNL     1      -5.551  12.073  17.213  0.00  0.00    +0.000 C 
ATOM     23  C   UNL     1      -6.203  12.183  18.586  0.00  0.00    +0.000 C 
ATOM     24  C   UNL     1      -5.048  12.474  19.539  0.00  0.00    +0.000 C 
ENDBRANCH   4  18
TORSDOF 2
ENDMDL
MODEL 7
REMARK VINA RESULT:      -7.5      4.372      9.176
REMARK  Name = 
REMARK  2 active torsions:
REMARK  status: ('A' for Active; 'I' for Inactive)
REMARK    1  A    between atoms: C_2  and  C_3
REMARK    2  A    between atoms: C_6  and  C_7
REMARK                            x       y       z     vdW  Elec       q    Type
REMARK                         _______ _______ _______ _____ _____    ______ ____
ROOT
ATOM      1  C   UNL     1       5.220   5.778  16.005  0.00  0.00    +0.000 C 
ATOM      2  C   UNL     1       5.402   6.620  17.253  0.00  0.00    +0.000 C 
ATOM      3  N   UNL     1       4.201   6.361  18.054  0.00  0.00    +0.000 NA
ATOM      4  C   UNL     1       3.848   4.936  17.809  0.00  0.00    +0.000 C 
ATOM      5  C   UNL     1       4.670   4.485  16.604  0.00  0.00    +0.000 C 
ATOM      6  H   UNL     1       3.438   6.941  17.705  0.00  0.00    +0.000 HD
ENDROOT
BRANCH   1   8
ATOM      7  O   UNL     1       7.570   6.048  15.539  0.00  0.00    +0.000 OA
ATOM      8  C   UNL     1       6.497   5.548  15.201  0.00  0.00    +0.000 C 
ATOM      9  N   UNL     1       6.437   4.693  14.126  0.00  0.00    +0.000 N 
ATOM     10  C   UNL     1       5.288   3.919  13.655  0.00  0.00    +0.000 C 
ATOM     11  C   UNL     1       5.839   3.105  12.536  0.00  0.00    +0.000 A 
ATOM     12  C   UNL     1       5.176   2.204  11.720  0.00  0.00    +0.000 A 
ATOM     13  C   UNL     1       5.896   1.601  10.690  0.00  0.00    +0.000 A 
ATOM     14  C   UNL     1       7.253   1.901  10.496  0.00  0.00    +0.000 A 
ATOM     15  C   UNL     1       7.910   2.815  11.322  0.00  0.00    +0.000 A 
ATOM     16  C   UNL     1       7.190   3.413  12.337  0.00  0.00    +0.000 A 
ATOM     17  C   UNL     1       7.638   4.435  13.329  0.00  0.00    +0.000 C 
ENDBRANCH   1   8
BRANCH   4  18
ATOM     18  C   UNL     1       4.103   4.108  19.092  0.00  0.00    +0.000 C 
ATOM     19  O   UNL     1       5.233   3.859  19.506  0.00  0.00    +0.000 OA
ATOM     20  N   UNL     1       2.975   3.660  19.759  0.00  0.00    +0.000 N 
ATOM     21  C   UNL     1       1.592   3.891  19.395  0.00  0.00    +0.000 C 
ATOM     22  C   UNL     1       0.830   3.630  20.680  0.00  0.00    +0.000 C 
ATOM     23  C   UNL     1       1.646   2.538  21.363  0.00  0.00    +0.000 C 
ATOM     24  C   UNL     1       3.082   2.797  20.917  0.00  0.00    +0.000 C 
ENDBRANCH   4  18
TORSDOF 2
ENDMDL
MODEL 8
REMARK VINA RESULT:      -7.5      2.653      8.905
REMARK  Name = 
REMARK  2 active torsions:
REMARK  status: ('A' for Active; 'I' for Inactive)
REMARK    1  A    between atoms: C_2  and  C_3
REMARK    2  A    between atoms: C_6  and  C_7
REMARK                            x       y       z     vdW  Elec       q    Type
REMARK                         _______ _______ _______ _____ _____    ______ ____
ROOT
ATOM      1  C   UNL     1       0.652   9.416  19.205  0.00  0.00    +0.000 C 
ATOM      2  C   UNL     1      -0.409  10.329  18.623  0.00  0.00    +0.000 C 
ATOM      3  N   UNL     1      -1.161  10.815  19.786  0.00  0.00    +0.000 NA
ATOM      4  C   UNL     1      -0.167  10.952  20.884  0.00  0.00    +0.000 C 
ATOM      5  C   UNL     1       1.094  10.224  20.424  0.00  0.00    +0.000 C 
ATOM      6  H   UNL     1      -1.840  10.106  20.060  0.00  0.00    +0.000 HD
ENDROOT
BRANCH   1   8
ATOM      7  O   UNL     1       2.216   9.931  17.445  0.00  0.00    +0.000 OA
ATOM      8  C   UNL     1       1.812   9.104  18.263  0.00  0.00    +0.000 C 
ATOM      9  N   UNL     1       2.453   7.897  18.407  0.00  0.00    +0.000 N 
ATOM     10  C   UNL     1       2.192   6.852  19.398  0.00  0.00    +0.000 C 
ATOM     11  C   UNL     1       3.253   5.839  19.136  0.00  0.00    +0.000 A 
ATOM     12  C   UNL     1       3.464   4.631  19.778  0.00  0.00    +0.000 A 
ATOM     13  C   UNL     1       4.495   3.815  19.315  0.00  0.00    +0.000 A 
ATOM     14  C   UNL     1       5.293   4.218  18.233  0.00  0.00    +0.000 A 
ATOM     15  C   UNL     1       5.069   5.437  17.591  0.00  0.00    +0.000 A 
ATOM     16  C   UNL     1       4.042   6.238  18.051  0.00  0.00    +0.000 A 
ATOM     17  C   UNL     1       3.576   7.557  17.531  0.00  0.00    +0.000 C 
ENDBRANCH   1   8
BRANCH   4  18
ATOM     18  C   UNL     1       0.052  12.450  21.205  0.00  0.00    +0.000 C 
ATOM     19  O   UNL     1       0.839  13.154  20.576  0.00  0.00    +0.000 OA
ATOM     20  N   UNL     1      -0.699  12.962  22.249  0.00  0.00    +0.000 N 
ATOM     21  C   UNL     1      -1.668  12.256  23.061  0.00  0.00    +0.000 C 
ATOM     22  C   UNL     1      -2.507  13.363  23.670  0.00  0.00    +0.000 C 
ATOM     23  C   UNL     1      -1.516  14.507  23.844  0.00  0.00    +0.000 C 
ATOM     24  C   UNL     1      -0.515  14.325  22.707  0.00  0.00    +0.000 C 
ENDBRANCH   4  18
TORSDOF 2
ENDMDL
MODEL 9
REMARK VINA RESULT:      -7.4      4.597      9.993
REMARK  Name = 
REMARK  2 active torsions:
REMARK  status: ('A' for Active; 'I' for Inactive)
REMARK    1  A    between atoms: C_2  and  C_3
REMARK    2  A    between atoms: C_6  and  C_7
REMARK                            x       y       z     vdW  Elec       q    Type
REMARK                         _______ _______ _______ _____ _____    ______ ____
ROOT
ATOM      1  C   UNL     1      -1.076  12.107  22.194  0.00  0.00    +0.000 C 
ATOM      2  C   UNL     1      -1.726  12.754  23.402  0.00  0.00    +0.000 C 
ATOM      3  N   UNL     1      -2.686  13.710  22.839  0.00  0.00    +0.000 NA
ATOM      4  C   UNL     1      -3.207  13.080  21.596  0.00  0.00    +0.000 C 
ATOM      5  C   UNL     1      -2.287  11.901  21.286  0.00  0.00    +0.000 C 
ATOM      6  H   UNL     1      -2.191  14.562  22.578  0.00  0.00    +0.000 HD
ENDROOT
BRANCH   1   8
ATOM      7  O   UNL     1      -0.374  10.284  23.605  0.00  0.00    +0.000 OA
ATOM      8  C   UNL     1      -0.342  10.801  22.489  0.00  0.00    +0.000 C 
ATOM      9  N   UNL     1       0.292  10.169  21.446  0.00  0.00    +0.000 N 
ATOM     10  C   UNL     1       0.328  10.569  20.039  0.00  0.00    +0.000 C 
ATOM     11  C   UNL     1       1.064   9.458  19.371  0.00  0.00    +0.000 A 
ATOM     12  C   UNL     1       1.399   9.333  18.033  0.00  0.00    +0.000 A 
ATOM     13  C   UNL     1       2.150   8.222  17.649  0.00  0.00    +0.000 A 
ATOM     14  C   UNL     1       2.544   7.264  18.595  0.00  0.00    +0.000 A 
ATOM     15  C   UNL     1       2.204   7.404  19.942  0.00  0.00    +0.000 A 
ATOM     16  C   UNL     1       1.465   8.508  20.317  0.00  0.00    +0.000 A 
ATOM     17  C   UNL     1       1.001   8.909  21.679  0.00  0.00    +0.000 C 
ENDBRANCH   1   8
BRANCH   4  18
ATOM     18  C   UNL     1      -4.690  12.686  21.794  0.00  0.00    +0.000 C 
ATOM     19  O   UNL     1      -5.218  12.624  22.903  0.00  0.00    +0.000 OA
ATOM     20  N   UNL     1      -5.403  12.407  20.640  0.00  0.00    +0.000 N 
ATOM     21  C   UNL     1      -4.917  12.454  19.276  0.00  0.00    +0.000 C 
ATOM     22  C   UNL     1      -6.181  12.554  18.443  0.00  0.00    +0.000 C 
ATOM     23  C   UNL     1      -7.201  11.756  19.246  0.00  0.00    +0.000 C 
ATOM     24  C   UNL     1      -6.772  11.934  20.699  0.00  0.00    +0.000 C 
ENDBRANCH   4  18
TORSDOF 2
ENDMDL
