MODEL 1
REMARK VINA RESULT:      -8.3      0.000      0.000
REMARK  Name = 
REMARK  7 active torsions:
REMARK  status: ('A' for Active; 'I' for Inactive)
REMARK    1  A    between atoms: C_1  and  C_2
REMARK    2  A    between atoms: C_5  and  N_6
REMARK    3  A    between atoms: C_7  and  C_9
REMARK    4  A    between atoms: C_9  and  N_10
REMARK    5  A    between atoms: C_15  and  C_16
REMARK    6  A    between atoms: N_20  and  C_21
REMARK    7  A    between atoms: C_24  and  C_25
REMARK                            x       y       z     vdW  Elec       q    Type
REMARK                         _______ _______ _______ _____ _____    ______ ____
ROOT
ATOM      1  N   UNL     1       4.631   4.482  18.497  0.00  0.00    +0.000 N 
ATOM      2  C   UNL     1       5.882   5.014  18.630  0.00  0.00    +0.000 C 
ATOM      3  O   UNL     1       6.462   5.227  19.684  0.00  0.00    +0.000 OA
ATOM      4  S   UNL     1       6.585   5.308  17.058  0.00  0.00    +0.000 S 
ATOM      5  C   UNL     1       5.292   4.509  16.248  0.00  0.00    +0.000 C 
ATOM      6  C   UNL     1       5.204   4.184  14.949  0.00  0.00    +0.000 C 
ATOM      7  C   UNL     1       4.231   4.140  17.228  0.00  0.00    +0.000 C 
ATOM      8  O   UNL     1       3.199   3.561  16.923  0.00  0.00    +0.000 OA
ENDROOT
BRANCH   6   9
ATOM      9  C   UNL     1       6.233   4.461  14.013  0.00  0.00    +0.000 A 
ATOM     10  C   UNL     1       7.371   5.248  14.096  0.00  0.00    +0.000 A 
ATOM     11  C   UNL     1       8.070   5.126  12.872  0.00  0.00    +0.000 A 
ATOM     12  C   UNL     1       7.349   4.271  12.071  0.00  0.00    +0.000 A 
ATOM     13  N   UNL     1       6.228   3.879  12.762  0.00  0.00    +0.000 N 
ATOM     14  C   UNL     1       5.203   3.013  12.217  0.00  0.00    +0.000 C 
ENDBRANCH   6   9
BRANCH   1  15
ATOM     15  C   UNL     1       3.852   4.161  19.677  0.00  0.00    +0.000 C 
BRANCH  15  17
ATOM     16  N   UNL     1       2.944   6.426  19.927  0.00  0.00    +0.000 N 
ATOM     17  C   UNL     1       2.631   5.079  19.763  0.00  0.00    +0.000 C 
ATOM     18  O   UNL     1       1.506   4.601  19.646  0.00  0.00    +0.000 OA
ATOM     19  H   UNL     1       3.926   6.662  19.999  0.00  0.00    +0.000 HD
BRANCH  16  24
ATOM     20  C   UNL     1      -0.670  10.874  20.562  0.00  0.00    +0.000 C 
ATOM     21  C   UNL     1       0.237   9.695  20.377  0.00  0.00    +0.000 A 
ATOM     22  C   UNL     1       0.395   8.754  21.388  0.00  0.00    +0.000 A 
ATOM     23  C   UNL     1       1.272   7.678  21.224  0.00  0.00    +0.000 A 
ATOM     24  C   UNL     1       2.022   7.503  20.053  0.00  0.00    +0.000 A 
ATOM     25  C   UNL     1       1.837   8.429  19.001  0.00  0.00    +0.000 A 
ATOM     26  C   UNL     1       2.554   8.394  17.678  0.00  0.00    +0.000 C 
ATOM     27  C   UNL     1       0.948   9.517  19.189  0.00  0.00    +0.000 A 
ENDBRANCH  16  24
ENDBRANCH  15  17
ENDBRANCH   1  15
TORSDOF 4
ENDMDL
MODEL 2
REMARK VINA RESULT:      -7.7      5.068     10.673
REMARK  Name = 
REMARK  7 active torsions:
REMARK  status: ('A' for Active; 'I' for Inactive)
REMARK    1  A    between atoms: C_1  and  C_2
REMARK    2  A    between atoms: C_5  and  N_6
REMARK    3  A    between atoms: C_7  and  C_9
REMARK    4  A    between atoms: C_9  and  N_10
REMARK    5  A    between atoms: C_15  and  C_16
REMARK    6  A    between atoms: N_20  and  C_21
REMARK    7  A    between atoms: C_24  and  C_25
REMARK                            x       y       z     vdW  Elec       q    Type
REMARK                         _______ _______ _______ _____ _____    ______ ____
ROOT
ATOM      1  N   UNL     1       0.481  10.603  21.672  0.00  0.00    +0.000 N 
ATOM      2  C   UNL     1       0.284  11.297  20.513  0.00  0.00    +0.000 C 
ATOM      3  O   UNL     1       0.919  11.159  19.478  0.00  0.00    +0.000 OA
ATOM      4  S   UNL     1      -1.063  12.396  20.686  0.00  0.00    +0.000 S 
ATOM      5  C   UNL     1      -1.486  11.753  22.227  0.00  0.00    +0.000 C 
ATOM      6  C   UNL     1      -2.578  12.013  22.960  0.00  0.00    +0.000 C 
ATOM      7  C   UNL     1      -0.460  10.763  22.662  0.00  0.00    +0.000 C 
ATOM      8  O   UNL     1      -0.512  10.153  23.720  0.00  0.00    +0.000 OA
ENDROOT
BRANCH   6   9
ATOM      9  C   UNL     1      -3.602  12.898  22.533  0.00  0.00    +0.000 A 
ATOM     10  C   UNL     1      -4.682  12.719  21.684  0.00  0.00    +0.000 A 
ATOM     11  C   UNL     1      -5.409  13.933  21.649  0.00  0.00    +0.000 A 
ATOM     12  C   UNL     1      -4.761  14.822  22.474  0.00  0.00    +0.000 A 
ATOM     13  N   UNL     1      -3.657  14.195  23.000  0.00  0.00    +0.000 N 
ATOM     14  C   UNL     1      -2.703  14.838  23.880  0.00  0.00    +0.000 C 
ENDBRANCH   6   9
BRANCH   1  15
ATOM     15  C   UNL     1       1.553   9.632  21.762  0.00  0.00    +0.000 C 
BRANCH  15  17
ATOM     16  N   UNL     1       2.138   7.471  20.758  0.00  0.00    +0.000 N 
ATOM     17  C   UNL     1       1.096   8.293  21.176  0.00  0.00    +0.000 C 
ATOM     18  O   UNL     1      -0.102   8.022  21.150  0.00  0.00    +0.000 OA
ATOM     19  H   UNL     1       3.078   7.838  20.854  0.00  0.00    +0.000 HD
BRANCH  16  24
ATOM     20  C   UNL     1       1.462   2.274  18.352  0.00  0.00    +0.000 C 
ATOM     21  C   UNL     1       1.680   3.615  18.986  0.00  0.00    +0.000 A 
ATOM     22  C   UNL     1       1.361   3.829  20.322  0.00  0.00    +0.000 A 
ATOM     23  C   UNL     1       1.530   5.093  20.897  0.00  0.00    +0.000 A 
ATOM     24  C   UNL     1       2.019   6.182  20.164  0.00  0.00    +0.000 A 
ATOM     25  C   UNL     1       2.388   5.965  18.817  0.00  0.00    +0.000 A 
ATOM     26  C   UNL     1       2.930   7.017  17.885  0.00  0.00    +0.000 C 
ATOM     27  C   UNL     1       2.203   4.680  18.250  0.00  0.00    +0.000 A 
ENDBRANCH  16  24
ENDBRANCH  15  17
ENDBRANCH   1  15
TORSDOF 4
ENDMDL
MODEL 3
REMARK VINA RESULT:      -7.7      4.226      6.609
REMARK  Name = 
REMARK  7 active torsions:
REMARK  status: ('A' for Active; 'I' for Inactive)
REMARK    1  A    between atoms: C_1  and  C_2
REMARK    2  A    between atoms: C_5  and  N_6
REMARK    3  A    between atoms: C_7  and  C_9
REMARK    4  A    between atoms: C_9  and  N_10
REMARK    5  A    between atoms: C_15  and  C_16
REMARK    6  A    between atoms: N_20  and  C_21
REMARK    7  A    between atoms: C_24  and  C_25
REMARK                            x       y       z     vdW  Elec       q    Type
REMARK                         _______ _______ _______ _____ _____    ______ ____
ROOT
ATOM      1  N   UNL     1       1.423   9.456  19.571  0.00  0.00    +0.000 N 
ATOM      2  C   UNL     1       1.880   9.235  18.303  0.00  0.00    +0.000 C 
ATOM      3  O   UNL     1       2.012  10.082  17.431  0.00  0.00    +0.000 OA
ATOM      4  S   UNL     1       2.315   7.556  18.100  0.00  0.00    +0.000 S 
ATOM      5  C   UNL     1       2.094   7.219  19.774  0.00  0.00    +0.000 C 
ATOM      6  C   UNL     1       2.404   6.097  20.440  0.00  0.00    +0.000 C 
ATOM      7  C   UNL     1       1.530   8.415  20.462  0.00  0.00    +0.000 C 
ATOM      8  O   UNL     1       1.275   8.453  21.657  0.00  0.00    +0.000 OA
ENDROOT
BRANCH   6   9
ATOM      9  C   UNL     1       3.007   4.973  19.820  0.00  0.00    +0.000 A 
ATOM     10  C   UNL     1       4.275   4.775  19.297  0.00  0.00    +0.000 A 
ATOM     11  C   UNL     1       4.349   3.439  18.839  0.00  0.00    +0.000 A 
ATOM     12  C   UNL     1       3.131   2.851  19.090  0.00  0.00    +0.000 A 
ATOM     13  N   UNL     1       2.315   3.789  19.674  0.00  0.00    +0.000 N 
ATOM     14  C   UNL     1       0.934   3.545  20.039  0.00  0.00    +0.000 C 
ENDBRANCH   6   9
BRANCH   1  15
ATOM     15  C   UNL     1       0.998  10.785  19.966  0.00  0.00    +0.000 C 
BRANCH  15  17
ATOM     16  N   UNL     1      -1.126  11.218  18.818  0.00  0.00    +0.000 N 
ATOM     17  C   UNL     1      -0.530  10.850  20.021  0.00  0.00    +0.000 C 
ATOM     18  O   UNL     1      -1.112  10.548  21.060  0.00  0.00    +0.000 OA
ATOM     19  H   UNL     1      -0.506  11.429  18.046  0.00  0.00    +0.000 HD
BRANCH  16  24
ATOM     20  C   UNL     1      -6.738  12.041  17.777  0.00  0.00    +0.000 C 
ATOM     21  C   UNL     1      -5.289  11.790  18.069  0.00  0.00    +0.000 A 
ATOM     22  C   UNL     1      -4.683  12.344  19.190  0.00  0.00    +0.000 A 
ATOM     23  C   UNL     1      -3.322  12.137  19.435  0.00  0.00    +0.000 A 
ATOM     24  C   UNL     1      -2.520  11.376  18.573  0.00  0.00    +0.000 A 
ATOM     25  C   UNL     1      -3.135  10.772  17.454  0.00  0.00    +0.000 A 
ATOM     26  C   UNL     1      -2.430   9.923  16.428  0.00  0.00    +0.000 C 
ATOM     27  C   UNL     1      -4.514  10.998  17.219  0.00  0.00    +0.000 A 
ENDBRANCH  16  24
ENDBRANCH  15  17
ENDBRANCH   1  15
TORSDOF 4
ENDMDL
MODEL 4
REMARK VINA RESULT:      -7.5      5.092      7.318
REMARK  Name = 
REMARK  7 active torsions:
REMARK  status: ('A' for Active; 'I' for Inactive)
REMARK    1  A    between atoms: C_1  and  C_2
REMARK    2  A    between atoms: C_5  and  N_6
REMARK    3  A    between atoms: C_7  and  C_9
REMARK    4  A    between atoms: C_9  and  N_10
REMARK    5  A    between atoms: C_15  and  C_16
REMARK    6  A    between atoms: N_20  and  C_21
REMARK    7  A    between atoms: C_24  and  C_25
REMARK                            x       y       z     vdW  Elec       q    Type
REMARK                         _______ _______ _______ _____ _____    ______ ____
ROOT
ATOM      1  N   UNL     1       6.792   6.518  17.926  0.00  0.00    +0.000 N 
ATOM      2  C   UNL     1       5.887   6.585  16.905  0.00  0.00    +0.000 C 
ATOM      3  O   UNL     1       6.082   7.086  15.807  0.00  0.00    +0.000 OA
ATOM      4  S   UNL     1       4.399   5.793  17.361  0.00  0.00    +0.000 S 
ATOM      5  C   UNL     1       5.081   5.188  18.822  0.00  0.00    +0.000 C 
ATOM      6  C   UNL     1       4.547   4.309  19.683  0.00  0.00    +0.000 C 
ATOM      7  C   UNL     1       6.451   5.744  19.010  0.00  0.00    +0.000 C 
ATOM      8  O   UNL     1       7.165   5.479  19.966  0.00  0.00    +0.000 OA
ENDROOT
BRANCH   6   9
ATOM      9  C   UNL     1       3.275   3.712  19.487  0.00  0.00    +0.000 A 
ATOM     10  C   UNL     1       2.892   2.538  18.858  0.00  0.00    +0.000 A 
ATOM     11  C   UNL     1       1.490   2.411  18.998  0.00  0.00    +0.000 A 
ATOM     12  C   UNL     1       1.048   3.504  19.706  0.00  0.00    +0.000 A 
ATOM     13  N   UNL     1       2.132   4.299  19.990  0.00  0.00    +0.000 N 
ATOM     14  C   UNL     1       2.047   5.567  20.686  0.00  0.00    +0.000 C 
ENDBRANCH   6   9
BRANCH   1  15
ATOM     15  C   UNL     1       8.103   7.116  17.772  0.00  0.00    +0.000 C 
BRANCH  15  17
ATOM     16  N   UNL     1       9.073   8.957  19.071  0.00  0.00    +0.000 N 
ATOM     17  C   UNL     1       8.059   8.587  18.193  0.00  0.00    +0.000 C 
ATOM     18  O   UNL     1       7.198   9.325  17.721  0.00  0.00    +0.000 OA
ATOM     19  H   UNL     1       9.714   8.229  19.364  0.00  0.00    +0.000 HD
BRANCH  16  24
ATOM     20  C   UNL     1      10.024  14.101  21.499  0.00  0.00    +0.000 C 
ATOM     21  C   UNL     1       9.740  12.780  20.850  0.00  0.00    +0.000 A 
ATOM     22  C   UNL     1       9.056  11.783  21.535  0.00  0.00    +0.000 A 
ATOM     23  C   UNL     1       8.828  10.540  20.937  0.00  0.00    +0.000 A 
ATOM     24  C   UNL     1       9.275  10.246  19.642  0.00  0.00    +0.000 A 
ATOM     25  C   UNL     1       9.934  11.266  18.919  0.00  0.00    +0.000 A 
ATOM     26  C   UNL     1      10.477  11.128  17.521  0.00  0.00    +0.000 C 
ATOM     27  C   UNL     1      10.161  12.518  19.544  0.00  0.00    +0.000 A 
ENDBRANCH  16  24
ENDBRANCH  15  17
ENDBRANCH   1  15
TORSDOF 4
ENDMDL
MODEL 5
REMARK VINA RESULT:      -7.5      4.103      6.648
REMARK  Name = 
REMARK  7 active torsions:
REMARK  status: ('A' for Active; 'I' for Inactive)
REMARK    1  A    between atoms: C_1  and  C_2
REMARK    2  A    between atoms: C_5  and  N_6
REMARK    3  A    between atoms: C_7  and  C_9
REMARK    4  A    between atoms: C_9  and  N_10
REMARK    5  A    between atoms: C_15  and  C_16
REMARK    6  A    between atoms: N_20  and  C_21
REMARK    7  A    between atoms: C_24  and  C_25
REMARK                            x       y       z     vdW  Elec       q    Type
REMARK                         _______ _______ _______ _____ _____    ______ ____
ROOT
ATOM      1  N   UNL     1       1.374   9.343  19.371  0.00  0.00    +0.000 N 
ATOM      2  C   UNL     1       1.044   8.687  20.522  0.00  0.00    +0.000 C 
ATOM      3  O   UNL     1       0.316   9.113  21.407  0.00  0.00    +0.000 OA
ATOM      4  S   UNL     1       1.768   7.097  20.542  0.00  0.00    +0.000 S 
ATOM      5  C   UNL     1       2.316   7.245  18.917  0.00  0.00    +0.000 C 
ATOM      6  C   UNL     1       2.863   6.299  18.139  0.00  0.00    +0.000 C 
ATOM      7  C   UNL     1       2.046   8.622  18.413  0.00  0.00    +0.000 C 
ATOM      8  O   UNL     1       2.334   9.001  17.288  0.00  0.00    +0.000 OA
ENDROOT
BRANCH   6   9
ATOM      9  C   UNL     1       3.063   4.963  18.573  0.00  0.00    +0.000 A 
ATOM     10  C   UNL     1       2.214   3.870  18.620  0.00  0.00    +0.000 A 
ATOM     11  C   UNL     1       2.956   2.767  19.105  0.00  0.00    +0.000 A 
ATOM     12  C   UNL     1       4.237   3.208  19.343  0.00  0.00    +0.000 A 
ATOM     13  N   UNL     1       4.295   4.545  19.031  0.00  0.00    +0.000 N 
ATOM     14  C   UNL     1       5.478   5.364  19.200  0.00  0.00    +0.000 C 
ENDBRANCH   6   9
BRANCH   1  15
ATOM     15  C   UNL     1       0.886  10.688  19.139  0.00  0.00    +0.000 C 
BRANCH  15  17
ATOM     16  N   UNL     1      -1.392  11.598  19.106  0.00  0.00    +0.000 N 
ATOM     17  C   UNL     1      -0.536  10.637  18.575  0.00  0.00    +0.000 C 
ATOM     18  O   UNL     1      -0.811   9.819  17.702  0.00  0.00    +0.000 OA
ATOM     19  H   UNL     1      -1.010  12.209  19.818  0.00  0.00    +0.000 HD
BRANCH  16  24
ATOM     20  C   UNL     1      -6.987  12.150  17.821  0.00  0.00    +0.000 C 
ATOM     21  C   UNL     1      -5.526  12.048  18.142  0.00  0.00    +0.000 A 
ATOM     22  C   UNL     1      -4.630  11.520  17.218  0.00  0.00    +0.000 A 
ATOM     23  C   UNL     1      -3.275  11.393  17.539  0.00  0.00    +0.000 A 
ATOM     24  C   UNL     1      -2.767  11.782  18.786  0.00  0.00    +0.000 A 
ATOM     25  C   UNL     1      -3.660  12.359  19.716  0.00  0.00    +0.000 A 
ATOM     26  C   UNL     1      -3.289  12.834  21.096  0.00  0.00    +0.000 C 
ATOM     27  C   UNL     1      -5.031  12.475  19.376  0.00  0.00    +0.000 A 
ENDBRANCH  16  24
ENDBRANCH  15  17
ENDBRANCH   1  15
TORSDOF 4
ENDMDL
MODEL 6
REMARK VINA RESULT:      -7.5      4.781      7.148
REMARK  Name = 
REMARK  7 active torsions:
REMARK  status: ('A' for Active; 'I' for Inactive)
REMARK    1  A    between atoms: C_1  and  C_2
REMARK    2  A    between atoms: C_5  and  N_6
REMARK    3  A    between atoms: C_7  and  C_9
REMARK    4  A    between atoms: C_9  and  N_10
REMARK    5  A    between atoms: C_15  and  C_16
REMARK    6  A    between atoms: N_20  and  C_21
REMARK    7  A    between atoms: C_24  and  C_25
REMARK                            x       y       z     vdW  Elec       q    Type
REMARK                         _______ _______ _______ _____ _____    ______ ____
ROOT
ATOM      1  N   UNL     1       6.301   6.277  17.405  0.00  0.00    +0.000 N 
ATOM      2  C   UNL     1       6.671   5.031  17.825  0.00  0.00    +0.000 C 
ATOM      3  O   UNL     1       7.798   4.561  17.770  0.00  0.00    +0.000 OA
ATOM      4  S   UNL     1       5.303   4.195  18.520  0.00  0.00    +0.000 S 
ATOM      5  C   UNL     1       4.311   5.601  18.445  0.00  0.00    +0.000 C 
ATOM      6  C   UNL     1       3.091   5.781  18.971  0.00  0.00    +0.000 C 
ATOM      7  C   UNL     1       5.031   6.692  17.729  0.00  0.00    +0.000 C 
ATOM      8  O   UNL     1       4.558   7.802  17.534  0.00  0.00    +0.000 OA
ENDROOT
BRANCH   6   9
ATOM      9  C   UNL     1       2.416   4.780  19.717  0.00  0.00    +0.000 A 
ATOM     10  C   UNL     1       2.366   4.519  21.077  0.00  0.00    +0.000 A 
ATOM     11  C   UNL     1       1.499   3.417  21.273  0.00  0.00    +0.000 A 
ATOM     12  C   UNL     1       1.041   3.032  20.034  0.00  0.00    +0.000 A 
ATOM     13  N   UNL     1       1.609   3.853  19.091  0.00  0.00    +0.000 N 
ATOM     14  C   UNL     1       1.396   3.717  17.665  0.00  0.00    +0.000 C 
ENDBRANCH   6   9
BRANCH   1  15
ATOM     15  C   UNL     1       7.278   7.153  16.789  0.00  0.00    +0.000 C 
BRANCH  15  17
ATOM     16  N   UNL     1       8.017   9.349  17.594  0.00  0.00    +0.000 N 
ATOM     17  C   UNL     1       7.986   7.983  17.862  0.00  0.00    +0.000 C 
ATOM     18  O   UNL     1       8.425   7.427  18.865  0.00  0.00    +0.000 OA
ATOM     19  H   UNL     1       7.602   9.654  16.722  0.00  0.00    +0.000 HD
BRANCH  16  24
ATOM     20  C   UNL     1      10.618  13.387  20.785  0.00  0.00    +0.000 C 
ATOM     21  C   UNL     1       9.905  12.343  19.979  0.00  0.00    +0.000 A 
ATOM     22  C   UNL     1      10.008  10.997  20.310  0.00  0.00    +0.000 A 
ATOM     23  C   UNL     1       9.372  10.025  19.531  0.00  0.00    +0.000 A 
ATOM     24  C   UNL     1       8.617  10.359  18.399  0.00  0.00    +0.000 A 
ATOM     25  C   UNL     1       8.469  11.727  18.078  0.00  0.00    +0.000 A 
ATOM     26  C   UNL     1       7.695  12.266  16.904  0.00  0.00    +0.000 C 
ATOM     27  C   UNL     1       9.126  12.697  18.876  0.00  0.00    +0.000 A 
ENDBRANCH  16  24
ENDBRANCH  15  17
ENDBRANCH   1  15
TORSDOF 4
ENDMDL
MODEL 7
REMARK VINA RESULT:      -7.5      3.597      6.169
REMARK  Name = 
REMARK  7 active torsions:
REMARK  status: ('A' for Active; 'I' for Inactive)
REMARK    1  A    between atoms: C_1  and  C_2
REMARK    2  A    between atoms: C_5  and  N_6
REMARK    3  A    between atoms: C_7  and  C_9
REMARK    4  A    between atoms: C_9  and  N_10
REMARK    5  A    between atoms: C_15  and  C_16
REMARK    6  A    between atoms: N_20  and  C_21
REMARK    7  A    between atoms: C_24  and  C_25
REMARK                            x       y       z     vdW  Elec       q    Type
REMARK                         _______ _______ _______ _____ _____    ______ ____
ROOT
ATOM      1  N   UNL     1       1.520   9.338  19.518  0.00  0.00    +0.000 N 
ATOM      2  C   UNL     1       1.926   9.374  18.215  0.00  0.00    +0.000 C 
ATOM      3  O   UNL     1       2.065  10.380  17.535  0.00  0.00    +0.000 OA
ATOM      4  S   UNL     1       2.285   7.762  17.647  0.00  0.00    +0.000 S 
ATOM      5  C   UNL     1       2.105   7.086  19.221  0.00  0.00    +0.000 C 
ATOM      6  C   UNL     1       2.391   5.840  19.624  0.00  0.00    +0.000 C 
ATOM      7  C   UNL     1       1.614   8.129  20.167  0.00  0.00    +0.000 C 
ATOM      8  O   UNL     1       1.399   7.922  21.352  0.00  0.00    +0.000 OA
ENDROOT
BRANCH   6   9
ATOM      9  C   UNL     1       2.926   4.852  18.758  0.00  0.00    +0.000 A 
ATOM     10  C   UNL     1       2.320   3.936  17.914  0.00  0.00    +0.000 A 
ATOM     11  C   UNL     1       3.342   3.219  17.249  0.00  0.00    +0.000 A 
ATOM     12  C   UNL     1       4.546   3.710  17.698  0.00  0.00    +0.000 A 
ATOM     13  N   UNL     1       4.290   4.692  18.624  0.00  0.00    +0.000 N 
ATOM     14  C   UNL     1       5.319   5.407  19.351  0.00  0.00    +0.000 C 
ENDBRANCH   6   9
BRANCH   1  15
ATOM     15  C   UNL     1       1.163  10.566  20.200  0.00  0.00    +0.000 C 
BRANCH  15  17
ATOM     16  N   UNL     1      -0.925  11.115  19.036  0.00  0.00    +0.000 N 
ATOM     17  C   UNL     1      -0.359  10.716  20.243  0.00  0.00    +0.000 C 
ATOM     18  O   UNL     1      -0.964  10.448  21.278  0.00  0.00    +0.000 OA
ATOM     19  H   UNL     1      -0.288  11.291  18.268  0.00  0.00    +0.000 HD
BRANCH  16  24
ATOM     20  C   UNL     1      -6.474  12.246  17.947  0.00  0.00    +0.000 C 
ATOM     21  C   UNL     1      -5.044  11.916  18.252  0.00  0.00    +0.000 A 
ATOM     22  C   UNL     1      -4.407  12.467  19.358  0.00  0.00    +0.000 A 
ATOM     23  C   UNL     1      -3.062  12.185  19.614  0.00  0.00    +0.000 A 
ATOM     24  C   UNL     1      -2.306  11.350  18.780  0.00  0.00    +0.000 A 
ATOM     25  C   UNL     1      -2.954  10.750  17.678  0.00  0.00    +0.000 A 
ATOM     26  C   UNL     1      -2.300   9.828  16.682  0.00  0.00    +0.000 C 
ATOM     27  C   UNL     1      -4.316  11.052  17.430  0.00  0.00    +0.000 A 
ENDBRANCH  16  24
ENDBRANCH  15  17
ENDBRANCH   1  15
TORSDOF 4
ENDMDL
MODEL 8
REMARK VINA RESULT:      -7.5      4.789      7.172
REMARK  Name = 
REMARK  7 active torsions:
REMARK  status: ('A' for Active; 'I' for Inactive)
REMARK    1  A    between atoms: C_1  and  C_2
REMARK    2  A    between atoms: C_5  and  N_6
REMARK    3  A    between atoms: C_7  and  C_9
REMARK    4  A    between atoms: C_9  and  N_10
REMARK    5  A    between atoms: C_15  and  C_16
REMARK    6  A    between atoms: N_20  and  C_21
REMARK    7  A    between atoms: C_24  and  C_25
REMARK                            x       y       z     vdW  Elec       q    Type
REMARK                         _______ _______ _______ _____ _____    ______ ____
ROOT
ATOM      1  N   UNL     1       5.933   6.428  17.710  0.00  0.00    +0.000 N 
ATOM      2  C   UNL     1       4.686   6.977  17.614  0.00  0.00    +0.000 C 
ATOM      3  O   UNL     1       4.379   7.943  16.931  0.00  0.00    +0.000 OA
ATOM      4  S   UNL     1       3.547   6.064  18.573  0.00  0.00    +0.000 S 
ATOM      5  C   UNL     1       4.702   4.833  18.910  0.00  0.00    +0.000 C 
ATOM      6  C   UNL     1       4.500   3.649  19.507  0.00  0.00    +0.000 C 
ATOM      7  C   UNL     1       6.037   5.230  18.376  0.00  0.00    +0.000 C 
ATOM      8  O   UNL     1       7.040   4.539  18.475  0.00  0.00    +0.000 OA
ENDROOT
BRANCH   6   9
ATOM      9  C   UNL     1       3.225   3.220  19.958  0.00  0.00    +0.000 A 
ATOM     10  C   UNL     1       2.588   3.344  21.182  0.00  0.00    +0.000 A 
ATOM     11  C   UNL     1       1.302   2.767  21.060  0.00  0.00    +0.000 A 
ATOM     12  C   UNL     1       1.181   2.305  19.771  0.00  0.00    +0.000 A 
ATOM     13  N   UNL     1       2.355   2.570  19.108  0.00  0.00    +0.000 N 
ATOM     14  C   UNL     1       2.615   2.182  17.736  0.00  0.00    +0.000 C 
ENDBRANCH   6   9
BRANCH   1  15
ATOM     15  C   UNL     1       7.044   7.026  16.997  0.00  0.00    +0.000 C 
BRANCH  15  17
ATOM     16  N   UNL     1       7.884   9.229  17.677  0.00  0.00    +0.000 N 
ATOM     17  C   UNL     1       7.890   7.866  17.957  0.00  0.00    +0.000 C 
ATOM     18  O   UNL     1       8.462   7.317  18.896  0.00  0.00    +0.000 OA
ATOM     19  H   UNL     1       7.354   9.527  16.866  0.00  0.00    +0.000 HD
BRANCH  16  24
ATOM     20  C   UNL     1      10.891  13.284  20.464  0.00  0.00    +0.000 C 
ATOM     21  C   UNL     1      10.075  12.238  19.765  0.00  0.00    +0.000 A 
ATOM     22  C   UNL     1      10.146  10.905  20.152  0.00  0.00    +0.000 A 
ATOM     23  C   UNL     1       9.411   9.929  19.472  0.00  0.00    +0.000 A 
ATOM     24  C   UNL     1       8.586  10.246  18.384  0.00  0.00    +0.000 A 
ATOM     25  C   UNL     1       8.472  11.604  18.009  0.00  0.00    +0.000 A 
ATOM     26  C   UNL     1       7.634  12.123  16.871  0.00  0.00    +0.000 C 
ATOM     27  C   UNL     1       9.229  12.577  18.707  0.00  0.00    +0.000 A 
ENDBRANCH  16  24
ENDBRANCH  15  17
ENDBRANCH   1  15
TORSDOF 4
ENDMDL
MODEL 9
REMARK VINA RESULT:      -7.5      4.250      6.193
REMARK  Name = 
REMARK  7 active torsions:
REMARK  status: ('A' for Active; 'I' for Inactive)
REMARK    1  A    between atoms: C_1  and  C_2
REMARK    2  A    between atoms: C_5  and  N_6
REMARK    3  A    between atoms: C_7  and  C_9
REMARK    4  A    between atoms: C_9  and  N_10
REMARK    5  A    between atoms: C_15  and  C_16
REMARK    6  A    between atoms: N_20  and  C_21
REMARK    7  A    between atoms: C_24  and  C_25
REMARK                            x       y       z     vdW  Elec       q    Type
REMARK                         _______ _______ _______ _____ _____    ______ ____
ROOT
ATOM      1  N   UNL     1       1.755   8.451  19.413  0.00  0.00    +0.000 N 
ATOM      2  C   UNL     1       2.188   8.164  18.150  0.00  0.00    +0.000 C 
ATOM      3  O   UNL     1       2.370   8.975  17.254  0.00  0.00    +0.000 OA
ATOM      4  S   UNL     1       2.508   6.455  17.993  0.00  0.00    +0.000 S 
ATOM      5  C   UNL     1       2.276   6.180  19.677  0.00  0.00    +0.000 C 
ATOM      6  C   UNL     1       2.515   5.059  20.374  0.00  0.00    +0.000 C 
ATOM      7  C   UNL     1       1.798   7.431  20.334  0.00  0.00    +0.000 C 
ATOM      8  O   UNL     1       1.554   7.519  21.528  0.00  0.00    +0.000 OA
ENDROOT
BRANCH   6   9
ATOM      9  C   UNL     1       3.037   3.880  19.782  0.00  0.00    +0.000 A 
ATOM     10  C   UNL     1       4.336   3.463  19.543  0.00  0.00    +0.000 A 
ATOM     11  C   UNL     1       4.277   2.174  18.964  0.00  0.00    +0.000 A 
ATOM     12  C   UNL     1       2.948   1.831  18.863  0.00  0.00    +0.000 A 
ATOM     13  N   UNL     1       2.198   2.874  19.349  0.00  0.00    +0.000 N 
ATOM     14  C   UNL     1       0.749   2.893  19.360  0.00  0.00    +0.000 C 
ENDBRANCH   6   9
BRANCH   1  15
ATOM     15  C   UNL     1       1.423   9.816  19.773  0.00  0.00    +0.000 C 
BRANCH  15  17
ATOM     16  N   UNL     1      -0.673  10.483  18.687  0.00  0.00    +0.000 N 
ATOM     17  C   UNL     1      -0.097   9.980  19.850  0.00  0.00    +0.000 C 
ATOM     18  O   UNL     1      -0.691   9.638  20.869  0.00  0.00    +0.000 OA
ATOM     19  H   UNL     1      -0.044  10.711  17.926  0.00  0.00    +0.000 HD
BRANCH  16  24
ATOM     20  C   UNL     1      -6.310  11.432  17.924  0.00  0.00    +0.000 C 
ATOM     21  C   UNL     1      -4.836  11.212  18.089  0.00  0.00    +0.000 A 
ATOM     22  C   UNL     1      -4.206  10.131  17.483  0.00  0.00    +0.000 A 
ATOM     23  C   UNL     1      -2.838   9.910  17.673  0.00  0.00    +0.000 A 
ATOM     24  C   UNL     1      -2.054  10.754  18.471  0.00  0.00    +0.000 A 
ATOM     25  C   UNL     1      -2.674  11.881  19.055  0.00  0.00    +0.000 A 
ATOM     26  C   UNL     1      -1.987  12.891  19.937  0.00  0.00    +0.000 C 
ATOM     27  C   UNL     1      -4.062  12.085  18.857  0.00  0.00    +0.000 A 
ENDBRANCH  16  24
ENDBRANCH  15  17
ENDBRANCH   1  15
TORSDOF 4
ENDMDL
