MODEL 1
REMARK VINA RESULT:      -8.0      0.000      0.000
REMARK  Name = 
REMARK  8 active torsions:
REMARK  status: ('A' for Active; 'I' for Inactive)
REMARK    1  A    between atoms: C_1  and  O_2
REMARK    2  A    between atoms: O_2  and  C_3
REMARK    3  A    between atoms: C_8  and  N_9
REMARK    4  A    between atoms: C_10  and  C_12
REMARK    5  A    between atoms: C_17  and  S_18
REMARK    6  A    between atoms: S_18  and  N_21
REMARK    7  A    between atoms: N_21  and  C_22
REMARK    8  A    between atoms: C_22  and  C_23
REMARK                            x       y       z     vdW  Elec       q    Type
REMARK                         _______ _______ _______ _____ _____    ______ ____
ROOT
ATOM      1  C   UNL     1       2.064   7.419  18.966  0.00  0.00    +0.000 A 
ATOM      2  C   UNL     1       1.710   7.083  20.287  0.00  0.00    +0.000 A 
ATOM      3  C   UNL     1       1.897   5.796  20.790  0.00  0.00    +0.000 A 
ATOM      4  C   UNL     1       2.454   4.800  19.988  0.00  0.00    +0.000 A 
ATOM      5 CL   UNL     1       2.555   3.242  20.720  0.00  0.00    +0.000 Cl
ATOM      6  C   UNL     1       2.876   5.127  18.696  0.00  0.00    +0.000 A 
ATOM      7  C   UNL     1       2.668   6.437  18.178  0.00  0.00    +0.000 A 
ENDROOT
BRANCH   1   9
ATOM      8  N   UNL     1       1.161   9.719  19.418  0.00  0.00    +0.000 N 
ATOM      9  C   UNL     1       1.794   8.832  18.552  0.00  0.00    +0.000 C 
ATOM     10  O   UNL     1       2.196   9.133  17.429  0.00  0.00    +0.000 OA
ATOM     11  H   UNL     1       1.098   9.521  20.411  0.00  0.00    +0.000 HD
BRANCH   8  17
ATOM     12  C   UNL     1      -0.586  11.265  18.602  0.00  0.00    +0.000 A 
ATOM     13  C   UNL     1      -0.978  12.566  18.231  0.00  0.00    +0.000 A 
ATOM     14  C   UNL     1      -0.087  13.636  18.312  0.00  0.00    +0.000 A 
ATOM     15  C   UNL     1       1.209  13.418  18.741  0.00  0.00    +0.000 A 
ATOM     16  C   UNL     1       1.618  12.128  19.083  0.00  0.00    +0.000 A 
ATOM     17  C   UNL     1       0.736  11.035  19.040  0.00  0.00    +0.000 A 
BRANCH  12  19
ATOM     18  C   UNL     1      -2.021   9.918  17.275  0.00  0.00    +0.000 C 
ATOM     19  O   UNL     1      -1.438  10.183  18.554  0.00  0.00    +0.000 OA
ENDBRANCH  12  19
ENDBRANCH   8  17
ENDBRANCH   1   9
BRANCH   6  20
ATOM     20  S   UNL     1       3.635   3.935  17.609  0.00  0.00    +0.000 S 
ATOM     21  O   UNL     1       4.555   3.107  18.349  0.00  0.00    +0.000 OA
ATOM     22  O   UNL     1       2.553   3.344  16.848  0.00  0.00    +0.000 OA
BRANCH  20  23
ATOM     23  N   UNL     1       4.487   4.893  16.515  0.00  0.00    +0.000 NA
ATOM     24  H   UNL     1       4.319   5.892  16.640  0.00  0.00    +0.000 HD
BRANCH  23  25
ATOM     25  C   UNL     1       5.904   4.572  16.314  0.00  0.00    +0.000 C 
BRANCH  25  26
ATOM     26  C   UNL     1       6.722   5.536  17.094  0.00  0.00    +0.000 A 
ATOM     27  C   UNL     1       7.420   5.451  18.281  0.00  0.00    +0.000 A 
ATOM     28  C   UNL     1       7.943   6.743  18.529  0.00  0.00    +0.000 A 
ATOM     29  C   UNL     1       7.542   7.529  17.476  0.00  0.00    +0.000 A 
ATOM     30  O   UNL     1       6.809   6.804  16.592  0.00  0.00    +0.000 OA
ENDBRANCH  25  26
ENDBRANCH  23  25
ENDBRANCH  20  23
ENDBRANCH   6  20
TORSDOF 7
ENDMDL
MODEL 2
REMARK VINA RESULT:      -7.9      1.377      2.045
REMARK  Name = 
REMARK  8 active torsions:
REMARK  status: ('A' for Active; 'I' for Inactive)
REMARK    1  A    between atoms: C_1  and  O_2
REMARK    2  A    between atoms: O_2  and  C_3
REMARK    3  A    between atoms: C_8  and  N_9
REMARK    4  A    between atoms: C_10  and  C_12
REMARK    5  A    between atoms: C_17  and  S_18
REMARK    6  A    between atoms: S_18  and  N_21
REMARK    7  A    between atoms: N_21  and  C_22
REMARK    8  A    between atoms: C_22  and  C_23
REMARK                            x       y       z     vdW  Elec       q    Type
REMARK                         _______ _______ _______ _____ _____    ______ ____
ROOT
ATOM      1  C   UNL     1       2.309   7.366  19.017  0.00  0.00    +0.000 A 
ATOM      2  C   UNL     1       1.724   6.916  20.216  0.00  0.00    +0.000 A 
ATOM      3  C   UNL     1       1.983   5.645  20.725  0.00  0.00    +0.000 A 
ATOM      4  C   UNL     1       2.844   4.778  20.053  0.00  0.00    +0.000 A 
ATOM      5 CL   UNL     1       3.010   3.215  20.759  0.00  0.00    +0.000 Cl
ATOM      6  C   UNL     1       3.490   5.227  18.897  0.00  0.00    +0.000 A 
ATOM      7  C   UNL     1       3.212   6.520  18.369  0.00  0.00    +0.000 A 
ENDROOT
BRANCH   1   9
ATOM      8  N   UNL     1       1.267   9.611  19.442  0.00  0.00    +0.000 N 
ATOM      9  C   UNL     1       1.932   8.747  18.578  0.00  0.00    +0.000 C 
ATOM     10  O   UNL     1       2.280   9.045  17.436  0.00  0.00    +0.000 OA
ATOM     11  H   UNL     1       1.247   9.436  20.441  0.00  0.00    +0.000 HD
BRANCH   8  17
ATOM     12  C   UNL     1      -0.599  11.014  18.632  0.00  0.00    +0.000 A 
ATOM     13  C   UNL     1      -1.089  12.276  18.243  0.00  0.00    +0.000 A 
ATOM     14  C   UNL     1      -0.274  13.407  18.284  0.00  0.00    +0.000 A 
ATOM     15  C   UNL     1       1.042  13.289  18.690  0.00  0.00    +0.000 A 
ATOM     16  C   UNL     1       1.548  12.039  19.049  0.00  0.00    +0.000 A 
ATOM     17  C   UNL     1       0.744  10.886  19.046  0.00  0.00    +0.000 A 
BRANCH  12  19
ATOM     18  C   UNL     1      -2.542   9.934  17.801  0.00  0.00    +0.000 C 
ATOM     19  O   UNL     1      -1.374   9.874  18.624  0.00  0.00    +0.000 OA
ENDBRANCH  12  19
ENDBRANCH   8  17
ENDBRANCH   1   9
BRANCH   6  20
ATOM     20  S   UNL     1       4.640   4.210  17.989  0.00  0.00    +0.000 S 
ATOM     21  O   UNL     1       5.896   4.135  18.693  0.00  0.00    +0.000 OA
ATOM     22  O   UNL     1       3.914   3.006  17.637  0.00  0.00    +0.000 OA
BRANCH  20  23
ATOM     23  N   UNL     1       4.848   5.052  16.544  0.00  0.00    +0.000 NA
ATOM     24  H   UNL     1       4.186   5.820  16.428  0.00  0.00    +0.000 HD
BRANCH  23  25
ATOM     25  C   UNL     1       6.221   5.419  16.181  0.00  0.00    +0.000 C 
BRANCH  25  26
ATOM     26  C   UNL     1       6.485   4.945  14.798  0.00  0.00    +0.000 A 
ATOM     27  C   UNL     1       5.839   4.067  13.953  0.00  0.00    +0.000 A 
ATOM     28  C   UNL     1       6.629   3.988  12.780  0.00  0.00    +0.000 A 
ATOM     29  C   UNL     1       7.698   4.829  12.980  0.00  0.00    +0.000 A 
ATOM     30  O   UNL     1       7.614   5.425  14.197  0.00  0.00    +0.000 OA
ENDBRANCH  25  26
ENDBRANCH  23  25
ENDBRANCH  20  23
ENDBRANCH   6  20
TORSDOF 7
ENDMDL
MODEL 3
REMARK VINA RESULT:      -7.8      2.777      4.500
REMARK  Name = 
REMARK  8 active torsions:
REMARK  status: ('A' for Active; 'I' for Inactive)
REMARK    1  A    between atoms: C_1  and  O_2
REMARK    2  A    between atoms: O_2  and  C_3
REMARK    3  A    between atoms: C_8  and  N_9
REMARK    4  A    between atoms: C_10  and  C_12
REMARK    5  A    between atoms: C_17  and  S_18
REMARK    6  A    between atoms: S_18  and  N_21
REMARK    7  A    between atoms: N_21  and  C_22
REMARK    8  A    between atoms: C_22  and  C_23
REMARK                            x       y       z     vdW  Elec       q    Type
REMARK                         _______ _______ _______ _____ _____    ______ ____
ROOT
ATOM      1  C   UNL     1       2.838   7.081  18.976  0.00  0.00    +0.000 A 
ATOM      2  C   UNL     1       2.944   7.854  17.804  0.00  0.00    +0.000 A 
ATOM      3  C   UNL     1       3.814   7.504  16.772  0.00  0.00    +0.000 A 
ATOM      4  C   UNL     1       4.607   6.361  16.876  0.00  0.00    +0.000 A 
ATOM      5 CL   UNL     1       5.687   6.096  15.559  0.00  0.00    +0.000 Cl
ATOM      6  C   UNL     1       4.469   5.542  18.001  0.00  0.00    +0.000 A 
ATOM      7  C   UNL     1       3.593   5.909  19.061  0.00  0.00    +0.000 A 
ENDROOT
BRANCH   1   9
ATOM      8  N   UNL     1       1.437   8.901  19.992  0.00  0.00    +0.000 N 
ATOM      9  C   UNL     1       1.876   7.581  20.009  0.00  0.00    +0.000 C 
ATOM     10  O   UNL     1       1.501   6.739  20.825  0.00  0.00    +0.000 OA
ATOM     11  H   UNL     1       1.545   9.476  19.163  0.00  0.00    +0.000 HD
BRANCH   8  17
ATOM     12  C   UNL     1      -0.250  10.547  20.739  0.00  0.00    +0.000 A 
ATOM     13  C   UNL     1      -1.020  11.109  21.775  0.00  0.00    +0.000 A 
ATOM     14  C   UNL     1      -0.937  10.623  23.080  0.00  0.00    +0.000 A 
ATOM     15  C   UNL     1      -0.069   9.586  23.370  0.00  0.00    +0.000 A 
ATOM     16  C   UNL     1       0.721   9.039  22.358  0.00  0.00    +0.000 A 
ATOM     17  C   UNL     1       0.638   9.488  21.029  0.00  0.00    +0.000 A 
BRANCH  12  19
ATOM     18  C   UNL     1      -1.525  10.667  18.741  0.00  0.00    +0.000 C 
ATOM     19  O   UNL     1      -0.314  10.985  19.434  0.00  0.00    +0.000 OA
ENDBRANCH  12  19
ENDBRANCH   8  17
ENDBRANCH   1   9
BRANCH   6  20
ATOM     20  S   UNL     1       5.407   4.040  18.207  0.00  0.00    +0.000 S 
ATOM     21  O   UNL     1       5.007   3.068  17.220  0.00  0.00    +0.000 OA
ATOM     22  O   UNL     1       6.793   4.448  18.327  0.00  0.00    +0.000 OA
BRANCH  20  23
ATOM     23  N   UNL     1       4.958   3.508  19.742  0.00  0.00    +0.000 NA
ATOM     24  H   UNL     1       4.554   4.245  20.321  0.00  0.00    +0.000 HD
BRANCH  23  25
ATOM     25  C   UNL     1       4.210   2.248  19.816  0.00  0.00    +0.000 C 
BRANCH  25  26
ATOM     26  C   UNL     1       2.758   2.559  19.787  0.00  0.00    +0.000 A 
ATOM     27  C   UNL     1       1.882   3.101  20.704  0.00  0.00    +0.000 A 
ATOM     28  C   UNL     1       0.603   3.080  20.095  0.00  0.00    +0.000 A 
ATOM     29  C   UNL     1       0.783   2.537  18.845  0.00  0.00    +0.000 A 
ATOM     30  O   UNL     1       2.089   2.228  18.642  0.00  0.00    +0.000 OA
ENDBRANCH  25  26
ENDBRANCH  23  25
ENDBRANCH  20  23
ENDBRANCH   6  20
TORSDOF 7
ENDMDL
MODEL 4
REMARK VINA RESULT:      -7.6      2.205      3.361
REMARK  Name = 
REMARK  8 active torsions:
REMARK  status: ('A' for Active; 'I' for Inactive)
REMARK    1  A    between atoms: C_1  and  O_2
REMARK    2  A    between atoms: O_2  and  C_3
REMARK    3  A    between atoms: C_8  and  N_9
REMARK    4  A    between atoms: C_10  and  C_12
REMARK    5  A    between atoms: C_17  and  S_18
REMARK    6  A    between atoms: S_18  and  N_21
REMARK    7  A    between atoms: N_21  and  C_22
REMARK    8  A    between atoms: C_22  and  C_23
REMARK                            x       y       z     vdW  Elec       q    Type
REMARK                         _______ _______ _______ _____ _____    ______ ____
ROOT
ATOM      1  C   UNL     1       2.903   7.473  18.348  0.00  0.00    +0.000 A 
ATOM      2  C   UNL     1       2.360   6.487  19.194  0.00  0.00    +0.000 A 
ATOM      3  C   UNL     1       3.044   5.306  19.476  0.00  0.00    +0.000 A 
ATOM      4  C   UNL     1       4.304   5.073  18.924  0.00  0.00    +0.000 A 
ATOM      5 CL   UNL     1       4.996   3.540  19.301  0.00  0.00    +0.000 Cl
ATOM      6  C   UNL     1       4.893   6.066  18.137  0.00  0.00    +0.000 A 
ATOM      7  C   UNL     1       4.186   7.265  17.836  0.00  0.00    +0.000 A 
ENDROOT
BRANCH   1   9
ATOM      8  N   UNL     1       1.035   9.017  19.007  0.00  0.00    +0.000 N 
ATOM      9  C   UNL     1       2.054   8.685  18.119  0.00  0.00    +0.000 C 
ATOM     10  O   UNL     1       2.349   9.350  17.127  0.00  0.00    +0.000 OA
ATOM     11  H   UNL     1       1.003   8.615  19.938  0.00  0.00    +0.000 HD
BRANCH   8  17
ATOM     12  C   UNL     1       0.184  11.289  19.482  0.00  0.00    +0.000 A 
ATOM     13  C   UNL     1      -0.759  12.306  19.240  0.00  0.00    +0.000 A 
ATOM     14  C   UNL     1      -1.772  12.139  18.297  0.00  0.00    +0.000 A 
ATOM     15  C   UNL     1      -1.870  10.948  17.600  0.00  0.00    +0.000 A 
ATOM     16  C   UNL     1      -0.959   9.921  17.852  0.00  0.00    +0.000 A 
ATOM     17  C   UNL     1       0.089  10.070  18.775  0.00  0.00    +0.000 A 
BRANCH  12  19
ATOM     18  C   UNL     1       1.766  12.732  20.504  0.00  0.00    +0.000 C 
ATOM     19  O   UNL     1       1.211  11.419  20.392  0.00  0.00    +0.000 OA
ENDBRANCH  12  19
ENDBRANCH   8  17
ENDBRANCH   1   9
BRANCH   6  20
ATOM     20  S   UNL     1       6.515   5.880  17.421  0.00  0.00    +0.000 S 
ATOM     21  O   UNL     1       6.815   7.010  16.577  0.00  0.00    +0.000 OA
ATOM     22  O   UNL     1       7.394   5.517  18.515  0.00  0.00    +0.000 OA
BRANCH  20  23
ATOM     23  N   UNL     1       6.368   4.491  16.478  0.00  0.00    +0.000 NA
ATOM     24  H   UNL     1       6.319   3.634  17.030  0.00  0.00    +0.000 HD
BRANCH  23  25
ATOM     25  C   UNL     1       5.386   4.528  15.389  0.00  0.00    +0.000 C 
BRANCH  25  26
ATOM     26  C   UNL     1       6.110   4.416  14.097  0.00  0.00    +0.000 A 
ATOM     27  C   UNL     1       5.977   3.592  12.999  0.00  0.00    +0.000 A 
ATOM     28  C   UNL     1       7.021   3.941  12.108  0.00  0.00    +0.000 A 
ATOM     29  C   UNL     1       7.716   4.961  12.713  0.00  0.00    +0.000 A 
ATOM     30  O   UNL     1       7.165   5.266  13.916  0.00  0.00    +0.000 OA
ENDBRANCH  25  26
ENDBRANCH  23  25
ENDBRANCH  20  23
ENDBRANCH   6  20
TORSDOF 7
ENDMDL
MODEL 5
REMARK VINA RESULT:      -7.6      2.135      2.979
REMARK  Name = 
REMARK  8 active torsions:
REMARK  status: ('A' for Active; 'I' for Inactive)
REMARK    1  A    between atoms: C_1  and  O_2
REMARK    2  A    between atoms: O_2  and  C_3
REMARK    3  A    between atoms: C_8  and  N_9
REMARK    4  A    between atoms: C_10  and  C_12
REMARK    5  A    between atoms: C_17  and  S_18
REMARK    6  A    between atoms: S_18  and  N_21
REMARK    7  A    between atoms: N_21  and  C_22
REMARK    8  A    between atoms: C_22  and  C_23
REMARK                            x       y       z     vdW  Elec       q    Type
REMARK                         _______ _______ _______ _____ _____    ______ ____
ROOT
ATOM      1  C   UNL     1       2.425   6.906  18.407  0.00  0.00    +0.000 A 
ATOM      2  C   UNL     1       1.431   6.051  17.895  0.00  0.00    +0.000 A 
ATOM      3  C   UNL     1       1.665   4.691  17.699  0.00  0.00    +0.000 A 
ATOM      4  C   UNL     1       2.905   4.136  18.016  0.00  0.00    +0.000 A 
ATOM      5 CL   UNL     1       3.073   2.460  17.650  0.00  0.00    +0.000 Cl
ATOM      6  C   UNL     1       3.885   4.952  18.589  0.00  0.00    +0.000 A 
ATOM      7  C   UNL     1       3.650   6.344  18.773  0.00  0.00    +0.000 A 
ENDROOT
BRANCH   1   9
ATOM      8  N   UNL     1       1.295   8.778  19.643  0.00  0.00    +0.000 N 
ATOM      9  C   UNL     1       2.044   8.347  18.553  0.00  0.00    +0.000 C 
ATOM     10  O   UNL     1       2.465   9.091  17.667  0.00  0.00    +0.000 OA
ATOM     11  H   UNL     1       1.208   8.204  20.475  0.00  0.00    +0.000 HD
BRANCH   8  17
ATOM     12  C   UNL     1       0.726  10.742  21.032  0.00  0.00    +0.000 A 
ATOM     13  C   UNL     1       0.200  12.044  21.134  0.00  0.00    +0.000 A 
ATOM     14  C   UNL     1      -0.261  12.725  20.007  0.00  0.00    +0.000 A 
ATOM     15  C   UNL     1      -0.223  12.106  18.770  0.00  0.00    +0.000 A 
ATOM     16  C   UNL     1       0.269  10.805  18.661  0.00  0.00    +0.000 A 
ATOM     17  C   UNL     1       0.767  10.105  19.773  0.00  0.00    +0.000 A 
BRANCH  12  19
ATOM     18  C   UNL     1       0.212   9.479  22.974  0.00  0.00    +0.000 C 
ATOM     19  O   UNL     1       1.209  10.042  22.116  0.00  0.00    +0.000 OA
ENDBRANCH  12  19
ENDBRANCH   8  17
ENDBRANCH   1   9
BRANCH   6  20
ATOM     20  S   UNL     1       5.486   4.329  19.066  0.00  0.00    +0.000 S 
ATOM     21  O   UNL     1       6.289   5.395  19.611  0.00  0.00    +0.000 OA
ATOM     22  O   UNL     1       5.232   3.125  19.832  0.00  0.00    +0.000 OA
BRANCH  20  23
ATOM     23  N   UNL     1       6.151   3.806  17.608  0.00  0.00    +0.000 NA
ATOM     24  H   UNL     1       5.453   3.450  16.953  0.00  0.00    +0.000 HD
BRANCH  23  25
ATOM     25  C   UNL     1       7.136   4.687  16.973  0.00  0.00    +0.000 C 
BRANCH  25  26
ATOM     26  C   UNL     1       6.985   4.579  15.499  0.00  0.00    +0.000 A 
ATOM     27  C   UNL     1       6.222   3.776  14.677  0.00  0.00    +0.000 A 
ATOM     28  C   UNL     1       6.576   4.115  13.348  0.00  0.00    +0.000 A 
ATOM     29  C   UNL     1       7.521   5.109  13.444  0.00  0.00    +0.000 A 
ATOM     30  O   UNL     1       7.769   5.407  14.746  0.00  0.00    +0.000 OA
ENDBRANCH  25  26
ENDBRANCH  23  25
ENDBRANCH  20  23
ENDBRANCH   6  20
TORSDOF 7
ENDMDL
MODEL 6
REMARK VINA RESULT:      -7.5      2.331      3.280
REMARK  Name = 
REMARK  8 active torsions:
REMARK  status: ('A' for Active; 'I' for Inactive)
REMARK    1  A    between atoms: C_1  and  O_2
REMARK    2  A    between atoms: O_2  and  C_3
REMARK    3  A    between atoms: C_8  and  N_9
REMARK    4  A    between atoms: C_10  and  C_12
REMARK    5  A    between atoms: C_17  and  S_18
REMARK    6  A    between atoms: S_18  and  N_21
REMARK    7  A    between atoms: N_21  and  C_22
REMARK    8  A    between atoms: C_22  and  C_23
REMARK                            x       y       z     vdW  Elec       q    Type
REMARK                         _______ _______ _______ _____ _____    ______ ____
ROOT
ATOM      1  C   UNL     1       2.526   7.508  18.819  0.00  0.00    +0.000 A 
ATOM      2  C   UNL     1       2.186   6.550  19.794  0.00  0.00    +0.000 A 
ATOM      3  C   UNL     1       2.894   5.357  19.926  0.00  0.00    +0.000 A 
ATOM      4  C   UNL     1       3.975   5.082  19.088  0.00  0.00    +0.000 A 
ATOM      5 CL   UNL     1       4.707   3.538  19.318  0.00  0.00    +0.000 Cl
ATOM      6  C   UNL     1       4.374   6.048  18.159  0.00  0.00    +0.000 A 
ATOM      7  C   UNL     1       3.639   7.259  18.014  0.00  0.00    +0.000 A 
ENDROOT
BRANCH   1   9
ATOM      8  N   UNL     1       0.868   9.081  19.861  0.00  0.00    +0.000 N 
ATOM      9  C   UNL     1       1.671   8.737  18.778  0.00  0.00    +0.000 C 
ATOM     10  O   UNL     1       1.766   9.405  17.749  0.00  0.00    +0.000 OA
ATOM     11  H   UNL     1       1.024   8.673  20.777  0.00  0.00    +0.000 HD
BRANCH   8  17
ATOM     12  C   UNL     1      -0.307  10.941  20.987  0.00  0.00    +0.000 A 
ATOM     13  C   UNL     1      -1.251  11.986  20.940  0.00  0.00    +0.000 A 
ATOM     14  C   UNL     1      -1.952  12.270  19.768  0.00  0.00    +0.000 A 
ATOM     15  C   UNL     1      -1.737  11.502  18.638  0.00  0.00    +0.000 A 
ATOM     16  C   UNL     1      -0.826  10.446  18.680  0.00  0.00    +0.000 A 
ATOM     17  C   UNL     1      -0.084  10.153  19.837  0.00  0.00    +0.000 A 
BRANCH  12  19
ATOM     18  C   UNL     1      -0.268   9.854  23.097  0.00  0.00    +0.000 C 
ATOM     19  O   UNL     1       0.420  10.638  22.118  0.00  0.00    +0.000 OA
ENDBRANCH  12  19
ENDBRANCH   8  17
ENDBRANCH   1   9
BRANCH   6  20
ATOM     20  S   UNL     1       5.768   5.809  17.073  0.00  0.00    +0.000 S 
ATOM     21  O   UNL     1       6.155   7.066  16.483  0.00  0.00    +0.000 OA
ATOM     22  O   UNL     1       6.722   5.013  17.819  0.00  0.00    +0.000 OA
BRANCH  20  23
ATOM     23  N   UNL     1       5.160   4.786  15.879  0.00  0.00    +0.000 NA
ATOM     24  H   UNL     1       4.685   5.284  15.126  0.00  0.00    +0.000 HD
BRANCH  23  25
ATOM     25  C   UNL     1       6.053   3.729  15.392  0.00  0.00    +0.000 C 
BRANCH  25  26
ATOM     26  C   UNL     1       6.595   4.140  14.072  0.00  0.00    +0.000 A 
ATOM     27  C   UNL     1       6.396   3.696  12.781  0.00  0.00    +0.000 A 
ATOM     28  C   UNL     1       7.260   4.460  11.959  0.00  0.00    +0.000 A 
ATOM     29  C   UNL     1       7.921   5.327  12.797  0.00  0.00    +0.000 A 
ATOM     30  O   UNL     1       7.516   5.150  14.081  0.00  0.00    +0.000 OA
ENDBRANCH  25  26
ENDBRANCH  23  25
ENDBRANCH  20  23
ENDBRANCH   6  20
TORSDOF 7
ENDMDL
MODEL 7
REMARK VINA RESULT:      -7.5      2.453      3.365
REMARK  Name = 
REMARK  8 active torsions:
REMARK  status: ('A' for Active; 'I' for Inactive)
REMARK    1  A    between atoms: C_1  and  O_2
REMARK    2  A    between atoms: O_2  and  C_3
REMARK    3  A    between atoms: C_8  and  N_9
REMARK    4  A    between atoms: C_10  and  C_12
REMARK    5  A    between atoms: C_17  and  S_18
REMARK    6  A    between atoms: S_18  and  N_21
REMARK    7  A    between atoms: N_21  and  C_22
REMARK    8  A    between atoms: C_22  and  C_23
REMARK                            x       y       z     vdW  Elec       q    Type
REMARK                         _______ _______ _______ _____ _____    ______ ____
ROOT
ATOM      1  C   UNL     1       2.884   7.371  17.911  0.00  0.00    +0.000 A 
ATOM      2  C   UNL     1       2.183   6.191  18.225  0.00  0.00    +0.000 A 
ATOM      3  C   UNL     1       2.742   4.931  18.018  0.00  0.00    +0.000 A 
ATOM      4  C   UNL     1       4.030   4.809  17.494  0.00  0.00    +0.000 A 
ATOM      5 CL   UNL     1       4.560   3.191  17.223  0.00  0.00    +0.000 Cl
ATOM      6  C   UNL     1       4.770   5.967  17.240  0.00  0.00    +0.000 A 
ATOM      7  C   UNL     1       4.191   7.253  17.436  0.00  0.00    +0.000 A 
ENDROOT
BRANCH   1   9
ATOM      8  N   UNL     1       1.278   8.772  19.242  0.00  0.00    +0.000 N 
ATOM      9  C   UNL     1       2.158   8.656  18.170  0.00  0.00    +0.000 C 
ATOM     10  O   UNL     1       2.425   9.572  17.393  0.00  0.00    +0.000 OA
ATOM     11  H   UNL     1       1.295   8.104  20.005  0.00  0.00    +0.000 HD
BRANCH   8  17
ATOM     12  C   UNL     1       0.442  10.577  20.709  0.00  0.00    +0.000 A 
ATOM     13  C   UNL     1      -0.394  11.694  20.902  0.00  0.00    +0.000 A 
ATOM     14  C   UNL     1      -1.209  12.170  19.875  0.00  0.00    +0.000 A 
ATOM     15  C   UNL     1      -1.216  11.525  18.652  0.00  0.00    +0.000 A 
ATOM     16  C   UNL     1      -0.414  10.400  18.456  0.00  0.00    +0.000 A 
ATOM     17  C   UNL     1       0.439   9.914  19.462  0.00  0.00    +0.000 A 
BRANCH  12  19
ATOM     18  C   UNL     1       0.623   9.384  22.752  0.00  0.00    +0.000 C 
ATOM     19  O   UNL     1       1.275  10.085  21.690  0.00  0.00    +0.000 OA
ENDBRANCH  12  19
ENDBRANCH   8  17
ENDBRANCH   1   9
BRANCH   6  20
ATOM     20  S   UNL     1       6.437   5.915  16.609  0.00  0.00    +0.000 S 
ATOM     21  O   UNL     1       7.203   4.920  17.318  0.00  0.00    +0.000 OA
ATOM     22  O   UNL     1       6.316   5.869  15.166  0.00  0.00    +0.000 OA
BRANCH  20  23
ATOM     23  N   UNL     1       7.036   7.450  16.964  0.00  0.00    +0.000 NA
ATOM     24  H   UNL     1       6.319   8.176  16.942  0.00  0.00    +0.000 HD
BRANCH  23  25
ATOM     25  C   UNL     1       7.930   7.564  18.121  0.00  0.00    +0.000 C 
BRANCH  25  26
ATOM     26  C   UNL     1       8.360   8.980  18.248  0.00  0.00    +0.000 A 
ATOM     27  C   UNL     1       8.098  10.123  17.521  0.00  0.00    +0.000 A 
ATOM     28  C   UNL     1       8.864  11.156  18.113  0.00  0.00    +0.000 A 
ATOM     29  C   UNL     1       9.534  10.582  19.167  0.00  0.00    +0.000 A 
ATOM     30  O   UNL     1       9.226   9.263  19.266  0.00  0.00    +0.000 OA
ENDBRANCH  25  26
ENDBRANCH  23  25
ENDBRANCH  20  23
ENDBRANCH   6  20
TORSDOF 7
ENDMDL
MODEL 8
REMARK VINA RESULT:      -7.5      1.758      2.427
REMARK  Name = 
REMARK  8 active torsions:
REMARK  status: ('A' for Active; 'I' for Inactive)
REMARK    1  A    between atoms: C_1  and  O_2
REMARK    2  A    between atoms: O_2  and  C_3
REMARK    3  A    between atoms: C_8  and  N_9
REMARK    4  A    between atoms: C_10  and  C_12
REMARK    5  A    between atoms: C_17  and  S_18
REMARK    6  A    between atoms: S_18  and  N_21
REMARK    7  A    between atoms: N_21  and  C_22
REMARK    8  A    between atoms: C_22  and  C_23
REMARK                            x       y       z     vdW  Elec       q    Type
REMARK                         _______ _______ _______ _____ _____    ______ ____
ROOT
ATOM      1  C   UNL     1       2.231   7.136  19.357  0.00  0.00    +0.000 A 
ATOM      2  C   UNL     1       1.586   6.499  20.434  0.00  0.00    +0.000 A 
ATOM      3  C   UNL     1       1.915   5.201  20.822  0.00  0.00    +0.000 A 
ATOM      4  C   UNL     1       2.910   4.495  20.145  0.00  0.00    +0.000 A 
ATOM      5 CL   UNL     1       3.157   2.877  20.686  0.00  0.00    +0.000 Cl
ATOM      6  C   UNL     1       3.612   5.131  19.117  0.00  0.00    +0.000 A 
ATOM      7  C   UNL     1       3.263   6.451  18.711  0.00  0.00    +0.000 A 
ENDROOT
BRANCH   1   9
ATOM      8  N   UNL     1       1.463   9.422  20.058  0.00  0.00    +0.000 N 
ATOM      9  C   UNL     1       1.768   8.524  19.040  0.00  0.00    +0.000 C 
ATOM     10  O   UNL     1       1.714   8.796  17.840  0.00  0.00    +0.000 OA
ATOM     11  H   UNL     1       1.780   9.260  21.008  0.00  0.00    +0.000 HD
BRANCH   8  17
ATOM     12  C   UNL     1      -0.252  11.124  20.577  0.00  0.00    +0.000 A 
ATOM     13  C   UNL     1      -0.815  12.392  20.335  0.00  0.00    +0.000 A 
ATOM     14  C   UNL     1      -0.265  13.256  19.388  0.00  0.00    +0.000 A 
ATOM     15  C   UNL     1       0.839  12.856  18.657  0.00  0.00    +0.000 A 
ATOM     16  C   UNL     1       1.389  11.591  18.866  0.00  0.00    +0.000 A 
ATOM     17  C   UNL     1       0.874  10.710  19.833  0.00  0.00    +0.000 A 
BRANCH  12  19
ATOM     18  C   UNL     1      -0.847  10.764  22.846  0.00  0.00    +0.000 C 
ATOM     19  O   UNL     1      -0.753  10.248  21.515  0.00  0.00    +0.000 OA
ENDBRANCH  12  19
ENDBRANCH   8  17
ENDBRANCH   1   9
BRANCH   6  20
ATOM     20  S   UNL     1       4.927   4.328  18.220  0.00  0.00    +0.000 S 
ATOM     21  O   UNL     1       6.035   4.059  19.103  0.00  0.00    +0.000 OA
ATOM     22  O   UNL     1       4.301   3.259  17.468  0.00  0.00    +0.000 OA
BRANCH  20  23
ATOM     23  N   UNL     1       5.380   5.481  17.077  0.00  0.00    +0.000 NA
ATOM     24  H   UNL     1       5.082   6.426  17.320  0.00  0.00    +0.000 HD
BRANCH  23  25
ATOM     25  C   UNL     1       6.760   5.423  16.585  0.00  0.00    +0.000 C 
BRANCH  25  26
ATOM     26  C   UNL     1       6.741   4.939  15.181  0.00  0.00    +0.000 A 
ATOM     27  C   UNL     1       5.996   3.990  14.511  0.00  0.00    +0.000 A 
ATOM     28  C   UNL     1       6.501   3.948  13.188  0.00  0.00    +0.000 A 
ATOM     29  C   UNL     1       7.511   4.879  13.133  0.00  0.00    +0.000 A 
ATOM     30  O   UNL     1       7.657   5.496  14.334  0.00  0.00    +0.000 OA
ENDBRANCH  25  26
ENDBRANCH  23  25
ENDBRANCH  20  23
ENDBRANCH   6  20
TORSDOF 7
ENDMDL
MODEL 9
REMARK VINA RESULT:      -7.5      3.420      8.370
REMARK  Name = 
REMARK  8 active torsions:
REMARK  status: ('A' for Active; 'I' for Inactive)
REMARK    1  A    between atoms: C_1  and  O_2
REMARK    2  A    between atoms: O_2  and  C_3
REMARK    3  A    between atoms: C_8  and  N_9
REMARK    4  A    between atoms: C_10  and  C_12
REMARK    5  A    between atoms: C_17  and  S_18
REMARK    6  A    between atoms: S_18  and  N_21
REMARK    7  A    between atoms: N_21  and  C_22
REMARK    8  A    between atoms: C_22  and  C_23
REMARK                            x       y       z     vdW  Elec       q    Type
REMARK                         _______ _______ _______ _____ _____    ______ ____
ROOT
ATOM      1  C   UNL     1       1.414   9.183  19.284  0.00  0.00    +0.000 A 
ATOM      2  C   UNL     1       1.046   8.687  20.549  0.00  0.00    +0.000 A 
ATOM      3  C   UNL     1       0.383   9.481  21.482  0.00  0.00    +0.000 A 
ATOM      4  C   UNL     1       0.057  10.803  21.178  0.00  0.00    +0.000 A 
ATOM      5 CL   UNL     1      -0.694  11.686  22.454  0.00  0.00    +0.000 Cl
ATOM      6  C   UNL     1       0.352  11.297  19.903  0.00  0.00    +0.000 A 
ATOM      7  C   UNL     1       1.045  10.489  18.957  0.00  0.00    +0.000 A 
ENDROOT
BRANCH   1   9
ATOM      8  N   UNL     1       2.455   6.943  18.823  0.00  0.00    +0.000 N 
ATOM      9  C   UNL     1       2.136   8.226  18.386  0.00  0.00    +0.000 C 
ATOM     10  O   UNL     1       2.385   8.652  17.259  0.00  0.00    +0.000 OA
ATOM     11  H   UNL     1       1.999   6.541  19.636  0.00  0.00    +0.000 HD
BRANCH   8  17
ATOM     12  C   UNL     1       2.782   4.752  17.729  0.00  0.00    +0.000 A 
ATOM     13  C   UNL     1       3.605   3.869  17.002  0.00  0.00    +0.000 A 
ATOM     14  C   UNL     1       4.887   4.245  16.603  0.00  0.00    +0.000 A 
ATOM     15  C   UNL     1       5.372   5.495  16.943  0.00  0.00    +0.000 A 
ATOM     16  C   UNL     1       4.577   6.368  17.688  0.00  0.00    +0.000 A 
ATOM     17  C   UNL     1       3.271   6.029  18.080  0.00  0.00    +0.000 A 
BRANCH  12  19
ATOM     18  C   UNL     1       1.393   3.254  18.938  0.00  0.00    +0.000 C 
ATOM     19  O   UNL     1       1.504   4.428  18.127  0.00  0.00    +0.000 OA
ENDBRANCH  12  19
ENDBRANCH   8  17
ENDBRANCH   1   9
BRANCH   6  20
ATOM     20  S   UNL     1      -0.060  12.958  19.404  0.00  0.00    +0.000 S 
ATOM     21  O   UNL     1       0.078  13.859  20.522  0.00  0.00    +0.000 OA
ATOM     22  O   UNL     1       0.660  13.193  18.169  0.00  0.00    +0.000 OA
BRANCH  20  23
ATOM     23  N   UNL     1      -1.684  12.842  18.967  0.00  0.00    +0.000 NA
ATOM     24  H   UNL     1      -1.893  13.293  18.075  0.00  0.00    +0.000 HD
BRANCH  23  25
ATOM     25  C   UNL     1      -2.318  11.527  19.107  0.00  0.00    +0.000 C 
BRANCH  25  26
ATOM     26  C   UNL     1      -2.602  10.994  17.751  0.00  0.00    +0.000 A 
ATOM     27  C   UNL     1      -2.030  10.004  16.978  0.00  0.00    +0.000 A 
ATOM     28  C   UNL     1      -2.718  10.018  15.739  0.00  0.00    +0.000 A 
ATOM     29  C   UNL     1      -3.670  11.005  15.840  0.00  0.00    +0.000 A 
ATOM     30  O   UNL     1      -3.616  11.596  17.061  0.00  0.00    +0.000 OA
ENDBRANCH  25  26
ENDBRANCH  23  25
ENDBRANCH  20  23
ENDBRANCH   6  20
TORSDOF 7
ENDMDL
