MODEL 1
REMARK VINA RESULT:      -7.5      0.000      0.000
REMARK  Name = 
REMARK  11 active torsions:
REMARK  status: ('A' for Active; 'I' for Inactive)
REMARK    1  A    between atoms: C_1  and  C_2
REMARK    2  A    between atoms: C_4  and  C_5
REMARK    3  A    between atoms: C_5  and  C_6
REMARK    4  A    between atoms: C_5  and  C_7
REMARK    5  A    between atoms: C_5  and  C_8
REMARK    6  A    between atoms: C_10  and  C_11
REMARK    7  A    between atoms: N_13  and  C_14
REMARK    8  A    between atoms: C_14  and  C_15
REMARK    9  A    between atoms: C_14  and  C_19
REMARK   10  A    between atoms: C_15  and  C_16
REMARK   11  A    between atoms: C_16  and  O_18
REMARK                            x       y       z     vdW  Elec       q    Type
REMARK                         _______ _______ _______ _____ _____    ______ ____
ROOT
ATOM      1  C   UNL     1       2.349   8.176  17.954  0.00  0.00    +0.000 C 
ATOM      2  O   UNL     1       2.881   8.608  16.936  0.00  0.00    +0.000 OA
ATOM      3  N   UNL     1       2.581   6.899  18.404  0.00  0.00    +0.000 N 
ATOM      4  H   UNL     1       2.206   6.592  19.290  0.00  0.00    +0.000 HD
ENDROOT
BRANCH   1  10
ATOM      5  C   UNL     1       1.441   8.126  21.239  0.00  0.00    +0.000 C 
ATOM      6  C   UNL     1       1.089   8.977  20.081  0.00  0.00    +0.000 A 
ATOM      7  O   UNL     1       0.183   9.964  20.356  0.00  0.00    +0.000 OA
ATOM      8  C   UNL     1      -0.060  10.649  19.202  0.00  0.00    +0.000 A 
ATOM      9  C   UNL     1       0.707  10.110  18.195  0.00  0.00    +0.000 A 
ATOM     10  C   UNL     1       1.449   9.016  18.740  0.00  0.00    +0.000 A 
BRANCH   8  11
ATOM     11  C   UNL     1      -1.078  11.760  19.254  0.00  0.00    +0.000 C 
ATOM     12  C   UNL     1      -0.547  13.010  18.537  0.00  0.00    +0.000 C 
ATOM     13  C   UNL     1      -2.388  11.320  18.568  0.00  0.00    +0.000 C 
ATOM     14  C   UNL     1      -1.394  12.108  20.720  0.00  0.00    +0.000 C 
ENDBRANCH   8  11
ENDBRANCH   1  10
BRANCH   3  15
ATOM     15  C   UNL     1       3.455   5.968  17.707  0.00  0.00    +0.000 C 
BRANCH  15  16
ATOM     16  C   UNL     1       3.037   4.513  17.881  0.00  0.00    +0.000 A 
ATOM     17  C   UNL     1       3.986   3.494  17.672  0.00  0.00    +0.000 A 
ATOM     18  C   UNL     1       3.659   2.149  17.869  0.00  0.00    +0.000 A 
ATOM     19  C   UNL     1       2.374   1.801  18.276  0.00  0.00    +0.000 A 
ATOM     20  C   UNL     1       1.428   2.798  18.473  0.00  0.00    +0.000 A 
ATOM     21  F   UNL     1       0.191   2.463  18.862  0.00  0.00    +0.000 F 
ATOM     22  C   UNL     1       1.746   4.140  18.283  0.00  0.00    +0.000 A 
ENDBRANCH  15  16
BRANCH  15  23
ATOM     23  C   UNL     1       4.931   6.201  18.062  0.00  0.00    +0.000 C 
BRANCH  23  24
ATOM     24  C   UNL     1       5.724   6.805  16.930  0.00  0.00    +0.000 C 
ATOM     25  O   UNL     1       6.819   7.334  17.051  0.00  0.00    +0.000 OA
BRANCH  24  26
ATOM     26  O   UNL     1       5.065   6.779  15.749  0.00  0.00    +0.000 OA
ATOM     27  H   UNL     1       5.272   7.519  15.147  0.00  0.00    +0.000 HD
ENDBRANCH  24  26
ENDBRANCH  23  24
ENDBRANCH  15  23
ENDBRANCH   3  15
TORSDOF 7
ENDMDL
MODEL 2
REMARK VINA RESULT:      -7.4      2.659      7.398
REMARK  Name = 
REMARK  11 active torsions:
REMARK  status: ('A' for Active; 'I' for Inactive)
REMARK    1  A    between atoms: C_1  and  C_2
REMARK    2  A    between atoms: C_4  and  C_5
REMARK    3  A    between atoms: C_5  and  C_6
REMARK    4  A    between atoms: C_5  and  C_7
REMARK    5  A    between atoms: C_5  and  C_8
REMARK    6  A    between atoms: C_10  and  C_11
REMARK    7  A    between atoms: N_13  and  C_14
REMARK    8  A    between atoms: C_14  and  C_15
REMARK    9  A    between atoms: C_14  and  C_19
REMARK   10  A    between atoms: C_15  and  C_16
REMARK   11  A    between atoms: C_16  and  O_18
REMARK                            x       y       z     vdW  Elec       q    Type
REMARK                         _______ _______ _______ _____ _____    ______ ____
ROOT
ATOM      1  C   UNL     1       1.481   8.163  20.411  0.00  0.00    +0.000 C 
ATOM      2  O   UNL     1       1.473   8.512  21.588  0.00  0.00    +0.000 OA
ATOM      3  N   UNL     1       1.016   8.981  19.412  0.00  0.00    +0.000 N 
ATOM      4  H   UNL     1       1.112   8.713  18.443  0.00  0.00    +0.000 HD
ENDROOT
BRANCH   1  10
ATOM      5  C   UNL     1       3.532   7.161  17.880  0.00  0.00    +0.000 C 
ATOM      6  C   UNL     1       2.837   6.466  18.985  0.00  0.00    +0.000 A 
ATOM      7  O   UNL     1       3.026   5.111  19.012  0.00  0.00    +0.000 OA
ATOM      8  C   UNL     1       2.316   4.606  20.061  0.00  0.00    +0.000 A 
ATOM      9  C   UNL     1       1.689   5.641  20.714  0.00  0.00    +0.000 A 
ATOM     10  C   UNL     1       2.002   6.854  20.025  0.00  0.00    +0.000 A 
BRANCH   8  11
ATOM     11  C   UNL     1       2.334   3.110  20.255  0.00  0.00    +0.000 C 
ATOM     12  C   UNL     1       1.511   2.416  19.158  0.00  0.00    +0.000 C 
ATOM     13  C   UNL     1       3.780   2.578  20.193  0.00  0.00    +0.000 C 
ATOM     14  C   UNL     1       1.748   2.756  21.633  0.00  0.00    +0.000 C 
ENDBRANCH   8  11
ENDBRANCH   1  10
BRANCH   3  15
ATOM     15  C   UNL     1       0.471  10.305  19.671  0.00  0.00    +0.000 C 
BRANCH  15  16
ATOM     16  C   UNL     1      -0.822  10.577  18.913  0.00  0.00    +0.000 A 
ATOM     17  C   UNL     1      -1.704  11.568  19.388  0.00  0.00    +0.000 A 
ATOM     18  C   UNL     1      -2.877  11.884  18.696  0.00  0.00    +0.000 A 
ATOM     19  C   UNL     1      -3.190  11.211  17.518  0.00  0.00    +0.000 A 
ATOM     20  C   UNL     1      -2.334  10.224  17.049  0.00  0.00    +0.000 A 
ATOM     21  F   UNL     1      -2.635   9.575  15.917  0.00  0.00    +0.000 F 
ATOM     22  C   UNL     1      -1.161   9.905  17.729  0.00  0.00    +0.000 A 
ENDBRANCH  15  16
BRANCH  15  23
ATOM     23  C   UNL     1       1.521  11.404  19.452  0.00  0.00    +0.000 C 
BRANCH  23  24
ATOM     24  C   UNL     1       2.115  11.389  18.066  0.00  0.00    +0.000 C 
ATOM     25  O   UNL     1       2.465  10.382  17.468  0.00  0.00    +0.000 OA
BRANCH  24  26
ATOM     26  O   UNL     1       2.304  12.628  17.558  0.00  0.00    +0.000 OA
ATOM     27  H   UNL     1       1.941  12.764  16.663  0.00  0.00    +0.000 HD
ENDBRANCH  24  26
ENDBRANCH  23  24
ENDBRANCH  15  23
ENDBRANCH   3  15
TORSDOF 7
ENDMDL
MODEL 3
REMARK VINA RESULT:      -7.4      0.474      1.062
REMARK  Name = 
REMARK  11 active torsions:
REMARK  status: ('A' for Active; 'I' for Inactive)
REMARK    1  A    between atoms: C_1  and  C_2
REMARK    2  A    between atoms: C_4  and  C_5
REMARK    3  A    between atoms: C_5  and  C_6
REMARK    4  A    between atoms: C_5  and  C_7
REMARK    5  A    between atoms: C_5  and  C_8
REMARK    6  A    between atoms: C_10  and  C_11
REMARK    7  A    between atoms: N_13  and  C_14
REMARK    8  A    between atoms: C_14  and  C_15
REMARK    9  A    between atoms: C_14  and  C_19
REMARK   10  A    between atoms: C_15  and  C_16
REMARK   11  A    between atoms: C_16  and  O_18
REMARK                            x       y       z     vdW  Elec       q    Type
REMARK                         _______ _______ _______ _____ _____    ______ ____
ROOT
ATOM      1  C   UNL     1       2.448   8.163  17.971  0.00  0.00    +0.000 C 
ATOM      2  O   UNL     1       2.851   8.544  16.875  0.00  0.00    +0.000 OA
ATOM      3  N   UNL     1       2.748   6.914  18.457  0.00  0.00    +0.000 N 
ATOM      4  H   UNL     1       2.483   6.652  19.395  0.00  0.00    +0.000 HD
ENDROOT
BRANCH   1  10
ATOM      5  C   UNL     1       1.307   7.866  21.168  0.00  0.00    +0.000 C 
ATOM      6  C   UNL     1       1.178   8.897  20.116  0.00  0.00    +0.000 A 
ATOM      7  O   UNL     1       0.419   9.979  20.470  0.00  0.00    +0.000 OA
ATOM      8  C   UNL     1       0.371  10.828  19.405  0.00  0.00    +0.000 A 
ATOM      9  C   UNL     1       1.116  10.297  18.377  0.00  0.00    +0.000 A 
ATOM     10  C   UNL     1       1.636   9.038  18.812  0.00  0.00    +0.000 A 
BRANCH   8  11
ATOM     11  C   UNL     1      -0.462  12.077  19.550  0.00  0.00    +0.000 C 
ATOM     12  C   UNL     1      -1.430  11.943  20.736  0.00  0.00    +0.000 C 
ATOM     13  C   UNL     1       0.444  13.301  19.793  0.00  0.00    +0.000 C 
ATOM     14  C   UNL     1      -1.266  12.320  18.260  0.00  0.00    +0.000 C 
ENDBRANCH   8  11
ENDBRANCH   1  10
BRANCH   3  15
ATOM     15  C   UNL     1       3.545   5.952  17.712  0.00  0.00    +0.000 C 
BRANCH  15  16
ATOM     16  C   UNL     1       3.074   4.516  17.896  0.00  0.00    +0.000 A 
ATOM     17  C   UNL     1       3.977   3.460  17.662  0.00  0.00    +0.000 A 
ATOM     18  C   UNL     1       3.601   2.129  17.868  0.00  0.00    +0.000 A 
ATOM     19  C   UNL     1       2.314   1.831  18.308  0.00  0.00    +0.000 A 
ATOM     20  C   UNL     1       1.414   2.865  18.530  0.00  0.00    +0.000 A 
ATOM     21  F   UNL     1       0.176   2.579  18.952  0.00  0.00    +0.000 F 
ATOM     22  C   UNL     1       1.780   4.194  18.332  0.00  0.00    +0.000 A 
ENDBRANCH  15  16
BRANCH  15  23
ATOM     23  C   UNL     1       5.046   6.119  17.995  0.00  0.00    +0.000 C 
BRANCH  23  24
ATOM     24  C   UNL     1       5.826   6.593  16.794  0.00  0.00    +0.000 C 
ATOM     25  O   UNL     1       7.029   6.810  16.786  0.00  0.00    +0.000 OA
BRANCH  24  26
ATOM     26  O   UNL     1       5.045   6.837  15.717  0.00  0.00    +0.000 OA
ATOM     27  H   UNL     1       5.258   6.307  14.926  0.00  0.00    +0.000 HD
ENDBRANCH  24  26
ENDBRANCH  23  24
ENDBRANCH  15  23
ENDBRANCH   3  15
TORSDOF 7
ENDMDL
MODEL 4
REMARK VINA RESULT:      -7.4      2.734      7.323
REMARK  Name = 
REMARK  11 active torsions:
REMARK  status: ('A' for Active; 'I' for Inactive)
REMARK    1  A    between atoms: C_1  and  C_2
REMARK    2  A    between atoms: C_4  and  C_5
REMARK    3  A    between atoms: C_5  and  C_6
REMARK    4  A    between atoms: C_5  and  C_7
REMARK    5  A    between atoms: C_5  and  C_8
REMARK    6  A    between atoms: C_10  and  C_11
REMARK    7  A    between atoms: N_13  and  C_14
REMARK    8  A    between atoms: C_14  and  C_15
REMARK    9  A    between atoms: C_14  and  C_19
REMARK   10  A    between atoms: C_15  and  C_16
REMARK   11  A    between atoms: C_16  and  O_18
REMARK                            x       y       z     vdW  Elec       q    Type
REMARK                         _______ _______ _______ _____ _____    ______ ____
ROOT
ATOM      1  C   UNL     1       1.576   8.154  20.061  0.00  0.00    +0.000 C 
ATOM      2  O   UNL     1       1.255   8.112  21.246  0.00  0.00    +0.000 OA
ATOM      3  N   UNL     1       1.206   9.199  19.250  0.00  0.00    +0.000 N 
ATOM      4  H   UNL     1       1.553   9.260  18.304  0.00  0.00    +0.000 HD
ENDROOT
BRANCH   1  10
ATOM      5  C   UNL     1       1.929   4.848  20.810  0.00  0.00    +0.000 C 
ATOM      6  C   UNL     1       2.514   5.746  19.791  0.00  0.00    +0.000 A 
ATOM      7  O   UNL     1       3.418   5.147  18.957  0.00  0.00    +0.000 OA
ATOM      8  C   UNL     1       3.885   6.091  18.091  0.00  0.00    +0.000 A 
ATOM      9  C   UNL     1       3.265   7.289  18.360  0.00  0.00    +0.000 A 
ATOM     10  C   UNL     1       2.382   7.091  19.468  0.00  0.00    +0.000 A 
BRANCH   8  11
ATOM     11  C   UNL     1       4.944   5.665  17.105  0.00  0.00    +0.000 C 
ATOM     12  C   UNL     1       4.649   4.252  16.576  0.00  0.00    +0.000 C 
ATOM     13  C   UNL     1       4.984   6.637  15.908  0.00  0.00    +0.000 C 
ATOM     14  C   UNL     1       6.324   5.678  17.783  0.00  0.00    +0.000 C 
ENDBRANCH   8  11
ENDBRANCH   1  10
BRANCH   3  15
ATOM     15  C   UNL     1       0.402  10.315  19.724  0.00  0.00    +0.000 C 
BRANCH  15  16
ATOM     16  C   UNL     1      -0.852  10.544  18.890  0.00  0.00    +0.000 A 
ATOM     17  C   UNL     1      -1.810  11.479  19.328  0.00  0.00    +0.000 A 
ATOM     18  C   UNL     1      -2.950  11.756  18.569  0.00  0.00    +0.000 A 
ATOM     19  C   UNL     1      -3.154  11.100  17.358  0.00  0.00    +0.000 A 
ATOM     20  C   UNL     1      -2.221  10.168  16.923  0.00  0.00    +0.000 A 
ATOM     21  F   UNL     1      -2.418   9.535  15.760  0.00  0.00    +0.000 F 
ATOM     22  C   UNL     1      -1.080   9.888  17.671  0.00  0.00    +0.000 A 
ENDBRANCH  15  16
BRANCH  15  23
ATOM     23  C   UNL     1       1.241  11.590  19.885  0.00  0.00    +0.000 C 
BRANCH  23  24
ATOM     24  C   UNL     1       1.647  12.203  18.568  0.00  0.00    +0.000 C 
ATOM     25  O   UNL     1       1.316  13.315  18.184  0.00  0.00    +0.000 OA
BRANCH  24  26
ATOM     26  O   UNL     1       2.367  11.360  17.792  0.00  0.00    +0.000 OA
ATOM     27  H   UNL     1       3.090  11.781  17.290  0.00  0.00    +0.000 HD
ENDBRANCH  24  26
ENDBRANCH  23  24
ENDBRANCH  15  23
ENDBRANCH   3  15
TORSDOF 7
ENDMDL
MODEL 5
REMARK VINA RESULT:      -7.3      2.771      7.417
REMARK  Name = 
REMARK  11 active torsions:
REMARK  status: ('A' for Active; 'I' for Inactive)
REMARK    1  A    between atoms: C_1  and  C_2
REMARK    2  A    between atoms: C_4  and  C_5
REMARK    3  A    between atoms: C_5  and  C_6
REMARK    4  A    between atoms: C_5  and  C_7
REMARK    5  A    between atoms: C_5  and  C_8
REMARK    6  A    between atoms: C_10  and  C_11
REMARK    7  A    between atoms: N_13  and  C_14
REMARK    8  A    between atoms: C_14  and  C_15
REMARK    9  A    between atoms: C_14  and  C_19
REMARK   10  A    between atoms: C_15  and  C_16
REMARK   11  A    between atoms: C_16  and  O_18
REMARK                            x       y       z     vdW  Elec       q    Type
REMARK                         _______ _______ _______ _____ _____    ______ ____
ROOT
ATOM      1  C   UNL     1       1.476   8.669  19.600  0.00  0.00    +0.000 C 
ATOM      2  O   UNL     1       1.236   8.790  20.799  0.00  0.00    +0.000 OA
ATOM      3  N   UNL     1       0.994   9.562  18.674  0.00  0.00    +0.000 N 
ATOM      4  H   UNL     1       1.274   9.498  17.706  0.00  0.00    +0.000 HD
ENDROOT
BRANCH   1  10
ATOM      5  C   UNL     1       1.772   5.415  20.566  0.00  0.00    +0.000 C 
ATOM      6  C   UNL     1       2.408   6.246  19.522  0.00  0.00    +0.000 A 
ATOM      7  O   UNL     1       3.346   5.592  18.769  0.00  0.00    +0.000 OA
ATOM      8  C   UNL     1       3.858   6.479  17.869  0.00  0.00    +0.000 A 
ATOM      9  C   UNL     1       3.234   7.693  18.035  0.00  0.00    +0.000 A 
ATOM     10  C   UNL     1       2.300   7.568  19.111  0.00  0.00    +0.000 A 
BRANCH   8  11
ATOM     11  C   UNL     1       4.958   5.988  16.960  0.00  0.00    +0.000 C 
ATOM     12  C   UNL     1       6.325   6.127  17.647  0.00  0.00    +0.000 C 
ATOM     13  C   UNL     1       4.737   4.504  16.604  0.00  0.00    +0.000 C 
ATOM     14  C   UNL     1       4.957   6.803  15.655  0.00  0.00    +0.000 C 
ENDBRANCH   8  11
ENDBRANCH   1  10
BRANCH   3  15
ATOM     15  C   UNL     1       0.160  10.697  19.038  0.00  0.00    +0.000 C 
BRANCH  15  16
ATOM     16  C   UNL     1      -1.201  10.681  18.354  0.00  0.00    +0.000 A 
ATOM     17  C   UNL     1      -2.237  11.490  18.862  0.00  0.00    +0.000 A 
ATOM     18  C   UNL     1      -3.485  11.544  18.235  0.00  0.00    +0.000 A 
ATOM     19  C   UNL     1      -3.721  10.786  17.091  0.00  0.00    +0.000 A 
ATOM     20  C   UNL     1      -2.710   9.978  16.590  0.00  0.00    +0.000 A 
ATOM     21  F   UNL     1      -2.936   9.248  15.490  0.00  0.00    +0.000 F 
ATOM     22  C   UNL     1      -1.461   9.921  17.205  0.00  0.00    +0.000 A 
ENDBRANCH  15  16
BRANCH  15  23
ATOM     23  C   UNL     1       0.899  12.029  18.844  0.00  0.00    +0.000 C 
BRANCH  23  24
ATOM     24  C   UNL     1       1.647  12.477  20.075  0.00  0.00    +0.000 C 
ATOM     25  O   UNL     1       2.509  13.343  20.091  0.00  0.00    +0.000 OA
BRANCH  24  26
ATOM     26  O   UNL     1       1.327  11.761  21.178  0.00  0.00    +0.000 OA
ATOM     27  H   UNL     1       2.069  11.592  21.787  0.00  0.00    +0.000 HD
ENDBRANCH  24  26
ENDBRANCH  23  24
ENDBRANCH  15  23
ENDBRANCH   3  15
TORSDOF 7
ENDMDL
MODEL 6
REMARK VINA RESULT:      -7.3      2.694      7.621
REMARK  Name = 
REMARK  11 active torsions:
REMARK  status: ('A' for Active; 'I' for Inactive)
REMARK    1  A    between atoms: C_1  and  C_2
REMARK    2  A    between atoms: C_4  and  C_5
REMARK    3  A    between atoms: C_5  and  C_6
REMARK    4  A    between atoms: C_5  and  C_7
REMARK    5  A    between atoms: C_5  and  C_8
REMARK    6  A    between atoms: C_10  and  C_11
REMARK    7  A    between atoms: N_13  and  C_14
REMARK    8  A    between atoms: C_14  and  C_15
REMARK    9  A    between atoms: C_14  and  C_19
REMARK   10  A    between atoms: C_15  and  C_16
REMARK   11  A    between atoms: C_16  and  O_18
REMARK                            x       y       z     vdW  Elec       q    Type
REMARK                         _______ _______ _______ _____ _____    ______ ____
ROOT
ATOM      1  C   UNL     1       1.490   8.265  20.211  0.00  0.00    +0.000 C 
ATOM      2  O   UNL     1       1.512   8.670  21.370  0.00  0.00    +0.000 OA
ATOM      3  N   UNL     1       0.942   9.010  19.195  0.00  0.00    +0.000 N 
ATOM      4  H   UNL     1       1.013   8.700  18.237  0.00  0.00    +0.000 HD
ENDROOT
BRANCH   1  10
ATOM      5  C   UNL     1       3.591   7.272  17.717  0.00  0.00    +0.000 C 
ATOM      6  C   UNL     1       2.917   6.582  18.838  0.00  0.00    +0.000 A 
ATOM      7  O   UNL     1       3.157   5.236  18.904  0.00  0.00    +0.000 OA
ATOM      8  C   UNL     1       2.461   4.734  19.963  0.00  0.00    +0.000 A 
ATOM      9  C   UNL     1       1.792   5.762  20.585  0.00  0.00    +0.000 A 
ATOM     10  C   UNL     1       2.062   6.967  19.863  0.00  0.00    +0.000 A 
BRANCH   8  11
ATOM     11  C   UNL     1       2.535   3.246  20.199  0.00  0.00    +0.000 C 
ATOM     12  C   UNL     1       1.528   2.509  19.302  0.00  0.00    +0.000 C 
ATOM     13  C   UNL     1       3.950   2.722  19.880  0.00  0.00    +0.000 C 
ATOM     14  C   UNL     1       2.227   2.936  21.674  0.00  0.00    +0.000 C 
ENDBRANCH   8  11
ENDBRANCH   1  10
BRANCH   3  15
ATOM     15  C   UNL     1       0.340  10.315  19.416  0.00  0.00    +0.000 C 
BRANCH  15  16
ATOM     16  C   UNL     1      -0.960  10.511  18.646  0.00  0.00    +0.000 A 
ATOM     17  C   UNL     1      -1.904  11.444  19.115  0.00  0.00    +0.000 A 
ATOM     18  C   UNL     1      -3.087  11.691  18.412  0.00  0.00    +0.000 A 
ATOM     19  C   UNL     1      -3.347  11.006  17.229  0.00  0.00    +0.000 A 
ATOM     20  C   UNL     1      -2.428  10.075  16.765  0.00  0.00    +0.000 A 
ATOM     21  F   UNL     1      -2.678   9.414  15.628  0.00  0.00    +0.000 F 
ATOM     22  C   UNL     1      -1.244   9.825  17.456  0.00  0.00    +0.000 A 
ENDBRANCH  15  16
BRANCH  15  23
ATOM     23  C   UNL     1       1.344  11.452  19.173  0.00  0.00    +0.000 C 
BRANCH  23  24
ATOM     24  C   UNL     1       1.524  12.351  20.370  0.00  0.00    +0.000 C 
ATOM     25  O   UNL     1       1.953  13.494  20.325  0.00  0.00    +0.000 OA
BRANCH  24  26
ATOM     26  O   UNL     1       1.234  11.737  21.541  0.00  0.00    +0.000 OA
ATOM     27  H   UNL     1       1.707  12.090  22.317  0.00  0.00    +0.000 HD
ENDBRANCH  24  26
ENDBRANCH  23  24
ENDBRANCH  15  23
ENDBRANCH   3  15
TORSDOF 7
ENDMDL
MODEL 7
REMARK VINA RESULT:      -7.3      3.114      7.530
REMARK  Name = 
REMARK  11 active torsions:
REMARK  status: ('A' for Active; 'I' for Inactive)
REMARK    1  A    between atoms: C_1  and  C_2
REMARK    2  A    between atoms: C_4  and  C_5
REMARK    3  A    between atoms: C_5  and  C_6
REMARK    4  A    between atoms: C_5  and  C_7
REMARK    5  A    between atoms: C_5  and  C_8
REMARK    6  A    between atoms: C_10  and  C_11
REMARK    7  A    between atoms: N_13  and  C_14
REMARK    8  A    between atoms: C_14  and  C_15
REMARK    9  A    between atoms: C_14  and  C_19
REMARK   10  A    between atoms: C_15  and  C_16
REMARK   11  A    between atoms: C_16  and  O_18
REMARK                            x       y       z     vdW  Elec       q    Type
REMARK                         _______ _______ _______ _____ _____    ______ ____
ROOT
ATOM      1  C   UNL     1       1.507   8.467  19.768  0.00  0.00    +0.000 C 
ATOM      2  O   UNL     1       1.305   8.559  20.976  0.00  0.00    +0.000 OA
ATOM      3  N   UNL     1       0.990   9.376  18.878  0.00  0.00    +0.000 N 
ATOM      4  H   UNL     1       1.240   9.335  17.900  0.00  0.00    +0.000 HD
ENDROOT
BRANCH   1  10
ATOM      5  C   UNL     1       1.784   5.171  20.591  0.00  0.00    +0.000 C 
ATOM      6  C   UNL     1       2.422   6.042  19.581  0.00  0.00    +0.000 A 
ATOM      7  O   UNL     1       3.351   5.415  18.796  0.00  0.00    +0.000 OA
ATOM      8  C   UNL     1       3.866   6.336  17.933  0.00  0.00    +0.000 A 
ATOM      9  C   UNL     1       3.252   7.547  18.154  0.00  0.00    +0.000 A 
ATOM     10  C   UNL     1       2.321   7.382  19.228  0.00  0.00    +0.000 A 
BRANCH   8  11
ATOM     11  C   UNL     1       4.958   5.878  16.999  0.00  0.00    +0.000 C 
ATOM     12  C   UNL     1       6.329   5.969  17.687  0.00  0.00    +0.000 C 
ATOM     13  C   UNL     1       4.720   4.415  16.573  0.00  0.00    +0.000 C 
ATOM     14  C   UNL     1       4.963   6.754  15.734  0.00  0.00    +0.000 C 
ENDBRANCH   8  11
ENDBRANCH   1  10
BRANCH   3  15
ATOM     15  C   UNL     1       0.162  10.498  19.294  0.00  0.00    +0.000 C 
BRANCH  15  16
ATOM     16  C   UNL     1      -1.132  10.611  18.499  0.00  0.00    +0.000 A 
ATOM     17  C   UNL     1      -1.297   9.832  17.337  0.00  0.00    +0.000 A 
ATOM     18  C   UNL     1      -2.488   9.868  16.605  0.00  0.00    +0.000 A 
ATOM     19  C   UNL     1      -3.534  10.686  17.022  0.00  0.00    +0.000 A 
ATOM     20  C   UNL     1      -3.377  11.466  18.160  0.00  0.00    +0.000 A 
ATOM     21  F   UNL     1      -4.382  12.255  18.560  0.00  0.00    +0.000 F 
ATOM     22  C   UNL     1      -2.195  11.435  18.897  0.00  0.00    +0.000 A 
ENDBRANCH  15  16
BRANCH  15  23
ATOM     23  C   UNL     1       0.956  11.813  19.313  0.00  0.00    +0.000 C 
BRANCH  23  24
ATOM     24  C   UNL     1       1.402  12.216  20.696  0.00  0.00    +0.000 C 
ATOM     25  O   UNL     1       2.147  13.153  20.943  0.00  0.00    +0.000 OA
BRANCH  24  26
ATOM     26  O   UNL     1       0.954  11.380  21.661  0.00  0.00    +0.000 OA
ATOM     27  H   UNL     1       0.476  11.815  22.391  0.00  0.00    +0.000 HD
ENDBRANCH  24  26
ENDBRANCH  23  24
ENDBRANCH  15  23
ENDBRANCH   3  15
TORSDOF 7
ENDMDL
MODEL 8
REMARK VINA RESULT:      -7.3      1.766      2.298
REMARK  Name = 
REMARK  11 active torsions:
REMARK  status: ('A' for Active; 'I' for Inactive)
REMARK    1  A    between atoms: C_1  and  C_2
REMARK    2  A    between atoms: C_4  and  C_5
REMARK    3  A    between atoms: C_5  and  C_6
REMARK    4  A    between atoms: C_5  and  C_7
REMARK    5  A    between atoms: C_5  and  C_8
REMARK    6  A    between atoms: C_10  and  C_11
REMARK    7  A    between atoms: N_13  and  C_14
REMARK    8  A    between atoms: C_14  and  C_15
REMARK    9  A    between atoms: C_14  and  C_19
REMARK   10  A    between atoms: C_15  and  C_16
REMARK   11  A    between atoms: C_16  and  O_18
REMARK                            x       y       z     vdW  Elec       q    Type
REMARK                         _______ _______ _______ _____ _____    ______ ____
ROOT
ATOM      1  C   UNL     1       2.232   8.179  18.384  0.00  0.00    +0.000 C 
ATOM      2  O   UNL     1       2.533   8.162  17.193  0.00  0.00    +0.000 OA
ATOM      3  N   UNL     1       2.449   7.095  19.199  0.00  0.00    +0.000 N 
ATOM      4  H   UNL     1       2.278   7.159  20.192  0.00  0.00    +0.000 HD
ENDROOT
BRANCH   1  10
ATOM      5  C   UNL     1       0.447   8.657  21.247  0.00  0.00    +0.000 C 
ATOM      6  C   UNL     1       0.908   9.542  20.156  0.00  0.00    +0.000 A 
ATOM      7  O   UNL     1       0.533  10.852  20.289  0.00  0.00    +0.000 OA
ATOM      8  C   UNL     1       1.006  11.538  19.210  0.00  0.00    +0.000 A 
ATOM      9  C   UNL     1       1.700  10.671  18.399  0.00  0.00    +0.000 A 
ATOM     10  C   UNL     1       1.637   9.369  18.986  0.00  0.00    +0.000 A 
BRANCH   8  11
ATOM     11  C   UNL     1       0.664  13.005  19.117  0.00  0.00    +0.000 C 
ATOM     12  C   UNL     1       0.389  13.583  20.514  0.00  0.00    +0.000 C 
ATOM     13  C   UNL     1       1.832  13.788  18.484  0.00  0.00    +0.000 C 
ATOM     14  C   UNL     1      -0.580  13.194  18.232  0.00  0.00    +0.000 C 
ENDBRANCH   8  11
ENDBRANCH   1  10
BRANCH   3  15
ATOM     15  C   UNL     1       3.033   5.854  18.715  0.00  0.00    +0.000 C 
BRANCH  15  16
ATOM     16  C   UNL     1       2.241   4.621  19.130  0.00  0.00    +0.000 A 
ATOM     17  C   UNL     1       1.680   3.796  18.136  0.00  0.00    +0.000 A 
ATOM     18  C   UNL     1       0.988   2.628  18.471  0.00  0.00    +0.000 A 
ATOM     19  C   UNL     1       0.842   2.267  19.808  0.00  0.00    +0.000 A 
ATOM     20  C   UNL     1       1.382   3.080  20.795  0.00  0.00    +0.000 A 
ATOM     21  F   UNL     1       1.240   2.735  22.081  0.00  0.00    +0.000 F 
ATOM     22  C   UNL     1       2.076   4.243  20.471  0.00  0.00    +0.000 A 
ENDBRANCH  15  16
BRANCH  15  23
ATOM     23  C   UNL     1       4.521   5.746  19.080  0.00  0.00    +0.000 C 
BRANCH  23  24
ATOM     24  C   UNL     1       5.235   4.645  18.338  0.00  0.00    +0.000 C 
ATOM     25  O   UNL     1       5.404   4.615  17.128  0.00  0.00    +0.000 OA
BRANCH  24  26
ATOM     26  O   UNL     1       5.616   3.625  19.142  0.00  0.00    +0.000 OA
ATOM     27  H   UNL     1       5.328   3.705  20.071  0.00  0.00    +0.000 HD
ENDBRANCH  24  26
ENDBRANCH  23  24
ENDBRANCH  15  23
ENDBRANCH   3  15
TORSDOF 7
ENDMDL
MODEL 9
REMARK VINA RESULT:      -7.3      3.029      7.487
REMARK  Name = 
REMARK  11 active torsions:
REMARK  status: ('A' for Active; 'I' for Inactive)
REMARK    1  A    between atoms: C_1  and  C_2
REMARK    2  A    between atoms: C_4  and  C_5
REMARK    3  A    between atoms: C_5  and  C_6
REMARK    4  A    between atoms: C_5  and  C_7
REMARK    5  A    between atoms: C_5  and  C_8
REMARK    6  A    between atoms: C_10  and  C_11
REMARK    7  A    between atoms: N_13  and  C_14
REMARK    8  A    between atoms: C_14  and  C_15
REMARK    9  A    between atoms: C_14  and  C_19
REMARK   10  A    between atoms: C_15  and  C_16
REMARK   11  A    between atoms: C_16  and  O_18
REMARK                            x       y       z     vdW  Elec       q    Type
REMARK                         _______ _______ _______ _____ _____    ______ ____
ROOT
ATOM      1  C   UNL     1       1.476   8.261  20.414  0.00  0.00    +0.000 C 
ATOM      2  O   UNL     1       1.487   8.606  21.593  0.00  0.00    +0.000 OA
ATOM      3  N   UNL     1       0.999   9.087  19.426  0.00  0.00    +0.000 N 
ATOM      4  H   UNL     1       1.079   8.822  18.455  0.00  0.00    +0.000 HD
ENDROOT
BRANCH   1  10
ATOM      5  C   UNL     1       3.477   7.260  17.844  0.00  0.00    +0.000 C 
ATOM      6  C   UNL     1       2.799   6.564  18.959  0.00  0.00    +0.000 A 
ATOM      7  O   UNL     1       2.983   5.208  18.978  0.00  0.00    +0.000 OA
ATOM      8  C   UNL     1       2.290   4.702  20.037  0.00  0.00    +0.000 A 
ATOM      9  C   UNL     1       1.679   5.738  20.706  0.00  0.00    +0.000 A 
ATOM     10  C   UNL     1       1.984   6.952  20.014  0.00  0.00    +0.000 A 
BRANCH   8  11
ATOM     11  C   UNL     1       2.305   3.206  20.226  0.00  0.00    +0.000 C 
ATOM     12  C   UNL     1       1.819   2.837  21.636  0.00  0.00    +0.000 C 
ATOM     13  C   UNL     1       1.380   2.526  19.196  0.00  0.00    +0.000 C 
ATOM     14  C   UNL     1       3.732   2.669  20.021  0.00  0.00    +0.000 C 
ENDBRANCH   8  11
ENDBRANCH   1  10
BRANCH   3  15
ATOM     15  C   UNL     1       0.464  10.412  19.699  0.00  0.00    +0.000 C 
BRANCH  15  16
ATOM     16  C   UNL     1      -0.844  10.689  18.969  0.00  0.00    +0.000 A 
ATOM     17  C   UNL     1      -1.123  10.004  17.771  0.00  0.00    +0.000 A 
ATOM     18  C   UNL     1      -2.332  10.191  17.096  0.00  0.00    +0.000 A 
ATOM     19  C   UNL     1      -3.282  11.072  17.606  0.00  0.00    +0.000 A 
ATOM     20  C   UNL     1      -3.011  11.761  18.780  0.00  0.00    +0.000 A 
ATOM     21  F   UNL     1      -3.924  12.609  19.270  0.00  0.00    +0.000 F 
ATOM     22  C   UNL     1      -1.811  11.578  19.462  0.00  0.00    +0.000 A 
ENDBRANCH  15  16
BRANCH  15  23
ATOM     23  C   UNL     1       1.514  11.507  19.460  0.00  0.00    +0.000 C 
BRANCH  23  24
ATOM     24  C   UNL     1       2.101  11.473  18.071  0.00  0.00    +0.000 C 
ATOM     25  O   UNL     1       2.507  10.466  17.510  0.00  0.00    +0.000 OA
BRANCH  24  26
ATOM     26  O   UNL     1       2.213  12.701  17.514  0.00  0.00    +0.000 OA
ATOM     27  H   UNL     1       3.100  13.101  17.577  0.00  0.00    +0.000 HD
ENDBRANCH  24  26
ENDBRANCH  23  24
ENDBRANCH  15  23
ENDBRANCH   3  15
TORSDOF 7
ENDMDL
