MODEL 1
REMARK VINA RESULT:      -8.1      0.000      0.000
REMARK  Name = 
REMARK  7 active torsions:
REMARK  status: ('A' for Active; 'I' for Inactive)
REMARK    1  A    between atoms: C_1  and  C_2
REMARK    2  A    between atoms: C_2  and  C_3
REMARK    3  A    between atoms: C_2  and  C_4
REMARK    4  A    between atoms: C_5  and  C_6
REMARK    5  A    between atoms: C_9  and  O_10
REMARK    6  A    between atoms: O_10  and  C_11
REMARK    7  A    between atoms: C_19  and  C_20
REMARK                            x       y       z     vdW  Elec       q    Type
REMARK                         _______ _______ _______ _____ _____    ______ ____
ROOT
ATOM      1  C   UNL     1       4.448   5.951  18.119  0.00  0.00    +0.000 A 
ATOM      2  C   UNL     1       3.342   6.148  18.879  0.00  0.00    +0.000 A 
ATOM      3  N   UNL     1       2.818   5.185  19.727  0.00  0.00    +0.000 N 
ATOM      4  C   UNL     1       3.390   3.968  19.856  0.00  0.00    +0.000 A 
ATOM      5  C   UNL     1       3.147   2.846  20.611  0.00  0.00    +0.000 A 
ATOM      6  C   UNL     1       4.142   1.932  20.224  0.00  0.00    +0.000 A 
ATOM      7  N   UNL     1       4.968   2.425  19.298  0.00  0.00    +0.000 NA
ATOM      8  N   UNL     1       4.502   3.689  19.084  0.00  0.00    +0.000 N 
ATOM      9  C   UNL     1       5.098   4.587  18.182  0.00  0.00    +0.000 A 
ATOM     10  O   UNL     1       6.066   4.247  17.514  0.00  0.00    +0.000 OA
ATOM     11  H   UNL     1       2.001   5.469  20.272  0.00  0.00    +0.000 HD
ENDROOT
BRANCH   2  12
ATOM     12  C   UNL     1       2.593   7.418  18.854  0.00  0.00    +0.000 A 
ATOM     13  C   UNL     1       2.560   8.191  17.688  0.00  0.00    +0.000 A 
ATOM     14  C   UNL     1       1.814   9.372  17.651  0.00  0.00    +0.000 A 
ATOM     15  C   UNL     1       1.085   9.789  18.770  0.00  0.00    +0.000 A 
ATOM     16  C   UNL     1       1.168   9.052  19.950  0.00  0.00    +0.000 A 
ATOM     17  C   UNL     1       1.901   7.860  19.986  0.00  0.00    +0.000 A 
BRANCH  15  18
ATOM     18  O   UNL     1       0.394  10.949  18.605  0.00  0.00    +0.000 OA
BRANCH  18  19
ATOM     19  C   UNL     1      -1.020  10.905  18.454  0.00  0.00    +0.000 C 
ATOM     20  F   UNL     1      -1.484   9.783  17.864  0.00  0.00    +0.000 F 
ATOM     21  F   UNL     1      -1.597  11.024  19.670  0.00  0.00    +0.000 F 
ATOM     22  F   UNL     1      -1.407  11.958  17.699  0.00  0.00    +0.000 F 
ENDBRANCH  18  19
ENDBRANCH  15  18
ENDBRANCH   2  12
BRANCH   1  24
ATOM     23  C   UNL     1       6.530   7.319  17.645  0.00  0.00    +0.000 C 
ATOM     24  C   UNL     1       5.099   6.985  17.211  0.00  0.00    +0.000 C 
ATOM     25  C   UNL     1       5.034   6.582  15.737  0.00  0.00    +0.000 C 
ENDBRANCH   1  24
BRANCH   5  26
ATOM     26  C   UNL     1       2.114   2.658  21.569  0.00  0.00    +0.000 C 
ATOM     27  N   UNL     1       1.270   2.516  22.352  0.00  0.00    +0.000 NA
ENDBRANCH   5  26
TORSDOF 5
ENDMDL
MODEL 2
REMARK VINA RESULT:      -8.1      1.955      3.999
REMARK  Name = 
REMARK  7 active torsions:
REMARK  status: ('A' for Active; 'I' for Inactive)
REMARK    1  A    between atoms: C_1  and  C_2
REMARK    2  A    between atoms: C_2  and  C_3
REMARK    3  A    between atoms: C_2  and  C_4
REMARK    4  A    between atoms: C_5  and  C_6
REMARK    5  A    between atoms: C_9  and  O_10
REMARK    6  A    between atoms: O_10  and  C_11
REMARK    7  A    between atoms: C_19  and  C_20
REMARK                            x       y       z     vdW  Elec       q    Type
REMARK                         _______ _______ _______ _____ _____    ______ ____
ROOT
ATOM      1  C   UNL     1       3.006   5.251  18.892  0.00  0.00    +0.000 A 
ATOM      2  C   UNL     1       3.311   6.564  18.740  0.00  0.00    +0.000 A 
ATOM      3  N   UNL     1       4.577   7.019  18.404  0.00  0.00    +0.000 N 
ATOM      4  C   UNL     1       5.604   6.166  18.197  0.00  0.00    +0.000 A 
ATOM      5  C   UNL     1       6.922   6.291  17.828  0.00  0.00    +0.000 A 
ATOM      6  C   UNL     1       7.417   4.975  17.817  0.00  0.00    +0.000 A 
ATOM      7  N   UNL     1       6.491   4.070  18.145  0.00  0.00    +0.000 NA
ATOM      8  N   UNL     1       5.369   4.815  18.368  0.00  0.00    +0.000 N 
ATOM      9  C   UNL     1       4.132   4.255  18.726  0.00  0.00    +0.000 A 
ATOM     10  O   UNL     1       4.019   3.047  18.886  0.00  0.00    +0.000 OA
ATOM     11  H   UNL     1       4.669   8.031  18.286  0.00  0.00    +0.000 HD
ENDROOT
BRANCH   2  12
ATOM     12  C   UNL     1       2.308   7.627  18.935  0.00  0.00    +0.000 A 
ATOM     13  C   UNL     1       1.779   7.869  20.207  0.00  0.00    +0.000 A 
ATOM     14  C   UNL     1       0.861   8.904  20.400  0.00  0.00    +0.000 A 
ATOM     15  C   UNL     1       0.470   9.717  19.331  0.00  0.00    +0.000 A 
ATOM     16  C   UNL     1       0.949   9.437  18.052  0.00  0.00    +0.000 A 
ATOM     17  C   UNL     1       1.881   8.411  17.858  0.00  0.00    +0.000 A 
BRANCH  15  18
ATOM     18  O   UNL     1      -0.421  10.694  19.648  0.00  0.00    +0.000 OA
BRANCH  18  19
ATOM     19  C   UNL     1      -1.558  10.899  18.817  0.00  0.00    +0.000 C 
ATOM     20  F   UNL     1      -2.112   9.765  18.339  0.00  0.00    +0.000 F 
ATOM     21  F   UNL     1      -2.496  11.579  19.512  0.00  0.00    +0.000 F 
ATOM     22  F   UNL     1      -1.187  11.655  17.758  0.00  0.00    +0.000 F 
ENDBRANCH  18  19
ENDBRANCH  15  18
ENDBRANCH   2  12
BRANCH   1  24
ATOM     23  C   UNL     1       1.188   3.625  18.198  0.00  0.00    +0.000 C 
ATOM     24  C   UNL     1       1.627   4.690  19.209  0.00  0.00    +0.000 C 
ATOM     25  C   UNL     1       1.529   4.178  20.647  0.00  0.00    +0.000 C 
ENDBRANCH   1  24
BRANCH   5  26
ATOM     26  C   UNL     1       7.624   7.489  17.527  0.00  0.00    +0.000 C 
ATOM     27  N   UNL     1       8.194   8.472  17.292  0.00  0.00    +0.000 NA
ENDBRANCH   5  26
TORSDOF 5
ENDMDL
MODEL 3
REMARK VINA RESULT:      -8.0      4.876      6.828
REMARK  Name = 
REMARK  7 active torsions:
REMARK  status: ('A' for Active; 'I' for Inactive)
REMARK    1  A    between atoms: C_1  and  C_2
REMARK    2  A    between atoms: C_2  and  C_3
REMARK    3  A    between atoms: C_2  and  C_4
REMARK    4  A    between atoms: C_5  and  C_6
REMARK    5  A    between atoms: C_9  and  O_10
REMARK    6  A    between atoms: O_10  and  C_11
REMARK    7  A    between atoms: C_19  and  C_20
REMARK                            x       y       z     vdW  Elec       q    Type
REMARK                         _______ _______ _______ _____ _____    ______ ____
ROOT
ATOM      1  C   UNL     1       6.183   5.278  16.696  0.00  0.00    +0.000 A 
ATOM      2  C   UNL     1       5.312   4.309  16.318  0.00  0.00    +0.000 A 
ATOM      3  N   UNL     1       5.299   3.747  15.051  0.00  0.00    +0.000 N 
ATOM      4  C   UNL     1       6.174   4.132  14.097  0.00  0.00    +0.000 A 
ATOM      5  C   UNL     1       6.438   3.758  12.801  0.00  0.00    +0.000 A 
ATOM      6  C   UNL     1       7.489   4.597  12.393  0.00  0.00    +0.000 A 
ATOM      7  N   UNL     1       7.880   5.442  13.351  0.00  0.00    +0.000 NA
ATOM      8  N   UNL     1       7.068   5.139  14.405  0.00  0.00    +0.000 N 
ATOM      9  C   UNL     1       7.149   5.787  15.649  0.00  0.00    +0.000 A 
ATOM     10  O   UNL     1       7.953   6.693  15.828  0.00  0.00    +0.000 OA
ATOM     11  H   UNL     1       4.616   3.000  14.903  0.00  0.00    +0.000 HD
ENDROOT
BRANCH   2  12
ATOM     12  C   UNL     1       4.288   3.778  17.237  0.00  0.00    +0.000 A 
ATOM     13  C   UNL     1       4.593   2.710  18.086  0.00  0.00    +0.000 A 
ATOM     14  C   UNL     1       3.636   2.236  18.987  0.00  0.00    +0.000 A 
ATOM     15  C   UNL     1       2.371   2.828  19.060  0.00  0.00    +0.000 A 
ATOM     16  C   UNL     1       2.047   3.852  18.171  0.00  0.00    +0.000 A 
ATOM     17  C   UNL     1       3.007   4.340  17.278  0.00  0.00    +0.000 A 
BRANCH  15  18
ATOM     18  O   UNL     1       1.533   2.282  19.982  0.00  0.00    +0.000 OA
BRANCH  18  19
ATOM     19  C   UNL     1       1.353   2.932  21.235  0.00  0.00    +0.000 C 
ATOM     20  F   UNL     1       0.661   2.214  22.143  0.00  0.00    +0.000 F 
ATOM     21  F   UNL     1       2.564   3.234  21.753  0.00  0.00    +0.000 F 
ATOM     22  F   UNL     1       0.684   4.089  21.028  0.00  0.00    +0.000 F 
ENDBRANCH  18  19
ENDBRANCH  15  18
ENDBRANCH   2  12
BRANCH   1  24
ATOM     23  C   UNL     1       7.625   5.606  18.755  0.00  0.00    +0.000 C 
ATOM     24  C   UNL     1       6.279   5.896  18.083  0.00  0.00    +0.000 C 
ATOM     25  C   UNL     1       5.963   7.392  18.072  0.00  0.00    +0.000 C 
ENDBRANCH   1  24
BRANCH   5  26
ATOM     26  C   UNL     1       5.786   2.746  12.046  0.00  0.00    +0.000 C 
ATOM     27  N   UNL     1       5.261   1.911  11.434  0.00  0.00    +0.000 NA
ENDBRANCH   5  26
TORSDOF 5
ENDMDL
MODEL 4
REMARK VINA RESULT:      -7.9      2.117      4.124
REMARK  Name = 
REMARK  7 active torsions:
REMARK  status: ('A' for Active; 'I' for Inactive)
REMARK    1  A    between atoms: C_1  and  C_2
REMARK    2  A    between atoms: C_2  and  C_3
REMARK    3  A    between atoms: C_2  and  C_4
REMARK    4  A    between atoms: C_5  and  C_6
REMARK    5  A    between atoms: C_9  and  O_10
REMARK    6  A    between atoms: O_10  and  C_11
REMARK    7  A    between atoms: C_19  and  C_20
REMARK                            x       y       z     vdW  Elec       q    Type
REMARK                         _______ _______ _______ _____ _____    ______ ____
ROOT
ATOM      1  C   UNL     1       3.020   5.211  18.873  0.00  0.00    +0.000 A 
ATOM      2  C   UNL     1       3.324   6.524  18.727  0.00  0.00    +0.000 A 
ATOM      3  N   UNL     1       4.590   6.982  18.394  0.00  0.00    +0.000 N 
ATOM      4  C   UNL     1       5.617   6.131  18.183  0.00  0.00    +0.000 A 
ATOM      5  C   UNL     1       6.935   6.259  17.815  0.00  0.00    +0.000 A 
ATOM      6  C   UNL     1       7.431   4.943  17.798  0.00  0.00    +0.000 A 
ATOM      7  N   UNL     1       6.505   4.036  18.121  0.00  0.00    +0.000 NA
ATOM      8  N   UNL     1       5.384   4.779  18.347  0.00  0.00    +0.000 N 
ATOM      9  C   UNL     1       4.147   4.216  18.702  0.00  0.00    +0.000 A 
ATOM     10  O   UNL     1       4.035   3.007  18.857  0.00  0.00    +0.000 OA
ATOM     11  H   UNL     1       4.680   7.994  18.280  0.00  0.00    +0.000 HD
ENDROOT
BRANCH   2  12
ATOM     12  C   UNL     1       2.320   7.585  18.927  0.00  0.00    +0.000 A 
ATOM     13  C   UNL     1       1.818   7.845  20.206  0.00  0.00    +0.000 A 
ATOM     14  C   UNL     1       0.899   8.879  20.402  0.00  0.00    +0.000 A 
ATOM     15  C   UNL     1       0.480   9.673  19.329  0.00  0.00    +0.000 A 
ATOM     16  C   UNL     1       0.933   9.375  18.045  0.00  0.00    +0.000 A 
ATOM     17  C   UNL     1       1.865   8.350  17.847  0.00  0.00    +0.000 A 
BRANCH  15  18
ATOM     18  O   UNL     1      -0.409  10.651  19.651  0.00  0.00    +0.000 OA
BRANCH  18  19
ATOM     19  C   UNL     1      -0.015  12.014  19.546  0.00  0.00    +0.000 C 
ATOM     20  F   UNL     1      -0.167  12.547  18.315  0.00  0.00    +0.000 F 
ATOM     21  F   UNL     1      -0.730  12.749  20.426  0.00  0.00    +0.000 F 
ATOM     22  F   UNL     1       1.292  12.113  19.878  0.00  0.00    +0.000 F 
ENDBRANCH  18  19
ENDBRANCH  15  18
ENDBRANCH   2  12
BRANCH   1  24
ATOM     23  C   UNL     1       1.220   3.558  18.194  0.00  0.00    +0.000 C 
ATOM     24  C   UNL     1       1.642   4.647  19.187  0.00  0.00    +0.000 C 
ATOM     25  C   UNL     1       1.531   4.164  20.634  0.00  0.00    +0.000 C 
ENDBRANCH   1  24
BRANCH   5  26
ATOM     26  C   UNL     1       7.636   7.459  17.519  0.00  0.00    +0.000 C 
ATOM     27  N   UNL     1       8.200   8.445  17.283  0.00  0.00    +0.000 NA
ENDBRANCH   5  26
TORSDOF 5
ENDMDL
MODEL 5
REMARK VINA RESULT:      -7.9      1.976      3.919
REMARK  Name = 
REMARK  7 active torsions:
REMARK  status: ('A' for Active; 'I' for Inactive)
REMARK    1  A    between atoms: C_1  and  C_2
REMARK    2  A    between atoms: C_2  and  C_3
REMARK    3  A    between atoms: C_2  and  C_4
REMARK    4  A    between atoms: C_5  and  C_6
REMARK    5  A    between atoms: C_9  and  O_10
REMARK    6  A    between atoms: O_10  and  C_11
REMARK    7  A    between atoms: C_19  and  C_20
REMARK                            x       y       z     vdW  Elec       q    Type
REMARK                         _______ _______ _______ _____ _____    ______ ____
ROOT
ATOM      1  C   UNL     1       2.958   5.306  18.895  0.00  0.00    +0.000 A 
ATOM      2  C   UNL     1       3.294   6.608  18.726  0.00  0.00    +0.000 A 
ATOM      3  N   UNL     1       4.571   7.029  18.389  0.00  0.00    +0.000 N 
ATOM      4  C   UNL     1       5.579   6.150  18.199  0.00  0.00    +0.000 A 
ATOM      5  C   UNL     1       6.901   6.239  17.835  0.00  0.00    +0.000 A 
ATOM      6  C   UNL     1       7.366   4.913  17.846  0.00  0.00    +0.000 A 
ATOM      7  N   UNL     1       6.417   4.034  18.183  0.00  0.00    +0.000 NA
ATOM      8  N   UNL     1       5.313   4.807  18.389  0.00  0.00    +0.000 N 
ATOM      9  C   UNL     1       4.061   4.281  18.749  0.00  0.00    +0.000 A 
ATOM     10  O   UNL     1       3.920   3.078  18.927  0.00  0.00    +0.000 OA
ATOM     11  H   UNL     1       4.687   8.037  18.256  0.00  0.00    +0.000 HD
ENDROOT
BRANCH   2  12
ATOM     12  C   UNL     1       2.314   7.697  18.900  0.00  0.00    +0.000 A 
ATOM     13  C   UNL     1       1.942   8.488  17.809  0.00  0.00    +0.000 A 
ATOM     14  C   UNL     1       0.982   9.491  17.965  0.00  0.00    +0.000 A 
ATOM     15  C   UNL     1       0.373   9.707  19.206  0.00  0.00    +0.000 A 
ATOM     16  C   UNL     1       0.789   8.960  20.307  0.00  0.00    +0.000 A 
ATOM     17  C   UNL     1       1.739   7.945  20.152  0.00  0.00    +0.000 A 
BRANCH  15  18
ATOM     18  O   UNL     1      -0.550  10.706  19.226  0.00  0.00    +0.000 OA
BRANCH  18  19
ATOM     19  C   UNL     1      -1.732  10.580  18.443  0.00  0.00    +0.000 C 
ATOM     20  F   UNL     1      -1.586  10.945  17.151  0.00  0.00    +0.000 F 
ATOM     21  F   UNL     1      -2.155   9.298  18.485  0.00  0.00    +0.000 F 
ATOM     22  F   UNL     1      -2.694  11.360  18.985  0.00  0.00    +0.000 F 
ENDBRANCH  18  19
ENDBRANCH  15  18
ENDBRANCH   2  12
BRANCH   1  24
ATOM     23  C   UNL     1       1.104   3.715  18.214  0.00  0.00    +0.000 C 
ATOM     24  C   UNL     1       1.565   4.781  19.214  0.00  0.00    +0.000 C 
ATOM     25  C   UNL     1       1.450   4.287  20.657  0.00  0.00    +0.000 C 
ENDBRANCH   1  24
BRANCH   5  26
ATOM     26  C   UNL     1       7.632   7.416  17.520  0.00  0.00    +0.000 C 
ATOM     27  N   UNL     1       8.220   8.380  17.254  0.00  0.00    +0.000 NA
ENDBRANCH   5  26
TORSDOF 5
ENDMDL
MODEL 6
REMARK VINA RESULT:      -7.8      1.092      1.336
REMARK  Name = 
REMARK  7 active torsions:
REMARK  status: ('A' for Active; 'I' for Inactive)
REMARK    1  A    between atoms: C_1  and  C_2
REMARK    2  A    between atoms: C_2  and  C_3
REMARK    3  A    between atoms: C_2  and  C_4
REMARK    4  A    between atoms: C_5  and  C_6
REMARK    5  A    between atoms: C_9  and  O_10
REMARK    6  A    between atoms: O_10  and  C_11
REMARK    7  A    between atoms: C_19  and  C_20
REMARK                            x       y       z     vdW  Elec       q    Type
REMARK                         _______ _______ _______ _____ _____    ______ ____
ROOT
ATOM      1  C   UNL     1       4.437   5.946  18.146  0.00  0.00    +0.000 A 
ATOM      2  C   UNL     1       3.321   6.132  18.894  0.00  0.00    +0.000 A 
ATOM      3  N   UNL     1       2.801   5.165  19.742  0.00  0.00    +0.000 N 
ATOM      4  C   UNL     1       3.388   3.957  19.881  0.00  0.00    +0.000 A 
ATOM      5  C   UNL     1       3.152   2.835  20.640  0.00  0.00    +0.000 A 
ATOM      6  C   UNL     1       4.163   1.932  20.266  0.00  0.00    +0.000 A 
ATOM      7  N   UNL     1       4.991   2.432  19.346  0.00  0.00    +0.000 NA
ATOM      8  N   UNL     1       4.511   3.689  19.121  0.00  0.00    +0.000 N 
ATOM      9  C   UNL     1       5.103   4.590  18.221  0.00  0.00    +0.000 A 
ATOM     10  O   UNL     1       6.081   4.260  17.563  0.00  0.00    +0.000 OA
ATOM     11  H   UNL     1       1.976   5.442  20.278  0.00  0.00    +0.000 HD
ENDROOT
BRANCH   2  12
ATOM     12  C   UNL     1       2.556   7.392  18.857  0.00  0.00    +0.000 A 
ATOM     13  C   UNL     1       2.423   8.097  17.656  0.00  0.00    +0.000 A 
ATOM     14  C   UNL     1       1.661   9.267  17.611  0.00  0.00    +0.000 A 
ATOM     15  C   UNL     1       1.015   9.741  18.757  0.00  0.00    +0.000 A 
ATOM     16  C   UNL     1       1.199   9.073  19.967  0.00  0.00    +0.000 A 
ATOM     17  C   UNL     1       1.948   7.892  20.013  0.00  0.00    +0.000 A 
BRANCH  15  18
ATOM     18  O   UNL     1       0.299  10.884  18.582  0.00  0.00    +0.000 OA
BRANCH  18  19
ATOM     19  C   UNL     1       0.838  12.122  19.034  0.00  0.00    +0.000 C 
ATOM     20  F   UNL     1       2.185  12.197  18.981  0.00  0.00    +0.000 F 
ATOM     21  F   UNL     1       0.320  13.126  18.293  0.00  0.00    +0.000 F 
ATOM     22  F   UNL     1       0.465  12.311  20.320  0.00  0.00    +0.000 F 
ENDBRANCH  18  19
ENDBRANCH  15  18
ENDBRANCH   2  12
BRANCH   1  24
ATOM     23  C   UNL     1       6.504   7.341  17.686  0.00  0.00    +0.000 C 
ATOM     24  C   UNL     1       5.082   6.984  17.239  0.00  0.00    +0.000 C 
ATOM     25  C   UNL     1       5.040   6.571  15.767  0.00  0.00    +0.000 C 
ENDBRANCH   1  24
BRANCH   5  26
ATOM     26  C   UNL     1       2.114   2.638  21.589  0.00  0.00    +0.000 C 
ATOM     27  N   UNL     1       1.258   2.484  22.357  0.00  0.00    +0.000 NA
ENDBRANCH   5  26
TORSDOF 5
ENDMDL
MODEL 7
REMARK VINA RESULT:      -7.8      2.096      4.033
REMARK  Name = 
REMARK  7 active torsions:
REMARK  status: ('A' for Active; 'I' for Inactive)
REMARK    1  A    between atoms: C_1  and  C_2
REMARK    2  A    between atoms: C_2  and  C_3
REMARK    3  A    between atoms: C_2  and  C_4
REMARK    4  A    between atoms: C_5  and  C_6
REMARK    5  A    between atoms: C_9  and  O_10
REMARK    6  A    between atoms: O_10  and  C_11
REMARK    7  A    between atoms: C_19  and  C_20
REMARK                            x       y       z     vdW  Elec       q    Type
REMARK                         _______ _______ _______ _____ _____    ______ ____
ROOT
ATOM      1  C   UNL     1       2.999   5.251  18.889  0.00  0.00    +0.000 A 
ATOM      2  C   UNL     1       3.318   6.560  18.746  0.00  0.00    +0.000 A 
ATOM      3  N   UNL     1       4.588   7.003  18.409  0.00  0.00    +0.000 N 
ATOM      4  C   UNL     1       5.605   6.140  18.191  0.00  0.00    +0.000 A 
ATOM      5  C   UNL     1       6.922   6.253  17.818  0.00  0.00    +0.000 A 
ATOM      6  C   UNL     1       7.402   4.931  17.796  0.00  0.00    +0.000 A 
ATOM      7  N   UNL     1       6.466   4.035  18.121  0.00  0.00    +0.000 NA
ATOM      8  N   UNL     1       5.355   4.791  18.353  0.00  0.00    +0.000 N 
ATOM      9  C   UNL     1       4.112   4.242  18.712  0.00  0.00    +0.000 A 
ATOM     10  O   UNL     1       3.986   3.034  18.864  0.00  0.00    +0.000 OA
ATOM     11  H   UNL     1       4.691   8.015  18.297  0.00  0.00    +0.000 HD
ENDROOT
BRANCH   2  12
ATOM     12  C   UNL     1       2.328   7.633  18.953  0.00  0.00    +0.000 A 
ATOM     13  C   UNL     1       1.889   8.401  17.869  0.00  0.00    +0.000 A 
ATOM     14  C   UNL     1       0.918   9.388  18.058  0.00  0.00    +0.000 A 
ATOM     15  C   UNL     1       0.366   9.613  19.324  0.00  0.00    +0.000 A 
ATOM     16  C   UNL     1       0.849   8.890  20.414  0.00  0.00    +0.000 A 
ATOM     17  C   UNL     1       1.810   7.890  20.227  0.00  0.00    +0.000 A 
BRANCH  15  18
ATOM     18  O   UNL     1      -0.574  10.595  19.375  0.00  0.00    +0.000 OA
BRANCH  18  19
ATOM     19  C   UNL     1      -0.160  11.953  19.469  0.00  0.00    +0.000 C 
ATOM     20  F   UNL     1       1.097  12.123  19.931  0.00  0.00    +0.000 F 
ATOM     21  F   UNL     1      -0.254  12.528  18.250  0.00  0.00    +0.000 F 
ATOM     22  F   UNL     1      -0.998  12.602  20.308  0.00  0.00    +0.000 F 
ENDBRANCH  18  19
ENDBRANCH  15  18
ENDBRANCH   2  12
BRANCH   1  24
ATOM     23  C   UNL     1       1.163   3.645  18.195  0.00  0.00    +0.000 C 
ATOM     24  C   UNL     1       1.615   4.703  19.208  0.00  0.00    +0.000 C 
ATOM     25  C   UNL     1       1.513   4.188  20.645  0.00  0.00    +0.000 C 
ENDBRANCH   1  24
BRANCH   5  26
ATOM     26  C   UNL     1       7.637   7.445  17.523  0.00  0.00    +0.000 C 
ATOM     27  N   UNL     1       8.210   8.424  17.282  0.00  0.00    +0.000 NA
ENDBRANCH   5  26
TORSDOF 5
ENDMDL
MODEL 8
REMARK VINA RESULT:      -7.7      1.247      1.675
REMARK  Name = 
REMARK  7 active torsions:
REMARK  status: ('A' for Active; 'I' for Inactive)
REMARK    1  A    between atoms: C_1  and  C_2
REMARK    2  A    between atoms: C_2  and  C_3
REMARK    3  A    between atoms: C_2  and  C_4
REMARK    4  A    between atoms: C_5  and  C_6
REMARK    5  A    between atoms: C_9  and  O_10
REMARK    6  A    between atoms: O_10  and  C_11
REMARK    7  A    between atoms: C_19  and  C_20
REMARK                            x       y       z     vdW  Elec       q    Type
REMARK                         _______ _______ _______ _____ _____    ______ ____
ROOT
ATOM      1  C   UNL     1       4.437   5.933  18.148  0.00  0.00    +0.000 A 
ATOM      2  C   UNL     1       3.317   6.116  18.889  0.00  0.00    +0.000 A 
ATOM      3  N   UNL     1       2.801   5.152  19.743  0.00  0.00    +0.000 N 
ATOM      4  C   UNL     1       3.398   3.950  19.896  0.00  0.00    +0.000 A 
ATOM      5  C   UNL     1       3.168   2.834  20.664  0.00  0.00    +0.000 A 
ATOM      6  C   UNL     1       4.188   1.936  20.304  0.00  0.00    +0.000 A 
ATOM      7  N   UNL     1       5.017   2.435  19.383  0.00  0.00    +0.000 NA
ATOM      8  N   UNL     1       4.526   3.686  19.144  0.00  0.00    +0.000 N 
ATOM      9  C   UNL     1       5.116   4.584  18.239  0.00  0.00    +0.000 A 
ATOM     10  O   UNL     1       6.100   4.256  17.590  0.00  0.00    +0.000 OA
ATOM     11  H   UNL     1       1.970   5.426  20.272  0.00  0.00    +0.000 HD
ENDROOT
BRANCH   2  12
ATOM     12  C   UNL     1       2.541   7.368  18.836  0.00  0.00    +0.000 A 
ATOM     13  C   UNL     1       1.940   7.872  19.994  0.00  0.00    +0.000 A 
ATOM     14  C   UNL     1       1.242   9.081  19.953  0.00  0.00    +0.000 A 
ATOM     15  C   UNL     1       1.145   9.808  18.761  0.00  0.00    +0.000 A 
ATOM     16  C   UNL     1       1.690   9.275  17.594  0.00  0.00    +0.000 A 
ATOM     17  C   UNL     1       2.404   8.072  17.634  0.00  0.00    +0.000 A 
BRANCH  15  18
ATOM     18  O   UNL     1       0.447  10.971  18.853  0.00  0.00    +0.000 OA
BRANCH  18  19
ATOM     19  C   UNL     1       1.136  12.175  19.171  0.00  0.00    +0.000 C 
ATOM     20  F   UNL     1       0.540  13.297  18.713  0.00  0.00    +0.000 F 
ATOM     21  F   UNL     1       1.263  12.270  20.512  0.00  0.00    +0.000 F 
ATOM     22  F   UNL     1       2.375  12.118  18.632  0.00  0.00    +0.000 F 
ENDBRANCH  18  19
ENDBRANCH  15  18
ENDBRANCH   2  12
BRANCH   1  24
ATOM     23  C   UNL     1       6.508   7.315  17.666  0.00  0.00    +0.000 C 
ATOM     24  C   UNL     1       5.078   6.968  17.235  0.00  0.00    +0.000 C 
ATOM     25  C   UNL     1       5.016   6.558  15.763  0.00  0.00    +0.000 C 
ENDBRANCH   1  24
BRANCH   5  26
ATOM     26  C   UNL     1       2.126   2.636  21.609  0.00  0.00    +0.000 C 
ATOM     27  N   UNL     1       1.276   2.485  22.384  0.00  0.00    +0.000 NA
ENDBRANCH   5  26
TORSDOF 5
ENDMDL
MODEL 9
REMARK VINA RESULT:      -7.4      2.688      4.545
REMARK  Name = 
REMARK  7 active torsions:
REMARK  status: ('A' for Active; 'I' for Inactive)
REMARK    1  A    between atoms: C_1  and  C_2
REMARK    2  A    between atoms: C_2  and  C_3
REMARK    3  A    between atoms: C_2  and  C_4
REMARK    4  A    between atoms: C_5  and  C_6
REMARK    5  A    between atoms: C_9  and  O_10
REMARK    6  A    between atoms: O_10  and  C_11
REMARK    7  A    between atoms: C_19  and  C_20
REMARK                            x       y       z     vdW  Elec       q    Type
REMARK                         _______ _______ _______ _____ _____    ______ ____
ROOT
ATOM      1  C   UNL     1       2.987   5.039  18.495  0.00  0.00    +0.000 A 
ATOM      2  C   UNL     1       3.334   6.331  18.715  0.00  0.00    +0.000 A 
ATOM      3  N   UNL     1       4.579   6.851  18.397  0.00  0.00    +0.000 N 
ATOM      4  C   UNL     1       5.541   6.090  17.830  0.00  0.00    +0.000 A 
ATOM      5  C   UNL     1       6.819   6.306  17.375  0.00  0.00    +0.000 A 
ATOM      6  C   UNL     1       7.251   5.051  16.913  0.00  0.00    +0.000 A 
ATOM      7  N   UNL     1       6.323   4.100  17.051  0.00  0.00    +0.000 NA
ATOM      8  N   UNL     1       5.264   4.755  17.609  0.00  0.00    +0.000 N 
ATOM      9  C   UNL     1       4.045   4.127  17.914  0.00  0.00    +0.000 A 
ATOM     10  O   UNL     1       3.895   2.929  17.712  0.00  0.00    +0.000 OA
ATOM     11  H   UNL     1       4.704   7.850  18.580  0.00  0.00    +0.000 HD
ENDROOT
BRANCH   2  12
ATOM     12  C   UNL     1       2.404   7.295  19.331  0.00  0.00    +0.000 A 
ATOM     13  C   UNL     1       1.926   7.080  20.628  0.00  0.00    +0.000 A 
ATOM     14  C   UNL     1       1.080   8.016  21.227  0.00  0.00    +0.000 A 
ATOM     15  C   UNL     1       0.710   9.181  20.546  0.00  0.00    +0.000 A 
ATOM     16  C   UNL     1       1.136   9.365  19.232  0.00  0.00    +0.000 A 
ATOM     17  C   UNL     1       1.996   8.438  18.633  0.00  0.00    +0.000 A 
BRANCH  15  18
ATOM     18  O   UNL     1      -0.110  10.016  21.239  0.00  0.00    +0.000 OA
BRANCH  18  19
ATOM     19  C   UNL     1      -0.348   9.772  22.621  0.00  0.00    +0.000 C 
ATOM     20  F   UNL     1       0.769   9.597  23.358  0.00  0.00    +0.000 F 
ATOM     21  F   UNL     1      -1.050  10.804  23.137  0.00  0.00    +0.000 F 
ATOM     22  F   UNL     1      -1.098   8.652  22.739  0.00  0.00    +0.000 F 
ENDBRANCH  18  19
ENDBRANCH  15  18
ENDBRANCH   2  12
BRANCH   1  24
ATOM     23  C   UNL     1       1.022   3.756  17.534  0.00  0.00    +0.000 C 
ATOM     24  C   UNL     1       1.624   4.424  18.776  0.00  0.00    +0.000 C 
ATOM     25  C   UNL     1       1.655   3.469  19.971  0.00  0.00    +0.000 C 
ENDBRANCH   1  24
BRANCH   5  26
ATOM     26  C   UNL     1       7.540   7.530  17.376  0.00  0.00    +0.000 C 
ATOM     27  N   UNL     1       8.120   8.535  17.381  0.00  0.00    +0.000 NA
ENDBRANCH   5  26
TORSDOF 5
ENDMDL
