MODEL 1
REMARK VINA RESULT:      -7.5      0.000      0.000
REMARK  Name = 
REMARK  4 active torsions:
REMARK  status: ('A' for Active; 'I' for Inactive)
REMARK    1  A    between atoms: C_2  and  C_3
REMARK    2  A    between atoms: C_3  and  N_4
REMARK    3  A    between atoms: C_5  and  S_6
REMARK    4  A    between atoms: S_6  and  C_7
REMARK                            x       y       z     vdW  Elec       q    Type
REMARK                         _______ _______ _______ _____ _____    ______ ____
ROOT
ATOM      1  N   UNL     1       1.681   8.623  19.228  0.00  0.00    +0.000 N 
ATOM      2  C   UNL     1       1.152   7.982  20.327  0.00  0.00    +0.000 A 
ATOM      3  N   UNL     1       1.470   6.778  20.677  0.00  0.00    +0.000 NA
ATOM      4  C   UNL     1       2.428   6.116  19.950  0.00  0.00    +0.000 A 
ATOM      5  C   UNL     1       3.029   6.612  18.841  0.00  0.00    +0.000 A 
ATOM      6  C   UNL     1       2.528   7.931  18.383  0.00  0.00    +0.000 A 
ATOM      7  O   UNL     1       2.844   8.368  17.282  0.00  0.00    +0.000 OA
ATOM      8  C   UNL     1       4.132   5.867  18.054  0.00  0.00    +0.000 C 
ATOM      9  C   UNL     1       3.464   4.986  16.958  0.00  0.00    +0.000 C 
ATOM     10  C   UNL     1       4.472   4.224  16.091  0.00  0.00    +0.000 C 
ATOM     11  C   UNL     1       5.505   5.156  15.468  0.00  0.00    +0.000 C 
ATOM     12  C   UNL     1       6.201   6.028  16.509  0.00  0.00    +0.000 C 
ATOM     13  C   UNL     1       5.179   6.790  17.356  0.00  0.00    +0.000 C 
ATOM     14  C   UNL     1       4.920   4.988  19.072  0.00  0.00    +0.000 C 
ATOM     15  C   UNL     1       4.005   4.164  19.933  0.00  0.00    +0.000 A 
ATOM     16  C   UNL     1       4.357   2.853  20.287  0.00  0.00    +0.000 A 
ATOM     17  C   UNL     1       3.510   2.098  21.094  0.00  0.00    +0.000 A 
ATOM     18  C   UNL     1       2.324   2.658  21.558  0.00  0.00    +0.000 A 
ATOM     19  C   UNL     1       1.976   3.969  21.212  0.00  0.00    +0.000 A 
ATOM     20  C   UNL     1       2.805   4.740  20.385  0.00  0.00    +0.000 A 
ENDROOT
BRANCH   2  21
ATOM     21  S   UNL     1      -0.034   8.872  21.274  0.00  0.00    +0.000 S 
ATOM     22  C   UNL     1       0.882   9.359  22.741  0.00  0.00    +0.000 C 
ENDBRANCH   2  21
BRANCH   1  23
ATOM     23  C   UNL     1       1.337   9.981  18.801  0.00  0.00    +0.000 C 
BRANCH  23  25
ATOM     24  C   UNL     1      -0.979  10.744  18.223  0.00  0.00    +0.000 C 
ATOM     25  C   UNL     1       0.070   9.948  17.987  0.00  0.00    +0.000 C 
ENDBRANCH  23  25
ENDBRANCH   1  23
TORSDOF 3
ENDMDL
MODEL 2
REMARK VINA RESULT:      -7.1      7.157      9.122
REMARK  Name = 
REMARK  4 active torsions:
REMARK  status: ('A' for Active; 'I' for Inactive)
REMARK    1  A    between atoms: C_2  and  C_3
REMARK    2  A    between atoms: C_3  and  N_4
REMARK    3  A    between atoms: C_5  and  S_6
REMARK    4  A    between atoms: S_6  and  C_7
REMARK                            x       y       z     vdW  Elec       q    Type
REMARK                         _______ _______ _______ _____ _____    ______ ____
ROOT
ATOM      1  N   UNL     1      -4.518  13.401  21.518  0.00  0.00    +0.000 N 
ATOM      2  C   UNL     1      -5.452  13.003  20.585  0.00  0.00    +0.000 A 
ATOM      3  N   UNL     1      -5.151  12.395  19.484  0.00  0.00    +0.000 NA
ATOM      4  C   UNL     1      -3.836  12.076  19.249  0.00  0.00    +0.000 A 
ATOM      5  C   UNL     1      -2.809  12.410  20.066  0.00  0.00    +0.000 A 
ATOM      6  C   UNL     1      -3.174  13.239  21.241  0.00  0.00    +0.000 A 
ATOM      7  O   UNL     1      -2.304  13.773  21.920  0.00  0.00    +0.000 OA
ATOM      8  C   UNL     1      -1.338  12.012  19.804  0.00  0.00    +0.000 C 
ATOM      9  C   UNL     1      -0.656  13.124  18.955  0.00  0.00    +0.000 C 
ATOM     10  C   UNL     1       0.823  12.848  18.663  0.00  0.00    +0.000 C 
ATOM     11  C   UNL     1       1.616  12.592  19.939  0.00  0.00    +0.000 C 
ATOM     12  C   UNL     1       0.995  11.494  20.798  0.00  0.00    +0.000 C 
ATOM     13  C   UNL     1      -0.477  11.794  21.088  0.00  0.00    +0.000 C 
ATOM     14  C   UNL     1      -1.349  10.655  19.039  0.00  0.00    +0.000 C 
ATOM     15  C   UNL     1      -2.282  10.679  17.861  0.00  0.00    +0.000 A 
ATOM     16  C   UNL     1      -1.931  10.030  16.668  0.00  0.00    +0.000 A 
ATOM     17  C   UNL     1      -2.803  10.047  15.584  0.00  0.00    +0.000 A 
ATOM     18  C   UNL     1      -4.028  10.696  15.697  0.00  0.00    +0.000 A 
ATOM     19  C   UNL     1      -4.383  11.336  16.891  0.00  0.00    +0.000 A 
ATOM     20  C   UNL     1      -3.511  11.348  17.989  0.00  0.00    +0.000 A 
ENDROOT
BRANCH   2  21
ATOM     21  S   UNL     1      -7.136  13.375  20.934  0.00  0.00    +0.000 S 
ATOM     22  C   UNL     1      -7.811  11.798  21.467  0.00  0.00    +0.000 C 
ENDBRANCH   2  21
BRANCH   1  23
ATOM     23  C   UNL     1      -4.825  14.097  22.769  0.00  0.00    +0.000 C 
BRANCH  23  25
ATOM     24  C   UNL     1      -4.255  12.523  24.634  0.00  0.00    +0.000 C 
ATOM     25  C   UNL     1      -5.167  13.090  23.835  0.00  0.00    +0.000 C 
ENDBRANCH  23  25
ENDBRANCH   1  23
TORSDOF 3
ENDMDL
MODEL 3
REMARK VINA RESULT:      -6.9      1.561      4.422
REMARK  Name = 
REMARK  4 active torsions:
REMARK  status: ('A' for Active; 'I' for Inactive)
REMARK    1  A    between atoms: C_2  and  C_3
REMARK    2  A    between atoms: C_3  and  N_4
REMARK    3  A    between atoms: C_5  and  S_6
REMARK    4  A    between atoms: S_6  and  C_7
REMARK                            x       y       z     vdW  Elec       q    Type
REMARK                         _______ _______ _______ _____ _____    ______ ____
ROOT
ATOM      1  N   UNL     1       1.235   8.507  19.881  0.00  0.00    +0.000 N 
ATOM      2  C   UNL     1       1.949   9.025  18.822  0.00  0.00    +0.000 A 
ATOM      3  N   UNL     1       2.729   8.319  18.069  0.00  0.00    +0.000 NA
ATOM      4  C   UNL     1       2.813   6.967  18.298  0.00  0.00    +0.000 A 
ATOM      5  C   UNL     1       2.181   6.320  19.306  0.00  0.00    +0.000 A 
ATOM      6  C   UNL     1       1.418   7.185  20.239  0.00  0.00    +0.000 A 
ATOM      7  O   UNL     1       0.992   6.735  21.296  0.00  0.00    +0.000 OA
ATOM      8  C   UNL     1       2.259   4.791  19.528  0.00  0.00    +0.000 C 
ATOM      9  C   UNL     1       3.466   4.476  20.458  0.00  0.00    +0.000 C 
ATOM     10  C   UNL     1       3.619   2.984  20.774  0.00  0.00    +0.000 C 
ATOM     11  C   UNL     1       2.338   2.391  21.347  0.00  0.00    +0.000 C 
ATOM     12  C   UNL     1       1.127   2.658  20.458  0.00  0.00    +0.000 C 
ATOM     13  C   UNL     1       0.984   4.154  20.164  0.00  0.00    +0.000 C 
ATOM     14  C   UNL     1       2.442   4.124  18.131  0.00  0.00    +0.000 C 
ATOM     15  C   UNL     1       3.545   4.767  17.339  0.00  0.00    +0.000 A 
ATOM     16  C   UNL     1       4.394   3.984  16.543  0.00  0.00    +0.000 A 
ATOM     17  C   UNL     1       5.407   4.587  15.804  0.00  0.00    +0.000 A 
ATOM     18  C   UNL     1       5.561   5.968  15.847  0.00  0.00    +0.000 A 
ATOM     19  C   UNL     1       4.709   6.752  16.634  0.00  0.00    +0.000 A 
ATOM     20  C   UNL     1       3.694   6.163  17.402  0.00  0.00    +0.000 A 
ENDROOT
BRANCH   2  21
ATOM     21  S   UNL     1       1.782  10.749  18.514  0.00  0.00    +0.000 S 
ATOM     22  C   UNL     1       0.029  10.946  18.173  0.00  0.00    +0.000 C 
ENDBRANCH   2  21
BRANCH   1  23
ATOM     23  C   UNL     1       0.351   9.280  20.755  0.00  0.00    +0.000 C 
BRANCH  23  25
ATOM     24  C   UNL     1       0.316   9.512  23.250  0.00  0.00    +0.000 C 
ATOM     25  C   UNL     1       1.002   9.456  22.102  0.00  0.00    +0.000 C 
ENDBRANCH  23  25
ENDBRANCH   1  23
TORSDOF 3
ENDMDL
MODEL 4
REMARK VINA RESULT:      -6.6      3.395      5.753
REMARK  Name = 
REMARK  4 active torsions:
REMARK  status: ('A' for Active; 'I' for Inactive)
REMARK    1  A    between atoms: C_2  and  C_3
REMARK    2  A    between atoms: C_3  and  N_4
REMARK    3  A    between atoms: C_5  and  S_6
REMARK    4  A    between atoms: S_6  and  C_7
REMARK                            x       y       z     vdW  Elec       q    Type
REMARK                         _______ _______ _______ _____ _____    ______ ____
ROOT
ATOM      1  N   UNL     1       2.939   4.497  19.183  0.00  0.00    +0.000 N 
ATOM      2  C   UNL     1       2.510   3.820  18.061  0.00  0.00    +0.000 A 
ATOM      3  N   UNL     1       3.187   3.756  16.960  0.00  0.00    +0.000 NA
ATOM      4  C   UNL     1       4.426   4.347  16.916  0.00  0.00    +0.000 A 
ATOM      5  C   UNL     1       4.974   5.054  17.934  0.00  0.00    +0.000 A 
ATOM      6  C   UNL     1       4.106   5.235  19.123  0.00  0.00    +0.000 A 
ATOM      7  O   UNL     1       4.415   6.031  20.003  0.00  0.00    +0.000 OA
ATOM      8  C   UNL     1       6.385   5.684  17.880  0.00  0.00    +0.000 C 
ATOM      9  C   UNL     1       6.275   7.127  17.308  0.00  0.00    +0.000 C 
ATOM     10  C   UNL     1       7.619   7.860  17.241  0.00  0.00    +0.000 C 
ATOM     11  C   UNL     1       8.325   7.877  18.592  0.00  0.00    +0.000 C 
ATOM     12  C   UNL     1       8.473   6.479  19.186  0.00  0.00    +0.000 C 
ATOM     13  C   UNL     1       7.120   5.768  19.255  0.00  0.00    +0.000 C 
ATOM     14  C   UNL     1       7.264   4.784  16.960  0.00  0.00    +0.000 C 
ATOM     15  C   UNL     1       6.588   4.485  15.651  0.00  0.00    +0.000 A 
ATOM     16  C   UNL     1       7.334   4.439  14.464  0.00  0.00    +0.000 A 
ATOM     17  C   UNL     1       6.704   4.151  13.257  0.00  0.00    +0.000 A 
ATOM     18  C   UNL     1       5.337   3.894  13.239  0.00  0.00    +0.000 A 
ATOM     19  C   UNL     1       4.593   3.931  14.425  0.00  0.00    +0.000 A 
ATOM     20  C   UNL     1       5.205   4.238  15.649  0.00  0.00    +0.000 A 
ENDROOT
BRANCH   2  21
ATOM     21  S   UNL     1       0.944   3.025  18.159  0.00  0.00    +0.000 S 
ATOM     22  C   UNL     1       1.353   1.358  18.690  0.00  0.00    +0.000 C 
ENDBRANCH   2  21
BRANCH   1  23
ATOM     23  C   UNL     1       2.195   4.594  20.440  0.00  0.00    +0.000 C 
BRANCH  23  25
ATOM     24  C   UNL     1       1.650   2.656  21.933  0.00  0.00    +0.000 C 
ATOM     25  C   UNL     1       2.557   3.434  21.331  0.00  0.00    +0.000 C 
ENDBRANCH  23  25
ENDBRANCH   1  23
TORSDOF 3
ENDMDL
MODEL 5
REMARK VINA RESULT:      -6.6      7.151      9.296
REMARK  Name = 
REMARK  4 active torsions:
REMARK  status: ('A' for Active; 'I' for Inactive)
REMARK    1  A    between atoms: C_2  and  C_3
REMARK    2  A    between atoms: C_3  and  N_4
REMARK    3  A    between atoms: C_5  and  S_6
REMARK    4  A    between atoms: S_6  and  C_7
REMARK                            x       y       z     vdW  Elec       q    Type
REMARK                         _______ _______ _______ _____ _____    ______ ____
ROOT
ATOM      1  N   UNL     1      -4.804  13.579  21.009  0.00  0.00    +0.000 N 
ATOM      2  C   UNL     1      -5.642  13.213  19.979  0.00  0.00    +0.000 A 
ATOM      3  N   UNL     1      -5.255  12.537  18.945  0.00  0.00    +0.000 NA
ATOM      4  C   UNL     1      -3.951  12.109  18.892  0.00  0.00    +0.000 A 
ATOM      5  C   UNL     1      -3.011  12.400  19.823  0.00  0.00    +0.000 A 
ATOM      6  C   UNL     1      -3.453  13.304  20.914  0.00  0.00    +0.000 A 
ATOM      7  O   UNL     1      -2.634  13.799  21.680  0.00  0.00    +0.000 OA
ATOM      8  C   UNL     1      -1.555  11.881  19.766  0.00  0.00    +0.000 C 
ATOM      9  C   UNL     1      -0.685  12.901  18.975  0.00  0.00    +0.000 C 
ATOM     10  C   UNL     1       0.791  12.501  18.884  0.00  0.00    +0.000 C 
ATOM     11  C   UNL     1       1.395  12.241  20.259  0.00  0.00    +0.000 C 
ATOM     12  C   UNL     1       0.586  11.231  21.067  0.00  0.00    +0.000 C 
ATOM     13  C   UNL     1      -0.883  11.654  21.156  0.00  0.00    +0.000 C 
ATOM     14  C   UNL     1      -1.580  10.496  19.051  0.00  0.00    +0.000 C 
ATOM     15  C   UNL     1      -2.352  10.541  17.762  0.00  0.00    +0.000 A 
ATOM     16  C   UNL     1      -1.908   9.816  16.647  0.00  0.00    +0.000 A 
ATOM     17  C   UNL     1      -2.633   9.853  15.459  0.00  0.00    +0.000 A 
ATOM     18  C   UNL     1      -3.807  10.597  15.393  0.00  0.00    +0.000 A 
ATOM     19  C   UNL     1      -4.256  11.313  16.509  0.00  0.00    +0.000 A 
ATOM     20  C   UNL     1      -3.530  11.305  17.709  0.00  0.00    +0.000 A 
ENDROOT
BRANCH   2  21
ATOM     21  S   UNL     1      -7.321  13.725  20.096  0.00  0.00    +0.000 S 
ATOM     22  C   UNL     1      -7.914  13.608  18.404  0.00  0.00    +0.000 C 
ENDBRANCH   2  21
BRANCH   1  23
ATOM     23  C   UNL     1      -5.208  14.349  22.187  0.00  0.00    +0.000 C 
BRANCH  23  25
ATOM     24  C   UNL     1      -6.691  13.704  24.102  0.00  0.00    +0.000 C 
ATOM     25  C   UNL     1      -5.691  13.411  23.262  0.00  0.00    +0.000 C 
ENDBRANCH  23  25
ENDBRANCH   1  23
TORSDOF 3
ENDMDL
MODEL 6
REMARK VINA RESULT:      -6.4      0.822      1.011
REMARK  Name = 
REMARK  4 active torsions:
REMARK  status: ('A' for Active; 'I' for Inactive)
REMARK    1  A    between atoms: C_2  and  C_3
REMARK    2  A    between atoms: C_3  and  N_4
REMARK    3  A    between atoms: C_5  and  S_6
REMARK    4  A    between atoms: S_6  and  C_7
REMARK                            x       y       z     vdW  Elec       q    Type
REMARK                         _______ _______ _______ _____ _____    ______ ____
ROOT
ATOM      1  N   UNL     1       1.975   8.862  18.631  0.00  0.00    +0.000 N 
ATOM      2  C   UNL     1       1.325   8.365  19.740  0.00  0.00    +0.000 A 
ATOM      3  N   UNL     1       1.538   7.185  20.227  0.00  0.00    +0.000 NA
ATOM      4  C   UNL     1       2.502   6.399  19.644  0.00  0.00    +0.000 A 
ATOM      5  C   UNL     1       3.213   6.748  18.545  0.00  0.00    +0.000 A 
ATOM      6  C   UNL     1       2.835   8.041  17.926  0.00  0.00    +0.000 A 
ATOM      7  O   UNL     1       3.260   8.348  16.818  0.00  0.00    +0.000 OA
ATOM      8  C   UNL     1       4.321   5.866  17.923  0.00  0.00    +0.000 C 
ATOM      9  C   UNL     1       3.680   4.921  16.865  0.00  0.00    +0.000 C 
ATOM     10  C   UNL     1       4.698   4.019  16.157  0.00  0.00    +0.000 C 
ATOM     11  C   UNL     1       5.833   4.824  15.534  0.00  0.00    +0.000 C 
ATOM     12  C   UNL     1       6.505   5.754  16.539  0.00  0.00    +0.000 C 
ATOM     13  C   UNL     1       5.475   6.653  17.227  0.00  0.00    +0.000 C 
ATOM     14  C   UNL     1       4.973   5.048  19.079  0.00  0.00    +0.000 C 
ATOM     15  C   UNL     1       3.944   4.368  19.938  0.00  0.00    +0.000 A 
ATOM     16  C   UNL     1       4.184   3.081  20.442  0.00  0.00    +0.000 A 
ATOM     17  C   UNL     1       3.232   2.460  21.245  0.00  0.00    +0.000 A 
ATOM     18  C   UNL     1       2.054   3.130  21.558  0.00  0.00    +0.000 A 
ATOM     19  C   UNL     1       1.819   4.418  21.064  0.00  0.00    +0.000 A 
ATOM     20  C   UNL     1       2.755   5.054  20.236  0.00  0.00    +0.000 A 
ENDROOT
BRANCH   2  21
ATOM     21  S   UNL     1       0.133   9.411  20.502  0.00  0.00    +0.000 S 
ATOM     22  C   UNL     1       0.642   9.441  22.224  0.00  0.00    +0.000 C 
ENDBRANCH   2  21
BRANCH   1  23
ATOM     23  C   UNL     1       1.752  10.188  18.052  0.00  0.00    +0.000 C 
BRANCH  23  25
ATOM     24  C   UNL     1       1.898  12.539  18.907  0.00  0.00    +0.000 C 
ATOM     25  C   UNL     1       2.220  11.245  19.018  0.00  0.00    +0.000 C 
ENDBRANCH  23  25
ENDBRANCH   1  23
TORSDOF 3
ENDMDL
MODEL 7
REMARK VINA RESULT:      -6.4      6.528     11.806
REMARK  Name = 
REMARK  4 active torsions:
REMARK  status: ('A' for Active; 'I' for Inactive)
REMARK    1  A    between atoms: C_2  and  C_3
REMARK    2  A    between atoms: C_3  and  N_4
REMARK    3  A    between atoms: C_5  and  S_6
REMARK    4  A    between atoms: S_6  and  C_7
REMARK                            x       y       z     vdW  Elec       q    Type
REMARK                         _______ _______ _______ _____ _____    ______ ____
ROOT
ATOM      1  N   UNL     1      -2.066  12.169  21.701  0.00  0.00    +0.000 N 
ATOM      2  C   UNL     1      -2.070  11.947  20.340  0.00  0.00    +0.000 A 
ATOM      3  N   UNL     1      -3.094  12.171  19.581  0.00  0.00    +0.000 NA
ATOM      4  C   UNL     1      -4.223  12.712  20.145  0.00  0.00    +0.000 A 
ATOM      5  C   UNL     1      -4.370  12.974  21.466  0.00  0.00    +0.000 A 
ATOM      6  C   UNL     1      -3.234  12.562  22.327  0.00  0.00    +0.000 A 
ATOM      7  O   UNL     1      -3.349  12.554  23.547  0.00  0.00    +0.000 OA
ATOM      8  C   UNL     1      -5.636  13.616  22.080  0.00  0.00    +0.000 C 
ATOM      9  C   UNL     1      -6.632  12.489  22.479  0.00  0.00    +0.000 C 
ATOM     10  C   UNL     1      -7.916  13.013  23.131  0.00  0.00    +0.000 C 
ATOM     11  C   UNL     1      -7.620  13.909  24.328  0.00  0.00    +0.000 C 
ATOM     12  C   UNL     1      -6.659  15.043  23.981  0.00  0.00    +0.000 C 
ATOM     13  C   UNL     1      -5.379  14.498  23.342  0.00  0.00    +0.000 C 
ATOM     14  C   UNL     1      -6.256  14.552  20.999  0.00  0.00    +0.000 C 
ATOM     15  C   UNL     1      -6.401  13.863  19.672  0.00  0.00    +0.000 A 
ATOM     16  C   UNL     1      -7.527  14.104  18.870  0.00  0.00    +0.000 A 
ATOM     17  C   UNL     1      -7.651  13.470  17.637  0.00  0.00    +0.000 A 
ATOM     18  C   UNL     1      -6.646  12.613  17.200  0.00  0.00    +0.000 A 
ATOM     19  C   UNL     1      -5.518  12.380  17.996  0.00  0.00    +0.000 A 
ATOM     20  C   UNL     1      -5.382  12.992  19.250  0.00  0.00    +0.000 A 
ENDROOT
BRANCH   2  21
ATOM     21  S   UNL     1      -0.594  11.305  19.632  0.00  0.00    +0.000 S 
ATOM     22  C   UNL     1      -1.180  10.376  18.211  0.00  0.00    +0.000 C 
ENDBRANCH   2  21
BRANCH   1  23
ATOM     23  C   UNL     1      -0.928  11.919  22.588  0.00  0.00    +0.000 C 
BRANCH  23  25
ATOM     24  C   UNL     1       0.002   9.646  23.084  0.00  0.00    +0.000 C 
ATOM     25  C   UNL     1      -1.012  10.517  23.133  0.00  0.00    +0.000 C 
ENDBRANCH  23  25
ENDBRANCH   1  23
TORSDOF 3
ENDMDL
MODEL 8
REMARK VINA RESULT:      -6.3      1.729      4.221
REMARK  Name = 
REMARK  4 active torsions:
REMARK  status: ('A' for Active; 'I' for Inactive)
REMARK    1  A    between atoms: C_2  and  C_3
REMARK    2  A    between atoms: C_3  and  N_4
REMARK    3  A    between atoms: C_5  and  S_6
REMARK    4  A    between atoms: S_6  and  C_7
REMARK                            x       y       z     vdW  Elec       q    Type
REMARK                         _______ _______ _______ _____ _____    ______ ____
ROOT
ATOM      1  N   UNL     1       1.387   8.932  19.495  0.00  0.00    +0.000 N 
ATOM      2  C   UNL     1       2.142   9.311  18.406  0.00  0.00    +0.000 A 
ATOM      3  N   UNL     1       2.893   8.498  17.736  0.00  0.00    +0.000 NA
ATOM      4  C   UNL     1       2.901   7.171  18.089  0.00  0.00    +0.000 A 
ATOM      5  C   UNL     1       2.220   6.654  19.140  0.00  0.00    +0.000 A 
ATOM      6  C   UNL     1       1.493   7.640  19.976  0.00  0.00    +0.000 A 
ATOM      7  O   UNL     1       1.029   7.313  21.062  0.00  0.00    +0.000 OA
ATOM      8  C   UNL     1       2.212   5.150  19.503  0.00  0.00    +0.000 C 
ATOM      9  C   UNL     1       3.388   4.859  20.481  0.00  0.00    +0.000 C 
ATOM     10  C   UNL     1       3.455   3.397  20.935  0.00  0.00    +0.000 C 
ATOM     11  C   UNL     1       2.136   2.927  21.535  0.00  0.00    +0.000 C 
ATOM     12  C   UNL     1       0.953   3.175  20.604  0.00  0.00    +0.000 C 
ATOM     13  C   UNL     1       0.896   4.642  20.171  0.00  0.00    +0.000 C 
ATOM     14  C   UNL     1       2.378   4.348  18.177  0.00  0.00    +0.000 C 
ATOM     15  C   UNL     1       3.525   4.856  17.350  0.00  0.00    +0.000 A 
ATOM     16  C   UNL     1       4.341   3.959  16.645  0.00  0.00    +0.000 A 
ATOM     17  C   UNL     1       5.395   4.436  15.872  0.00  0.00    +0.000 A 
ATOM     18  C   UNL     1       5.623   5.806  15.791  0.00  0.00    +0.000 A 
ATOM     19  C   UNL     1       4.804   6.703  16.487  0.00  0.00    +0.000 A 
ATOM     20  C   UNL     1       3.748   6.242  17.287  0.00  0.00    +0.000 A 
ENDROOT
BRANCH   2  21
ATOM     21  S   UNL     1       2.073  11.006  17.939  0.00  0.00    +0.000 S 
ATOM     22  C   UNL     1       2.170  11.877  19.507  0.00  0.00    +0.000 C 
ENDBRANCH   2  21
BRANCH   1  23
ATOM     23  C   UNL     1       0.533   9.828  20.278  0.00  0.00    +0.000 C 
BRANCH  23  25
ATOM     24  C   UNL     1      -1.420  10.935  19.165  0.00  0.00    +0.000 C 
ATOM     25  C   UNL     1      -0.854   9.843  19.692  0.00  0.00    +0.000 C 
ENDBRANCH  23  25
ENDBRANCH   1  23
TORSDOF 3
ENDMDL
MODEL 9
REMARK VINA RESULT:      -6.2      2.725      6.106
REMARK  Name = 
REMARK  4 active torsions:
REMARK  status: ('A' for Active; 'I' for Inactive)
REMARK    1  A    between atoms: C_2  and  C_3
REMARK    2  A    between atoms: C_3  and  N_4
REMARK    3  A    between atoms: C_5  and  S_6
REMARK    4  A    between atoms: S_6  and  C_7
REMARK                            x       y       z     vdW  Elec       q    Type
REMARK                         _______ _______ _______ _____ _____    ______ ____
ROOT
ATOM      1  N   UNL     1       5.630   5.150  17.503  0.00  0.00    +0.000 N 
ATOM      2  C   UNL     1       5.493   6.508  17.312  0.00  0.00    +0.000 A 
ATOM      3  N   UNL     1       4.535   7.211  17.824  0.00  0.00    +0.000 NA
ATOM      4  C   UNL     1       3.632   6.586  18.649  0.00  0.00    +0.000 A 
ATOM      5  C   UNL     1       3.632   5.259  18.920  0.00  0.00    +0.000 A 
ATOM      6  C   UNL     1       4.652   4.461  18.195  0.00  0.00    +0.000 A 
ATOM      7  O   UNL     1       4.602   3.237  18.200  0.00  0.00    +0.000 OA
ATOM      8  C   UNL     1       2.628   4.577  19.879  0.00  0.00    +0.000 C 
ATOM      9  C   UNL     1       1.379   4.126  19.067  0.00  0.00    +0.000 C 
ATOM     10  C   UNL     1       0.328   3.405  19.917  0.00  0.00    +0.000 C 
ATOM     11  C   UNL     1       0.923   2.225  20.676  0.00  0.00    +0.000 C 
ATOM     12  C   UNL     1       2.142   2.622  21.504  0.00  0.00    +0.000 C 
ATOM     13  C   UNL     1       3.185   3.331  20.635  0.00  0.00    +0.000 C 
ATOM     14  C   UNL     1       2.238   5.622  20.968  0.00  0.00    +0.000 C 
ATOM     15  C   UNL     1       1.838   6.940  20.367  0.00  0.00    +0.000 A 
ATOM     16  C   UNL     1       0.785   7.680  20.924  0.00  0.00    +0.000 A 
ATOM     17  C   UNL     1       0.426   8.905  20.369  0.00  0.00    +0.000 A 
ATOM     18  C   UNL     1       1.128   9.397  19.274  0.00  0.00    +0.000 A 
ATOM     19  C   UNL     1       2.186   8.663  18.723  0.00  0.00    +0.000 A 
ATOM     20  C   UNL     1       2.551   7.417  19.254  0.00  0.00    +0.000 A 
ENDROOT
BRANCH   2  21
ATOM     21  S   UNL     1       6.694   7.296  16.297  0.00  0.00    +0.000 S 
ATOM     22  C   UNL     1       7.767   8.121  17.478  0.00  0.00    +0.000 C 
ENDBRANCH   2  21
BRANCH   1  23
ATOM     23  C   UNL     1       6.697   4.325  16.933  0.00  0.00    +0.000 C 
BRANCH  23  25
ATOM     24  C   UNL     1       6.545   4.166  14.436  0.00  0.00    +0.000 C 
ATOM     25  C   UNL     1       6.220   3.701  15.648  0.00  0.00    +0.000 C 
ENDBRANCH  23  25
ENDBRANCH   1  23
TORSDOF 3
ENDMDL
