MODEL 1
REMARK VINA RESULT:      -7.7      0.000      0.000
REMARK  Name = 
REMARK  9 active torsions:
REMARK  status: ('A' for Active; 'I' for Inactive)
REMARK    1  A    between atoms: C_1  and  C_2
REMARK    2  A    between atoms: C_2  and  C_3
REMARK    3  A    between atoms: C_2  and  C_4
REMARK    4  A    between atoms: C_4  and  N_5
REMARK    5  A    between atoms: C_10  and  C_12
REMARK    6  A    between atoms: C_12  and  C_13
REMARK    7  A    between atoms: C_12  and  C_19
REMARK    8  A    between atoms: C_19  and  C_20
REMARK    9  A    between atoms: C_19  and  C_21
REMARK                            x       y       z     vdW  Elec       q    Type
REMARK                         _______ _______ _______ _____ _____    ______ ____
ROOT
ATOM      1  N   UNL     1       6.349   4.125  14.325  0.00  0.00    +0.000 N 
ATOM      2  C   UNL     1       5.428   3.162  14.915  0.00  0.00    +0.000 C 
ATOM      3  C   UNL     1       4.983   3.894  16.173  0.00  0.00    +0.000 C 
ATOM      4  C   UNL     1       4.582   3.054  17.384  0.00  0.00    +0.000 C 
ATOM      5  N   UNL     1       4.414   3.947  18.552  0.00  0.00    +0.000 N 
ATOM      6  C   UNL     1       3.126   4.407  18.833  0.00  0.00    +0.000 C 
ATOM      7  O   UNL     1       2.163   4.037  18.149  0.00  0.00    +0.000 OA
ATOM      8  C   UNL     1       5.652   4.685  18.888  0.00  0.00    +0.000 C 
ATOM      9  C   UNL     1       6.148   5.520  17.687  0.00  0.00    +0.000 C 
ATOM     10  N   UNL     1       6.149   4.711  16.479  0.00  0.00    +0.000 N 
ATOM     11  C   UNL     1       6.859   4.985  15.311  0.00  0.00    +0.000 C 
ATOM     12  O   UNL     1       7.746   5.810  15.182  0.00  0.00    +0.000 OA
ENDROOT
BRANCH   1  13
ATOM     13  C   UNL     1       6.878   4.027  12.974  0.00  0.00    +0.000 C 
BRANCH  13  15
ATOM     14  C   UNL     1       4.963   3.335  11.453  0.00  0.00    +0.000 C 
ATOM     15  C   UNL     1       6.247   2.885  12.156  0.00  0.00    +0.000 C 
ATOM     16  C   UNL     1       7.240   2.347  11.125  0.00  0.00    +0.000 C 
ENDBRANCH  13  15
ENDBRANCH   1  13
BRANCH   6  17
ATOM     17  C   UNL     1       2.921   5.394  20.013  0.00  0.00    +0.000 C 
BRANCH  17  18
ATOM     18  C   UNL     1       2.462   6.752  19.486  0.00  0.00    +0.000 A 
ATOM     19  C   UNL     1       1.784   7.659  20.309  0.00  0.00    +0.000 A 
ATOM     20  C   UNL     1       1.427   8.894  19.793  0.00  0.00    +0.000 A 
ATOM     21  N   UNL     1       1.687   9.282  18.527  0.00  0.00    +0.000 NA
ATOM     22  C   UNL     1       2.340   8.398  17.746  0.00  0.00    +0.000 A 
ATOM     23  C   UNL     1       2.750   7.145  18.174  0.00  0.00    +0.000 A 
ENDBRANCH  17  18
BRANCH  17  24
ATOM     24  C   UNL     1       1.899   4.835  21.061  0.00  0.00    +0.000 C 
ATOM     25  C   UNL     1       0.547   4.493  20.417  0.00  0.00    +0.000 C 
ATOM     26  C   UNL     1       2.421   3.571  21.765  0.00  0.00    +0.000 C 
ENDBRANCH  17  24
ENDBRANCH   6  17
TORSDOF 5
ENDMDL
MODEL 2
REMARK VINA RESULT:      -7.0      1.182      1.423
REMARK  Name = 
REMARK  9 active torsions:
REMARK  status: ('A' for Active; 'I' for Inactive)
REMARK    1  A    between atoms: C_1  and  C_2
REMARK    2  A    between atoms: C_2  and  C_3
REMARK    3  A    between atoms: C_2  and  C_4
REMARK    4  A    between atoms: C_4  and  N_5
REMARK    5  A    between atoms: C_10  and  C_12
REMARK    6  A    between atoms: C_12  and  C_13
REMARK    7  A    between atoms: C_12  and  C_19
REMARK    8  A    between atoms: C_19  and  C_20
REMARK    9  A    between atoms: C_19  and  C_21
REMARK                            x       y       z     vdW  Elec       q    Type
REMARK                         _______ _______ _______ _____ _____    ______ ____
ROOT
ATOM      1  N   UNL     1       6.661   4.445  15.026  0.00  0.00    +0.000 N 
ATOM      2  C   UNL     1       5.260   4.053  14.943  0.00  0.00    +0.000 C 
ATOM      3  C   UNL     1       4.758   4.404  16.336  0.00  0.00    +0.000 C 
ATOM      4  C   UNL     1       3.603   3.584  16.907  0.00  0.00    +0.000 C 
ATOM      5  N   UNL     1       3.432   3.928  18.336  0.00  0.00    +0.000 N 
ATOM      6  C   UNL     1       2.489   4.906  18.656  0.00  0.00    +0.000 C 
ATOM      7  O   UNL     1       1.797   5.426  17.772  0.00  0.00    +0.000 OA
ATOM      8  C   UNL     1       4.643   3.645  19.139  0.00  0.00    +0.000 C 
ATOM      9  C   UNL     1       5.869   4.403  18.584  0.00  0.00    +0.000 C 
ATOM     10  N   UNL     1       5.958   4.232  17.144  0.00  0.00    +0.000 N 
ATOM     11  C   UNL     1       7.093   4.441  16.362  0.00  0.00    +0.000 C 
ATOM     12  O   UNL     1       8.232   4.589  16.769  0.00  0.00    +0.000 OA
ENDROOT
BRANCH   1  13
ATOM     13  C   UNL     1       7.551   4.548  13.881  0.00  0.00    +0.000 C 
BRANCH  13  15
ATOM     14  C   UNL     1       7.467   5.485  11.521  0.00  0.00    +0.000 C 
ATOM     15  C   UNL     1       6.807   4.545  12.533  0.00  0.00    +0.000 C 
ATOM     16  C   UNL     1       6.739   3.130  11.957  0.00  0.00    +0.000 C 
ENDBRANCH  13  15
ENDBRANCH   1  13
BRANCH   6  17
ATOM     17  C   UNL     1       2.325   5.336  20.139  0.00  0.00    +0.000 C 
BRANCH  17  18
ATOM     18  C   UNL     1       1.792   6.765  20.213  0.00  0.00    +0.000 A 
ATOM     19  C   UNL     1       0.983   7.184  21.275  0.00  0.00    +0.000 A 
ATOM     20  C   UNL     1       0.560   8.503  21.317  0.00  0.00    +0.000 A 
ATOM     21  N   UNL     1       0.876   9.421  20.380  0.00  0.00    +0.000 NA
ATOM     22  C   UNL     1       1.656   9.004  19.363  0.00  0.00    +0.000 A 
ATOM     23  C   UNL     1       2.139   7.710  19.240  0.00  0.00    +0.000 A 
ENDBRANCH  17  18
BRANCH  17  24
ATOM     24  C   UNL     1       1.388   4.357  20.923  0.00  0.00    +0.000 C 
ATOM     25  C   UNL     1       0.512   3.521  19.978  0.00  0.00    +0.000 C 
ATOM     26  C   UNL     1       2.179   3.386  21.816  0.00  0.00    +0.000 C 
ENDBRANCH  17  24
ENDBRANCH   6  17
TORSDOF 5
ENDMDL
MODEL 3
REMARK VINA RESULT:      -6.8      4.470      7.435
REMARK  Name = 
REMARK  9 active torsions:
REMARK  status: ('A' for Active; 'I' for Inactive)
REMARK    1  A    between atoms: C_1  and  C_2
REMARK    2  A    between atoms: C_2  and  C_3
REMARK    3  A    between atoms: C_2  and  C_4
REMARK    4  A    between atoms: C_4  and  N_5
REMARK    5  A    between atoms: C_10  and  C_12
REMARK    6  A    between atoms: C_12  and  C_13
REMARK    7  A    between atoms: C_12  and  C_19
REMARK    8  A    between atoms: C_19  and  C_20
REMARK    9  A    between atoms: C_19  and  C_21
REMARK                            x       y       z     vdW  Elec       q    Type
REMARK                         _______ _______ _______ _____ _____    ______ ____
ROOT
ATOM      1  N   UNL     1       2.323   5.544  19.689  0.00  0.00    +0.000 N 
ATOM      2  C   UNL     1       1.901   6.395  20.794  0.00  0.00    +0.000 C 
ATOM      3  C   UNL     1       1.388   7.624  20.058  0.00  0.00    +0.000 C 
ATOM      4  C   UNL     1       1.483   8.973  20.767  0.00  0.00    +0.000 C 
ATOM      5  N   UNL     1       1.154  10.046  19.803  0.00  0.00    +0.000 N 
ATOM      6  C   UNL     1      -0.164  10.504  19.771  0.00  0.00    +0.000 C 
ATOM      7  O   UNL     1      -1.006  10.052  20.556  0.00  0.00    +0.000 OA
ATOM      8  C   UNL     1       2.071  10.067  18.641  0.00  0.00    +0.000 C 
ATOM      9  C   UNL     1       2.068   8.711  17.902  0.00  0.00    +0.000 C 
ATOM     10  N   UNL     1       2.205   7.621  18.852  0.00  0.00    +0.000 N 
ATOM     11  C   UNL     1       2.608   6.320  18.553  0.00  0.00    +0.000 C 
ATOM     12  O   UNL     1       3.108   5.941  17.509  0.00  0.00    +0.000 OA
ENDROOT
BRANCH   1  13
ATOM     13  C   UNL     1       2.670   4.139  19.826  0.00  0.00    +0.000 C 
BRANCH  13  15
ATOM     14  C   UNL     1       1.282   2.147  19.076  0.00  0.00    +0.000 C 
ATOM     15  C   UNL     1       1.457   3.241  20.132  0.00  0.00    +0.000 C 
ATOM     16  C   UNL     1       1.592   2.607  21.517  0.00  0.00    +0.000 C 
ENDBRANCH  13  15
ENDBRANCH   1  13
BRANCH   6  17
ATOM     17  C   UNL     1      -0.559  11.586  18.729  0.00  0.00    +0.000 C 
BRANCH  17  18
ATOM     18  C   UNL     1      -1.854  11.185  18.025  0.00  0.00    +0.000 A 
ATOM     19  C   UNL     1      -3.070  11.806  18.334  0.00  0.00    +0.000 A 
ATOM     20  C   UNL     1      -4.208  11.436  17.637  0.00  0.00    +0.000 A 
ATOM     21  N   UNL     1      -4.221  10.494  16.670  0.00  0.00    +0.000 NA
ATOM     22  C   UNL     1      -3.043   9.905  16.383  0.00  0.00    +0.000 A 
ATOM     23  C   UNL     1      -1.850  10.216  17.015  0.00  0.00    +0.000 A 
ENDBRANCH  17  18
BRANCH  17  24
ATOM     24  C   UNL     1      -0.705  12.997  19.392  0.00  0.00    +0.000 C 
ATOM     25  C   UNL     1       0.059  13.089  20.721  0.00  0.00    +0.000 C 
ATOM     26  C   UNL     1      -0.197  14.124  18.476  0.00  0.00    +0.000 C 
ENDBRANCH  17  24
ENDBRANCH   6  17
TORSDOF 5
ENDMDL
MODEL 4
REMARK VINA RESULT:      -6.8      4.166      7.025
REMARK  Name = 
REMARK  9 active torsions:
REMARK  status: ('A' for Active; 'I' for Inactive)
REMARK    1  A    between atoms: C_1  and  C_2
REMARK    2  A    between atoms: C_2  and  C_3
REMARK    3  A    between atoms: C_2  and  C_4
REMARK    4  A    between atoms: C_4  and  N_5
REMARK    5  A    between atoms: C_10  and  C_12
REMARK    6  A    between atoms: C_12  and  C_13
REMARK    7  A    between atoms: C_12  and  C_19
REMARK    8  A    between atoms: C_19  and  C_20
REMARK    9  A    between atoms: C_19  and  C_21
REMARK                            x       y       z     vdW  Elec       q    Type
REMARK                         _______ _______ _______ _____ _____    ______ ____
ROOT
ATOM      1  N   UNL     1       2.620   4.906  19.566  0.00  0.00    +0.000 N 
ATOM      2  C   UNL     1       2.209   5.765  20.670  0.00  0.00    +0.000 C 
ATOM      3  C   UNL     1       1.701   6.994  19.931  0.00  0.00    +0.000 C 
ATOM      4  C   UNL     1       1.810   8.345  20.635  0.00  0.00    +0.000 C 
ATOM      5  N   UNL     1       1.484   9.417  19.667  0.00  0.00    +0.000 N 
ATOM      6  C   UNL     1       0.169   9.884  19.640  0.00  0.00    +0.000 C 
ATOM      7  O   UNL     1      -0.673   9.442  20.431  0.00  0.00    +0.000 OA
ATOM      8  C   UNL     1       2.395   9.427  18.501  0.00  0.00    +0.000 C 
ATOM      9  C   UNL     1       2.378   8.068  17.768  0.00  0.00    +0.000 C 
ATOM     10  N   UNL     1       2.513   6.980  18.721  0.00  0.00    +0.000 N 
ATOM     11  C   UNL     1       2.905   5.675  18.426  0.00  0.00    +0.000 C 
ATOM     12  O   UNL     1       3.397   5.289  17.381  0.00  0.00    +0.000 OA
ENDROOT
BRANCH   1  13
ATOM     13  C   UNL     1       2.958   3.499  19.707  0.00  0.00    +0.000 C 
BRANCH  13  15
ATOM     14  C   UNL     1       1.347   2.707  21.506  0.00  0.00    +0.000 C 
ATOM     15  C   UNL     1       1.741   2.613  20.030  0.00  0.00    +0.000 C 
ATOM     16  C   UNL     1       0.548   2.993  19.151  0.00  0.00    +0.000 C 
ENDBRANCH  13  15
ENDBRANCH   1  13
BRANCH   6  17
ATOM     17  C   UNL     1      -0.223  10.964  18.596  0.00  0.00    +0.000 C 
BRANCH  17  18
ATOM     18  C   UNL     1      -1.709  10.851  18.259  0.00  0.00    +0.000 A 
ATOM     19  C   UNL     1      -2.648  11.729  18.813  0.00  0.00    +0.000 A 
ATOM     20  C   UNL     1      -3.978  11.609  18.442  0.00  0.00    +0.000 A 
ATOM     21  N   UNL     1      -4.434  10.681  17.575  0.00  0.00    +0.000 NA
ATOM     22  C   UNL     1      -3.518   9.843  17.049  0.00  0.00    +0.000 A 
ATOM     23  C   UNL     1      -2.165   9.891  17.347  0.00  0.00    +0.000 A 
ENDBRANCH  17  18
BRANCH  17  24
ATOM     24  C   UNL     1       0.118  12.406  19.102  0.00  0.00    +0.000 C 
ATOM     25  C   UNL     1       0.389  12.434  20.614  0.00  0.00    +0.000 C 
ATOM     26  C   UNL     1       1.348  12.996  18.391  0.00  0.00    +0.000 C 
ENDBRANCH  17  24
ENDBRANCH   6  17
TORSDOF 5
ENDMDL
MODEL 5
REMARK VINA RESULT:      -6.7      0.380      1.201
REMARK  Name = 
REMARK  9 active torsions:
REMARK  status: ('A' for Active; 'I' for Inactive)
REMARK    1  A    between atoms: C_1  and  C_2
REMARK    2  A    between atoms: C_2  and  C_3
REMARK    3  A    between atoms: C_2  and  C_4
REMARK    4  A    between atoms: C_4  and  N_5
REMARK    5  A    between atoms: C_10  and  C_12
REMARK    6  A    between atoms: C_12  and  C_13
REMARK    7  A    between atoms: C_12  and  C_19
REMARK    8  A    between atoms: C_19  and  C_20
REMARK    9  A    between atoms: C_19  and  C_21
REMARK                            x       y       z     vdW  Elec       q    Type
REMARK                         _______ _______ _______ _____ _____    ______ ____
ROOT
ATOM      1  N   UNL     1       6.401   4.309  14.155  0.00  0.00    +0.000 N 
ATOM      2  C   UNL     1       5.390   3.377  14.635  0.00  0.00    +0.000 C 
ATOM      3  C   UNL     1       4.975   4.025  15.949  0.00  0.00    +0.000 C 
ATOM      4  C   UNL     1       4.476   3.114  17.068  0.00  0.00    +0.000 C 
ATOM      5  N   UNL     1       4.352   3.906  18.312  0.00  0.00    +0.000 N 
ATOM      6  C   UNL     1       3.100   4.445  18.612  0.00  0.00    +0.000 C 
ATOM      7  O   UNL     1       2.127   4.222  17.880  0.00  0.00    +0.000 OA
ATOM      8  C   UNL     1       5.638   4.503  18.737  0.00  0.00    +0.000 C 
ATOM      9  C   UNL     1       6.231   5.400  17.629  0.00  0.00    +0.000 C 
ATOM     10  N   UNL     1       6.196   4.709  16.351  0.00  0.00    +0.000 N 
ATOM     11  C   UNL     1       6.956   5.028  15.226  0.00  0.00    +0.000 C 
ATOM     12  O   UNL     1       7.910   5.785  15.191  0.00  0.00    +0.000 OA
ENDROOT
BRANCH   1  13
ATOM     13  C   UNL     1       6.955   4.292  12.810  0.00  0.00    +0.000 C 
BRANCH  13  15
ATOM     14  C   UNL     1       6.414   2.006  11.843  0.00  0.00    +0.000 C 
ATOM     15  C   UNL     1       6.092   3.502  11.809  0.00  0.00    +0.000 C 
ATOM     16  C   UNL     1       4.605   3.717  12.091  0.00  0.00    +0.000 C 
ENDBRANCH  13  15
ENDBRANCH   1  13
BRANCH   6  17
ATOM     17  C   UNL     1       2.947   5.332  19.877  0.00  0.00    +0.000 C 
BRANCH  17  18
ATOM     18  C   UNL     1       2.480   6.731  19.480  0.00  0.00    +0.000 A 
ATOM     19  C   UNL     1       2.703   7.232  18.192  0.00  0.00    +0.000 A 
ATOM     20  C   UNL     1       2.223   8.491  17.870  0.00  0.00    +0.000 A 
ATOM     21  N   UNL     1       1.551   9.281  18.734  0.00  0.00    +0.000 NA
ATOM     22  C   UNL     1       1.343   8.785  19.970  0.00  0.00    +0.000 A 
ATOM     23  C   UNL     1       1.773   7.533  20.383  0.00  0.00    +0.000 A 
ENDBRANCH  17  18
BRANCH  17  24
ATOM     24  C   UNL     1       1.960   4.695  20.912  0.00  0.00    +0.000 C 
ATOM     25  C   UNL     1       0.617   4.320  20.270  0.00  0.00    +0.000 C 
ATOM     26  C   UNL     1       2.541   3.429  21.565  0.00  0.00    +0.000 C 
ENDBRANCH  17  24
ENDBRANCH   6  17
TORSDOF 5
ENDMDL
MODEL 6
REMARK VINA RESULT:      -6.6      3.977      6.991
REMARK  Name = 
REMARK  9 active torsions:
REMARK  status: ('A' for Active; 'I' for Inactive)
REMARK    1  A    between atoms: C_1  and  C_2
REMARK    2  A    between atoms: C_2  and  C_3
REMARK    3  A    between atoms: C_2  and  C_4
REMARK    4  A    between atoms: C_4  and  N_5
REMARK    5  A    between atoms: C_10  and  C_12
REMARK    6  A    between atoms: C_12  and  C_13
REMARK    7  A    between atoms: C_12  and  C_19
REMARK    8  A    between atoms: C_19  and  C_20
REMARK    9  A    between atoms: C_19  and  C_21
REMARK                            x       y       z     vdW  Elec       q    Type
REMARK                         _______ _______ _______ _____ _____    ______ ____
ROOT
ATOM      1  N   UNL     1       2.651   5.340  19.397  0.00  0.00    +0.000 N 
ATOM      2  C   UNL     1       2.071   6.100  20.497  0.00  0.00    +0.000 C 
ATOM      3  C   UNL     1       1.571   7.346  19.780  0.00  0.00    +0.000 C 
ATOM      4  C   UNL     1       1.518   8.652  20.570  0.00  0.00    +0.000 C 
ATOM      5  N   UNL     1       1.233   9.765  19.637  0.00  0.00    +0.000 N 
ATOM      6  C   UNL     1      -0.098  10.160  19.490  0.00  0.00    +0.000 C 
ATOM      7  O   UNL     1      -0.991   9.621  20.155  0.00  0.00    +0.000 OA
ATOM      8  C   UNL     1       2.264   9.902  18.583  0.00  0.00    +0.000 C 
ATOM      9  C   UNL     1       2.410   8.595  17.773  0.00  0.00    +0.000 C 
ATOM     10  N   UNL     1       2.508   7.456  18.670  0.00  0.00    +0.000 N 
ATOM     11  C   UNL     1       3.010   6.197  18.344  0.00  0.00    +0.000 C 
ATOM     12  O   UNL     1       3.635   5.908  17.339  0.00  0.00    +0.000 OA
ENDROOT
BRANCH   1  13
ATOM     13  C   UNL     1       3.058   3.947  19.491  0.00  0.00    +0.000 C 
BRANCH  13  15
ATOM     14  C   UNL     1       3.075   1.739  18.235  0.00  0.00    +0.000 C 
ATOM     15  C   UNL     1       2.298   3.026  18.520  0.00  0.00    +0.000 C 
ATOM     16  C   UNL     1       0.914   2.683  19.073  0.00  0.00    +0.000 C 
ENDBRANCH  13  15
ENDBRANCH   1  13
BRANCH   6  17
ATOM     17  C   UNL     1      -0.441  11.283  18.475  0.00  0.00    +0.000 C 
BRANCH  17  18
ATOM     18  C   UNL     1      -1.852  11.080  17.928  0.00  0.00    +0.000 A 
ATOM     19  C   UNL     1      -2.104  10.178  16.887  0.00  0.00    +0.000 A 
ATOM     20  C   UNL     1      -3.408  10.000  16.456  0.00  0.00    +0.000 A 
ATOM     21  N   UNL     1      -4.467  10.656  16.976  0.00  0.00    +0.000 NA
ATOM     22  C   UNL     1      -4.209  11.521  17.978  0.00  0.00    +0.000 A 
ATOM     23  C   UNL     1      -2.942  11.758  18.487  0.00  0.00    +0.000 A 
ENDBRANCH  17  18
BRANCH  17  24
ATOM     24  C   UNL     1      -0.297  12.704  19.118  0.00  0.00    +0.000 C 
ATOM     25  C   UNL     1      -0.128  12.630  20.642  0.00  0.00    +0.000 C 
ATOM     26  C   UNL     1       0.901  13.482  18.547  0.00  0.00    +0.000 C 
ENDBRANCH  17  24
ENDBRANCH   6  17
TORSDOF 5
ENDMDL
MODEL 7
REMARK VINA RESULT:      -6.4      3.992      6.759
REMARK  Name = 
REMARK  9 active torsions:
REMARK  status: ('A' for Active; 'I' for Inactive)
REMARK    1  A    between atoms: C_1  and  C_2
REMARK    2  A    between atoms: C_2  and  C_3
REMARK    3  A    between atoms: C_2  and  C_4
REMARK    4  A    between atoms: C_4  and  N_5
REMARK    5  A    between atoms: C_10  and  C_12
REMARK    6  A    between atoms: C_12  and  C_13
REMARK    7  A    between atoms: C_12  and  C_19
REMARK    8  A    between atoms: C_19  and  C_20
REMARK    9  A    between atoms: C_19  and  C_21
REMARK                            x       y       z     vdW  Elec       q    Type
REMARK                         _______ _______ _______ _____ _____    ______ ____
ROOT
ATOM      1  N   UNL     1       2.110   4.544  19.563  0.00  0.00    +0.000 N 
ATOM      2  C   UNL     1       1.853   5.439  20.684  0.00  0.00    +0.000 C 
ATOM      3  C   UNL     1       1.481   6.729  19.967  0.00  0.00    +0.000 C 
ATOM      4  C   UNL     1       1.787   8.050  20.671  0.00  0.00    +0.000 C 
ATOM      5  N   UNL     1       1.568   9.162  19.719  0.00  0.00    +0.000 N 
ATOM      6  C   UNL     1       0.323   9.795  19.741  0.00  0.00    +0.000 C 
ATOM      7  O   UNL     1      -0.539   9.457  20.561  0.00  0.00    +0.000 OA
ATOM      8  C   UNL     1       2.431   9.064  18.520  0.00  0.00    +0.000 C 
ATOM      9  C   UNL     1       2.213   7.724  17.784  0.00  0.00    +0.000 C 
ATOM     10  N   UNL     1       2.241   6.621  18.729  0.00  0.00    +0.000 N 
ATOM     11  C   UNL     1       2.451   5.279  18.416  0.00  0.00    +0.000 C 
ATOM     12  O   UNL     1       2.852   4.840  17.352  0.00  0.00    +0.000 OA
ENDROOT
BRANCH   1  13
ATOM     13  C   UNL     1       2.270   3.104  19.687  0.00  0.00    +0.000 C 
BRANCH  13  15
ATOM     14  C   UNL     1       4.455   2.125  20.537  0.00  0.00    +0.000 C 
ATOM     15  C   UNL     1       3.680   2.615  19.311  0.00  0.00    +0.000 C 
ATOM     16  C   UNL     1       3.604   1.500  18.267  0.00  0.00    +0.000 C 
ENDBRANCH  13  15
ENDBRANCH   1  13
BRANCH   6  17
ATOM     17  C   UNL     1       0.036  10.924  18.716  0.00  0.00    +0.000 C 
BRANCH  17  18
ATOM     18  C   UNL     1      -1.414  10.845  18.243  0.00  0.00    +0.000 A 
ATOM     19  C   UNL     1      -1.820   9.889  17.305  0.00  0.00    +0.000 A 
ATOM     20  C   UNL     1      -3.156   9.832  16.941  0.00  0.00    +0.000 A 
ATOM     21  N   UNL     1      -4.103  10.657  17.434  0.00  0.00    +0.000 NA
ATOM     22  C   UNL     1      -3.698  11.571  18.338  0.00  0.00    +0.000 A 
ATOM     23  C   UNL     1      -2.388  11.698  18.774  0.00  0.00    +0.000 A 
ENDBRANCH  17  18
BRANCH  17  24
ATOM     24  C   UNL     1       0.345  12.338  19.314  0.00  0.00    +0.000 C 
ATOM     25  C   UNL     1       1.010  12.244  20.695  0.00  0.00    +0.000 C 
ATOM     26  C   UNL     1       1.265  13.166  18.402  0.00  0.00    +0.000 C 
ENDBRANCH  17  24
ENDBRANCH   6  17
TORSDOF 5
ENDMDL
MODEL 8
REMARK VINA RESULT:      -6.4      4.561      8.326
REMARK  Name = 
REMARK  9 active torsions:
REMARK  status: ('A' for Active; 'I' for Inactive)
REMARK    1  A    between atoms: C_1  and  C_2
REMARK    2  A    between atoms: C_2  and  C_3
REMARK    3  A    between atoms: C_2  and  C_4
REMARK    4  A    between atoms: C_4  and  N_5
REMARK    5  A    between atoms: C_10  and  C_12
REMARK    6  A    between atoms: C_12  and  C_13
REMARK    7  A    between atoms: C_12  and  C_19
REMARK    8  A    between atoms: C_19  and  C_20
REMARK    9  A    between atoms: C_19  and  C_21
REMARK                            x       y       z     vdW  Elec       q    Type
REMARK                         _______ _______ _______ _____ _____    ______ ____
ROOT
ATOM      1  N   UNL     1       2.012   7.051  19.783  0.00  0.00    +0.000 N 
ATOM      2  C   UNL     1       1.699   7.662  21.068  0.00  0.00    +0.000 C 
ATOM      3  C   UNL     1       0.988   8.936  20.637  0.00  0.00    +0.000 C 
ATOM      4  C   UNL     1       1.086  10.154  21.555  0.00  0.00    +0.000 C 
ATOM      5  N   UNL     1       0.534  11.331  20.849  0.00  0.00    +0.000 N 
ATOM      6  C   UNL     1      -0.805  11.653  21.078  0.00  0.00    +0.000 C 
ATOM      7  O   UNL     1      -1.481  10.995  21.878  0.00  0.00    +0.000 OA
ATOM      8  C   UNL     1       1.260  11.635  19.595  0.00  0.00    +0.000 C 
ATOM      9  C   UNL     1       1.248  10.425  18.636  0.00  0.00    +0.000 C 
ATOM     10  N   UNL     1       1.611   9.213  19.350  0.00  0.00    +0.000 N 
ATOM     11  C   UNL     1       2.062   8.026  18.774  0.00  0.00    +0.000 C 
ATOM     12  O   UNL     1       2.426   7.877  17.621  0.00  0.00    +0.000 OA
ENDROOT
BRANCH   1  13
ATOM     13  C   UNL     1       2.482   5.684  19.621  0.00  0.00    +0.000 C 
BRANCH  13  15
ATOM     14  C   UNL     1       1.723   3.997  17.879  0.00  0.00    +0.000 C 
ATOM     15  C   UNL     1       1.373   4.708  19.189  0.00  0.00    +0.000 C 
ATOM     16  C   UNL     1       1.108   3.674  20.284  0.00  0.00    +0.000 C 
ENDBRANCH  13  15
ENDBRANCH   1  13
BRANCH   6  17
ATOM     17  C   UNL     1      -1.434  12.845  20.308  0.00  0.00    +0.000 C 
BRANCH  17  18
ATOM     18  C   UNL     1      -2.658  12.374  19.526  0.00  0.00    +0.000 A 
ATOM     19  C   UNL     1      -3.955  12.599  20.003  0.00  0.00    +0.000 A 
ATOM     20  C   UNL     1      -5.033  12.189  19.235  0.00  0.00    +0.000 A 
ATOM     21  N   UNL     1      -4.911  11.569  18.042  0.00  0.00    +0.000 NA
ATOM     22  C   UNL     1      -3.656  11.359  17.596  0.00  0.00    +0.000 A 
ATOM     23  C   UNL     1      -2.516  11.743  18.284  0.00  0.00    +0.000 A 
ENDBRANCH  17  18
BRANCH  17  24
ATOM     24  C   UNL     1      -1.814  14.018  21.273  0.00  0.00    +0.000 C 
ATOM     25  C   UNL     1      -0.848  14.117  22.463  0.00  0.00    +0.000 C 
ATOM     26  C   UNL     1      -1.823  15.379  20.557  0.00  0.00    +0.000 C 
ENDBRANCH  17  24
ENDBRANCH   6  17
TORSDOF 5
ENDMDL
MODEL 9
REMARK VINA RESULT:      -6.3      4.279      7.565
REMARK  Name = 
REMARK  9 active torsions:
REMARK  status: ('A' for Active; 'I' for Inactive)
REMARK    1  A    between atoms: C_1  and  C_2
REMARK    2  A    between atoms: C_2  and  C_3
REMARK    3  A    between atoms: C_2  and  C_4
REMARK    4  A    between atoms: C_4  and  N_5
REMARK    5  A    between atoms: C_10  and  C_12
REMARK    6  A    between atoms: C_12  and  C_13
REMARK    7  A    between atoms: C_12  and  C_19
REMARK    8  A    between atoms: C_19  and  C_20
REMARK    9  A    between atoms: C_19  and  C_21
REMARK                            x       y       z     vdW  Elec       q    Type
REMARK                         _______ _______ _______ _____ _____    ______ ____
ROOT
ATOM      1  N   UNL     1       2.584   6.176  19.495  0.00  0.00    +0.000 N 
ATOM      2  C   UNL     1       1.918   6.896  20.573  0.00  0.00    +0.000 C 
ATOM      3  C   UNL     1       1.356   8.102  19.834  0.00  0.00    +0.000 C 
ATOM      4  C   UNL     1       1.188   9.404  20.616  0.00  0.00    +0.000 C 
ATOM      5  N   UNL     1       0.856  10.492  19.670  0.00  0.00    +0.000 N 
ATOM      6  C   UNL     1      -0.494  10.794  19.479  0.00  0.00    +0.000 C 
ATOM      7  O   UNL     1      -1.368  10.195  20.118  0.00  0.00    +0.000 OA
ATOM      8  C   UNL     1       1.908  10.698  18.648  0.00  0.00    +0.000 C 
ATOM      9  C   UNL     1       2.170   9.402  17.850  0.00  0.00    +0.000 C 
ATOM     10  N   UNL     1       2.318   8.275  18.754  0.00  0.00    +0.000 N 
ATOM     11  C   UNL     1       2.916   7.052  18.450  0.00  0.00    +0.000 C 
ATOM     12  O   UNL     1       3.591   6.805  17.467  0.00  0.00    +0.000 OA
ENDROOT
BRANCH   1  13
ATOM     13  C   UNL     1       3.083   4.815  19.609  0.00  0.00    +0.000 C 
BRANCH  13  15
ATOM     14  C   UNL     1       0.942   3.620  20.276  0.00  0.00    +0.000 C 
ATOM     15  C   UNL     1       2.041   3.752  19.218  0.00  0.00    +0.000 C 
ATOM     16  C   UNL     1       1.415   4.082  17.862  0.00  0.00    +0.000 C 
ENDBRANCH  13  15
ENDBRANCH   1  13
BRANCH   6  17
ATOM     17  C   UNL     1      -0.881  11.888  18.449  0.00  0.00    +0.000 C 
BRANCH  17  18
ATOM     18  C   UNL     1      -2.221  11.545  17.801  0.00  0.00    +0.000 A 
ATOM     19  C   UNL     1      -2.289  10.752  16.649  0.00  0.00    +0.000 A 
ATOM     20  C   UNL     1      -3.532  10.435  16.126  0.00  0.00    +0.000 A 
ATOM     21  N   UNL     1      -4.699  10.855  16.658  0.00  0.00    +0.000 NA
ATOM     22  C   UNL     1      -4.618  11.617  17.767  0.00  0.00    +0.000 A 
ATOM     23  C   UNL     1      -3.424  11.977  18.372  0.00  0.00    +0.000 A 
ENDBRANCH  17  18
BRANCH  17  24
ATOM     24  C   UNL     1      -0.934  13.307  19.107  0.00  0.00    +0.000 C 
ATOM     25  C   UNL     1      -1.003  13.226  20.639  0.00  0.00    +0.000 C 
ATOM     26  C   UNL     1       0.286  14.167  18.735  0.00  0.00    +0.000 C 
ENDBRANCH  17  24
ENDBRANCH   6  17
TORSDOF 5
ENDMDL
