MODEL 1
REMARK VINA RESULT:      -8.7      0.000      0.000
REMARK  Name = 
REMARK  9 active torsions:
REMARK  status: ('A' for Active; 'I' for Inactive)
REMARK    1  A    between atoms: C_1  and  C_2
REMARK    2  A    between atoms: C_2  and  C_3
REMARK    3  A    between atoms: C_2  and  C_18
REMARK    4  A    between atoms: C_2  and  S_22
REMARK    5  A    between atoms: C_3  and  C_4
REMARK    6  A    between atoms: C_4  and  C_5
REMARK    7  A    between atoms: C_8  and  C_9
REMARK    8  A    between atoms: N_20  and  O_21
REMARK    9  A    between atoms: S_22  and  C_23
REMARK                            x       y       z     vdW  Elec       q    Type
REMARK                         _______ _______ _______ _____ _____    ______ ____
ROOT
ATOM      1  C   UNL     1       3.707   6.847  17.044  0.00  0.00    +0.000 C 
ENDROOT
BRANCH   1   2
ATOM      2  C   UNL     1       2.860   7.573  18.056  0.00  0.00    +0.000 A 
ATOM      3  C   UNL     1       2.211   8.761  17.716  0.00  0.00    +0.000 A 
ATOM      4  C   UNL     1       1.424   9.432  18.656  0.00  0.00    +0.000 A 
ATOM      5  C   UNL     1       1.238   8.932  19.957  0.00  0.00    +0.000 A 
ATOM      6  C   UNL     1       1.877   7.722  20.275  0.00  0.00    +0.000 A 
ATOM      7  C   UNL     1       2.684   7.055  19.343  0.00  0.00    +0.000 A 
BRANCH   5   8
ATOM      8  C   UNL     1       0.426   9.678  20.947  0.00  0.00    +0.000 A 
ATOM      9  C   UNL     1       0.293   9.223  22.275  0.00  0.00    +0.000 A 
ATOM     10  C   UNL     1      -0.546   9.870  23.187  0.00  0.00    +0.000 A 
ATOM     11  C   UNL     1      -1.246  10.997  22.788  0.00  0.00    +0.000 A 
ATOM     12  F   UNL     1      -2.065  11.607  23.654  0.00  0.00    +0.000 F 
ATOM     13  C   UNL     1      -1.112  11.498  21.502  0.00  0.00    +0.000 A 
ATOM     14  C   UNL     1      -0.283  10.841  20.588  0.00  0.00    +0.000 A 
ENDBRANCH   5   8
ENDBRANCH   1   2
BRANCH   1  15
ATOM     15  C   UNL     1       5.152   6.629  17.523  0.00  0.00    +0.000 C 
BRANCH  15  17
ATOM     16  C   UNL     1       4.361   4.221  17.339  0.00  0.00    +0.000 C 
ATOM     17  C   UNL     1       5.569   5.137  17.603  0.00  0.00    +0.000 C 
BRANCH  17  18
ATOM     18  C   UNL     1       6.196   4.825  18.957  0.00  0.00    +0.000 C 
ATOM     19  O   UNL     1       5.761   3.946  19.704  0.00  0.00    +0.000 OA
ATOM     20  N   UNL     1       7.263   5.606  19.342  0.00  0.00    +0.000 N 
ATOM     21  H   UNL     1       7.905   6.010  18.654  0.00  0.00    +0.000 HD
BRANCH  20  22
ATOM     22  O   UNL     1       7.840   5.259  20.588  0.00  0.00    +0.000 OA
ATOM     23  H   UNL     1       8.573   4.657  20.331  0.00  0.00    +0.000 HD
ENDBRANCH  20  22
ENDBRANCH  17  18
BRANCH  17  24
ATOM     24  S   UNL     1       6.844   4.824  16.349  0.00  0.00    +0.000 S 
ATOM     25  C   UNL     1       6.166   3.611  15.234  0.00  0.00    +0.000 C 
ATOM     26  O   UNL     1       7.043   6.045  15.590  0.00  0.00    +0.000 OA
ATOM     27  O   UNL     1       7.973   4.201  17.024  0.00  0.00    +0.000 OA
ENDBRANCH  17  24
ENDBRANCH  15  17
ENDBRANCH   1  15
TORSDOF 7
ENDMDL
MODEL 2
REMARK VINA RESULT:      -8.6      1.137      1.945
REMARK  Name = 
REMARK  9 active torsions:
REMARK  status: ('A' for Active; 'I' for Inactive)
REMARK    1  A    between atoms: C_1  and  C_2
REMARK    2  A    between atoms: C_2  and  C_3
REMARK    3  A    between atoms: C_2  and  C_18
REMARK    4  A    between atoms: C_2  and  S_22
REMARK    5  A    between atoms: C_3  and  C_4
REMARK    6  A    between atoms: C_4  and  C_5
REMARK    7  A    between atoms: C_8  and  C_9
REMARK    8  A    between atoms: N_20  and  O_21
REMARK    9  A    between atoms: S_22  and  C_23
REMARK                            x       y       z     vdW  Elec       q    Type
REMARK                         _______ _______ _______ _____ _____    ______ ____
ROOT
ATOM      1  C   UNL     1       3.157   5.995  17.555  0.00  0.00    +0.000 C 
ENDROOT
BRANCH   1   2
ATOM      2  C   UNL     1       2.477   6.982  18.469  0.00  0.00    +0.000 A 
ATOM      3  C   UNL     1       2.249   6.666  19.809  0.00  0.00    +0.000 A 
ATOM      4  C   UNL     1       1.620   7.583  20.655  0.00  0.00    +0.000 A 
ATOM      5  C   UNL     1       1.218   8.852  20.203  0.00  0.00    +0.000 A 
ATOM      6  C   UNL     1       1.477   9.163  18.858  0.00  0.00    +0.000 A 
ATOM      7  C   UNL     1       2.090   8.241  17.999  0.00  0.00    +0.000 A 
BRANCH   5   8
ATOM      8  C   UNL     1       0.522   9.795  21.110  0.00  0.00    +0.000 A 
ATOM      9  C   UNL     1      -0.040   9.358  22.327  0.00  0.00    +0.000 A 
ATOM     10  C   UNL     1      -0.779  10.221  23.141  0.00  0.00    +0.000 A 
ATOM     11  C   UNL     1      -0.944  11.543  22.760  0.00  0.00    +0.000 A 
ATOM     12  F   UNL     1      -1.667  12.367  23.529  0.00  0.00    +0.000 F 
ATOM     13  C   UNL     1      -0.373  12.021  21.590  0.00  0.00    +0.000 A 
ATOM     14  C   UNL     1       0.353  11.151  20.770  0.00  0.00    +0.000 A 
ENDBRANCH   5   8
ENDBRANCH   1   2
BRANCH   1  15
ATOM     15  C   UNL     1       4.664   6.265  17.405  0.00  0.00    +0.000 C 
BRANCH  15  17
ATOM     16  C   UNL     1       5.021   4.019  16.272  0.00  0.00    +0.000 C 
ATOM     17  C   UNL     1       5.530   4.979  17.360  0.00  0.00    +0.000 C 
BRANCH  17  18
ATOM     18  C   UNL     1       5.544   4.292  18.722  0.00  0.00    +0.000 C 
ATOM     19  O   UNL     1       5.979   4.838  19.738  0.00  0.00    +0.000 OA
ATOM     20  N   UNL     1       5.084   2.995  18.767  0.00  0.00    +0.000 N 
ATOM     21  H   UNL     1       4.356   2.664  18.125  0.00  0.00    +0.000 HD
BRANCH  20  22
ATOM     22  O   UNL     1       5.078   2.406  20.054  0.00  0.00    +0.000 OA
ATOM     23  H   UNL     1       4.297   2.820  20.483  0.00  0.00    +0.000 HD
ENDBRANCH  20  22
ENDBRANCH  17  18
BRANCH  17  24
ATOM     24  S   UNL     1       7.245   5.448  16.992  0.00  0.00    +0.000 S 
ATOM     25  C   UNL     1       7.607   6.868  18.005  0.00  0.00    +0.000 C 
ATOM     26  O   UNL     1       8.113   4.370  17.435  0.00  0.00    +0.000 OA
ATOM     27  O   UNL     1       7.288   5.887  15.607  0.00  0.00    +0.000 OA
ENDBRANCH  17  24
ENDBRANCH  15  17
ENDBRANCH   1  15
TORSDOF 7
ENDMDL
MODEL 3
REMARK VINA RESULT:      -8.5      1.218      1.716
REMARK  Name = 
REMARK  9 active torsions:
REMARK  status: ('A' for Active; 'I' for Inactive)
REMARK    1  A    between atoms: C_1  and  C_2
REMARK    2  A    between atoms: C_2  and  C_3
REMARK    3  A    between atoms: C_2  and  C_18
REMARK    4  A    between atoms: C_2  and  S_22
REMARK    5  A    between atoms: C_3  and  C_4
REMARK    6  A    between atoms: C_4  and  C_5
REMARK    7  A    between atoms: C_8  and  C_9
REMARK    8  A    between atoms: N_20  and  O_21
REMARK    9  A    between atoms: S_22  and  C_23
REMARK                            x       y       z     vdW  Elec       q    Type
REMARK                         _______ _______ _______ _____ _____    ______ ____
ROOT
ATOM      1  C   UNL     1       3.192   6.392  17.500  0.00  0.00    +0.000 C 
ENDROOT
BRANCH   1   2
ATOM      2  C   UNL     1       2.479   7.326  18.444  0.00  0.00    +0.000 A 
ATOM      3  C   UNL     1       1.995   8.556  17.995  0.00  0.00    +0.000 A 
ATOM      4  C   UNL     1       1.333   9.419  18.872  0.00  0.00    +0.000 A 
ATOM      5  C   UNL     1       1.109   9.078  20.217  0.00  0.00    +0.000 A 
ATOM      6  C   UNL     1       1.579   7.826  20.647  0.00  0.00    +0.000 A 
ATOM      7  C   UNL     1       2.262   6.964  19.778  0.00  0.00    +0.000 A 
BRANCH   5   8
ATOM      8  C   UNL     1       0.433  10.023  21.137  0.00  0.00    +0.000 A 
ATOM      9  C   UNL     1      -0.240   9.568  22.289  0.00  0.00    +0.000 A 
ATOM     10  C   UNL     1      -0.959  10.444  23.108  0.00  0.00    +0.000 A 
ATOM     11  C   UNL     1      -0.992  11.794  22.799  0.00  0.00    +0.000 A 
ATOM     12  F   UNL     1      -1.695  12.631  23.571  0.00  0.00    +0.000 F 
ATOM     13  C   UNL     1      -0.310  12.286  21.696  0.00  0.00    +0.000 A 
ATOM     14  C   UNL     1       0.396  11.406  20.870  0.00  0.00    +0.000 A 
ENDBRANCH   5   8
ENDBRANCH   1   2
BRANCH   1  15
ATOM     15  C   UNL     1       4.722   6.469  17.631  0.00  0.00    +0.000 C 
BRANCH  15  17
ATOM     16  C   UNL     1       4.917   4.236  16.433  0.00  0.00    +0.000 C 
ATOM     17  C   UNL     1       5.423   5.086  17.612  0.00  0.00    +0.000 C 
BRANCH  17  18
ATOM     18  C   UNL     1       5.210   4.355  18.933  0.00  0.00    +0.000 C 
ATOM     19  O   UNL     1       5.052   4.949  20.003  0.00  0.00    +0.000 OA
ATOM     20  N   UNL     1       5.244   2.979  18.895  0.00  0.00    +0.000 N 
ATOM     21  H   UNL     1       4.943   2.461  18.063  0.00  0.00    +0.000 HD
BRANCH  20  22
ATOM     22  O   UNL     1       5.004   2.339  20.135  0.00  0.00    +0.000 OA
ATOM     23  H   UNL     1       5.801   2.573  20.660  0.00  0.00    +0.000 HD
ENDBRANCH  20  22
ENDBRANCH  17  18
BRANCH  17  24
ATOM     24  S   UNL     1       7.212   5.344  17.439  0.00  0.00    +0.000 S 
ATOM     25  C   UNL     1       7.492   7.090  17.662  0.00  0.00    +0.000 C 
ATOM     26  O   UNL     1       7.876   4.658  18.533  0.00  0.00    +0.000 OA
ATOM     27  O   UNL     1       7.567   5.026  16.065  0.00  0.00    +0.000 OA
ENDBRANCH  17  24
ENDBRANCH  15  17
ENDBRANCH   1  15
TORSDOF 7
ENDMDL
MODEL 4
REMARK VINA RESULT:      -8.5      1.181      2.160
REMARK  Name = 
REMARK  9 active torsions:
REMARK  status: ('A' for Active; 'I' for Inactive)
REMARK    1  A    between atoms: C_1  and  C_2
REMARK    2  A    between atoms: C_2  and  C_3
REMARK    3  A    between atoms: C_2  and  C_18
REMARK    4  A    between atoms: C_2  and  S_22
REMARK    5  A    between atoms: C_3  and  C_4
REMARK    6  A    between atoms: C_4  and  C_5
REMARK    7  A    between atoms: C_8  and  C_9
REMARK    8  A    between atoms: N_20  and  O_21
REMARK    9  A    between atoms: S_22  and  C_23
REMARK                            x       y       z     vdW  Elec       q    Type
REMARK                         _______ _______ _______ _____ _____    ______ ____
ROOT
ATOM      1  C   UNL     1       3.322   6.667  17.382  0.00  0.00    +0.000 C 
ENDROOT
BRANCH   1   2
ATOM      2  C   UNL     1       2.503   7.529  18.307  0.00  0.00    +0.000 A 
ATOM      3  C   UNL     1       2.322   7.164  19.642  0.00  0.00    +0.000 A 
ATOM      4  C   UNL     1       1.564   7.966  20.499  0.00  0.00    +0.000 A 
ATOM      5  C   UNL     1       0.980   9.168  20.063  0.00  0.00    +0.000 A 
ATOM      6  C   UNL     1       1.192   9.534  18.724  0.00  0.00    +0.000 A 
ATOM      7  C   UNL     1       1.935   8.724  17.854  0.00  0.00    +0.000 A 
BRANCH   5   8
ATOM      8  C   UNL     1       0.151   9.985  20.981  0.00  0.00    +0.000 A 
ATOM      9  C   UNL     1      -0.294  11.272  20.614  0.00  0.00    +0.000 A 
ATOM     10  C   UNL     1      -0.994  12.084  21.511  0.00  0.00    +0.000 A 
ATOM     11  C   UNL     1      -1.282  11.609  22.780  0.00  0.00    +0.000 A 
ATOM     12  F   UNL     1      -1.935  12.393  23.647  0.00  0.00    +0.000 F 
ATOM     13  C   UNL     1      -0.895  10.334  23.165  0.00  0.00    +0.000 A 
ATOM     14  C   UNL     1      -0.182   9.529  22.271  0.00  0.00    +0.000 A 
ENDBRANCH   5   8
ENDBRANCH   1   2
BRANCH   1  15
ATOM     15  C   UNL     1       4.806   6.612  17.779  0.00  0.00    +0.000 C 
BRANCH  15  17
ATOM     16  C   UNL     1       4.909   4.452  16.444  0.00  0.00    +0.000 C 
ATOM     17  C   UNL     1       5.428   5.194  17.688  0.00  0.00    +0.000 C 
BRANCH  17  18
ATOM     18  C   UNL     1       5.135   4.395  18.954  0.00  0.00    +0.000 C 
ATOM     19  O   UNL     1       4.790   4.928  20.011  0.00  0.00    +0.000 OA
ATOM     20  N   UNL     1       5.316   3.032  18.883  0.00  0.00    +0.000 N 
ATOM     21  H   UNL     1       5.173   2.519  18.007  0.00  0.00    +0.000 HD
BRANCH  20  22
ATOM     22  O   UNL     1       4.998   2.323  20.066  0.00  0.00    +0.000 OA
ATOM     23  H   UNL     1       4.721   1.443  19.728  0.00  0.00    +0.000 HD
ENDBRANCH  20  22
ENDBRANCH  17  18
BRANCH  17  24
ATOM     24  S   UNL     1       7.233   5.358  17.578  0.00  0.00    +0.000 S 
ATOM     25  C   UNL     1       7.581   7.106  17.579  0.00  0.00    +0.000 C 
ATOM     26  O   UNL     1       7.813   4.803  18.789  0.00  0.00    +0.000 OA
ATOM     27  O   UNL     1       7.639   4.841  16.281  0.00  0.00    +0.000 OA
ENDBRANCH  17  24
ENDBRANCH  15  17
ENDBRANCH   1  15
TORSDOF 7
ENDMDL
MODEL 5
REMARK VINA RESULT:      -8.4      1.272      1.621
REMARK  Name = 
REMARK  9 active torsions:
REMARK  status: ('A' for Active; 'I' for Inactive)
REMARK    1  A    between atoms: C_1  and  C_2
REMARK    2  A    between atoms: C_2  and  C_3
REMARK    3  A    between atoms: C_2  and  C_18
REMARK    4  A    between atoms: C_2  and  S_22
REMARK    5  A    between atoms: C_3  and  C_4
REMARK    6  A    between atoms: C_4  and  C_5
REMARK    7  A    between atoms: C_8  and  C_9
REMARK    8  A    between atoms: N_20  and  O_21
REMARK    9  A    between atoms: S_22  and  C_23
REMARK                            x       y       z     vdW  Elec       q    Type
REMARK                         _______ _______ _______ _____ _____    ______ ____
ROOT
ATOM      1  C   UNL     1       3.736   5.667  17.609  0.00  0.00    +0.000 C 
ENDROOT
BRANCH   1   2
ATOM      2  C   UNL     1       2.935   6.597  18.482  0.00  0.00    +0.000 A 
ATOM      3  C   UNL     1       2.605   7.879  18.037  0.00  0.00    +0.000 A 
ATOM      4  C   UNL     1       1.860   8.739  18.847  0.00  0.00    +0.000 A 
ATOM      5  C   UNL     1       1.397   8.346  20.115  0.00  0.00    +0.000 A 
ATOM      6  C   UNL     1       1.716   7.045  20.537  0.00  0.00    +0.000 A 
ATOM      7  C   UNL     1       2.480   6.184  19.738  0.00  0.00    +0.000 A 
BRANCH   5   8
ATOM      8  C   UNL     1       0.637   9.288  20.970  0.00  0.00    +0.000 A 
ATOM      9  C   UNL     1       0.474   9.053  22.351  0.00  0.00    +0.000 A 
ATOM     10  C   UNL     1      -0.321   9.885  23.144  0.00  0.00    +0.000 A 
ATOM     11  C   UNL     1      -0.943  10.982  22.570  0.00  0.00    +0.000 A 
ATOM     12  F   UNL     1      -1.720  11.770  23.324  0.00  0.00    +0.000 F 
ATOM     13  C   UNL     1      -0.776  11.269  21.224  0.00  0.00    +0.000 A 
ATOM     14  C   UNL     1       0.008  10.426  20.430  0.00  0.00    +0.000 A 
ENDBRANCH   5   8
ENDBRANCH   1   2
BRANCH   1  15
ATOM     15  C   UNL     1       4.945   6.358  16.957  0.00  0.00    +0.000 C 
BRANCH  15  17
ATOM     16  C   UNL     1       6.108   5.120  18.847  0.00  0.00    +0.000 C 
ATOM     17  C   UNL     1       6.311   5.929  17.554  0.00  0.00    +0.000 C 
BRANCH  17  18
ATOM     18  C   UNL     1       7.192   7.147  17.814  0.00  0.00    +0.000 C 
ATOM     19  O   UNL     1       7.071   8.200  17.184  0.00  0.00    +0.000 OA
ATOM     20  N   UNL     1       8.175   7.010  18.767  0.00  0.00    +0.000 N 
ATOM     21  H   UNL     1       8.057   6.386  19.571  0.00  0.00    +0.000 HD
BRANCH  20  22
ATOM     22  O   UNL     1       8.946   8.174  19.004  0.00  0.00    +0.000 OA
ATOM     23  H   UNL     1       8.275   8.825  19.304  0.00  0.00    +0.000 HD
ENDBRANCH  20  22
ENDBRANCH  17  18
BRANCH  17  24
ATOM     24  S   UNL     1       7.182   4.903  16.336  0.00  0.00    +0.000 S 
ATOM     25  C   UNL     1       5.996   3.712  15.741  0.00  0.00    +0.000 C 
ATOM     26  O   UNL     1       7.546   5.746  15.211  0.00  0.00    +0.000 OA
ATOM     27  O   UNL     1       8.212   4.162  17.047  0.00  0.00    +0.000 OA
ENDBRANCH  17  24
ENDBRANCH  15  17
ENDBRANCH   1  15
TORSDOF 7
ENDMDL
MODEL 6
REMARK VINA RESULT:      -8.4      1.474      2.477
REMARK  Name = 
REMARK  9 active torsions:
REMARK  status: ('A' for Active; 'I' for Inactive)
REMARK    1  A    between atoms: C_1  and  C_2
REMARK    2  A    between atoms: C_2  and  C_3
REMARK    3  A    between atoms: C_2  and  C_18
REMARK    4  A    between atoms: C_2  and  S_22
REMARK    5  A    between atoms: C_3  and  C_4
REMARK    6  A    between atoms: C_4  and  C_5
REMARK    7  A    between atoms: C_8  and  C_9
REMARK    8  A    between atoms: N_20  and  O_21
REMARK    9  A    between atoms: S_22  and  C_23
REMARK                            x       y       z     vdW  Elec       q    Type
REMARK                         _______ _______ _______ _____ _____    ______ ____
ROOT
ATOM      1  C   UNL     1       3.051   6.564  18.150  0.00  0.00    +0.000 C 
ENDROOT
BRANCH   1   2
ATOM      2  C   UNL     1       2.271   7.574  18.951  0.00  0.00    +0.000 A 
ATOM      3  C   UNL     1       2.009   7.357  20.305  0.00  0.00    +0.000 A 
ATOM      4  C   UNL     1       1.288   8.296  21.046  0.00  0.00    +0.000 A 
ATOM      5  C   UNL     1       0.823   9.493  20.472  0.00  0.00    +0.000 A 
ATOM      6  C   UNL     1       1.117   9.708  19.115  0.00  0.00    +0.000 A 
ATOM      7  C   UNL     1       1.822   8.760  18.361  0.00  0.00    +0.000 A 
BRANCH   5   8
ATOM      8  C   UNL     1       0.032  10.459  21.270  0.00  0.00    +0.000 A 
ATOM      9  C   UNL     1      -0.031  11.822  20.915  0.00  0.00    +0.000 A 
ATOM     10  C   UNL     1      -0.697  12.754  21.715  0.00  0.00    +0.000 A 
ATOM     11  C   UNL     1      -1.334  12.329  22.870  0.00  0.00    +0.000 A 
ATOM     12  F   UNL     1      -1.957  13.223  23.649  0.00  0.00    +0.000 F 
ATOM     13  C   UNL     1      -1.329  10.991  23.233  0.00  0.00    +0.000 A 
ATOM     14  C   UNL     1      -0.649  10.063  22.438  0.00  0.00    +0.000 A 
ENDBRANCH   5   8
ENDBRANCH   1   2
BRANCH   1  15
ATOM     15  C   UNL     1       4.381   6.176  18.816  0.00  0.00    +0.000 C 
BRANCH  15  17
ATOM     16  C   UNL     1       5.099   5.474  16.482  0.00  0.00    +0.000 C 
ATOM     17  C   UNL     1       5.231   5.179  17.986  0.00  0.00    +0.000 C 
BRANCH  17  18
ATOM     18  C   UNL     1       4.827   3.741  18.291  0.00  0.00    +0.000 C 
ATOM     19  O   UNL     1       4.046   3.105  17.579  0.00  0.00    +0.000 OA
ATOM     20  N   UNL     1       5.342   3.181  19.438  0.00  0.00    +0.000 N 
ATOM     21  H   UNL     1       6.261   3.455  19.801  0.00  0.00    +0.000 HD
BRANCH  20  22
ATOM     22  O   UNL     1       4.972   1.833  19.665  0.00  0.00    +0.000 OA
ATOM     23  H   UNL     1       4.261   1.910  20.339  0.00  0.00    +0.000 HD
ENDBRANCH  20  22
ENDBRANCH  17  18
BRANCH  17  24
ATOM     24  S   UNL     1       6.971   5.349  18.479  0.00  0.00    +0.000 S 
ATOM     25  C   UNL     1       7.539   6.894  17.796  0.00  0.00    +0.000 C 
ATOM     26  O   UNL     1       7.021   5.472  19.925  0.00  0.00    +0.000 OA
ATOM     27  O   UNL     1       7.716   4.290  17.818  0.00  0.00    +0.000 OA
ENDBRANCH  17  24
ENDBRANCH  15  17
ENDBRANCH   1  15
TORSDOF 7
ENDMDL
MODEL 7
REMARK VINA RESULT:      -8.3      1.282      1.851
REMARK  Name = 
REMARK  9 active torsions:
REMARK  status: ('A' for Active; 'I' for Inactive)
REMARK    1  A    between atoms: C_1  and  C_2
REMARK    2  A    between atoms: C_2  and  C_3
REMARK    3  A    between atoms: C_2  and  C_18
REMARK    4  A    between atoms: C_2  and  S_22
REMARK    5  A    between atoms: C_3  and  C_4
REMARK    6  A    between atoms: C_4  and  C_5
REMARK    7  A    between atoms: C_8  and  C_9
REMARK    8  A    between atoms: N_20  and  O_21
REMARK    9  A    between atoms: S_22  and  C_23
REMARK                            x       y       z     vdW  Elec       q    Type
REMARK                         _______ _______ _______ _____ _____    ______ ____
ROOT
ATOM      1  C   UNL     1       3.214   6.135  17.756  0.00  0.00    +0.000 C 
ENDROOT
BRANCH   1   2
ATOM      2  C   UNL     1       2.494   7.111  18.650  0.00  0.00    +0.000 A 
ATOM      3  C   UNL     1       2.085   8.353  18.161  0.00  0.00    +0.000 A 
ATOM      4  C   UNL     1       1.415   9.255  18.991  0.00  0.00    +0.000 A 
ATOM      5  C   UNL     1       1.108   8.943  20.327  0.00  0.00    +0.000 A 
ATOM      6  C   UNL     1       1.503   7.680  20.796  0.00  0.00    +0.000 A 
ATOM      7  C   UNL     1       2.193   6.778  19.975  0.00  0.00    +0.000 A 
BRANCH   5   8
ATOM      8  C   UNL     1       0.426   9.930  21.198  0.00  0.00    +0.000 A 
ATOM      9  C   UNL     1      -0.227   9.531  22.382  0.00  0.00    +0.000 A 
ATOM     10  C   UNL     1      -0.952  10.440  23.157  0.00  0.00    +0.000 A 
ATOM     11  C   UNL     1      -1.011  11.770  22.771  0.00  0.00    +0.000 A 
ATOM     12  F   UNL     1      -1.721  12.639  23.501  0.00  0.00    +0.000 F 
ATOM     13  C   UNL     1      -0.350  12.209  21.634  0.00  0.00    +0.000 A 
ATOM     14  C   UNL     1       0.363  11.294  20.852  0.00  0.00    +0.000 A 
ENDBRANCH   5   8
ENDBRANCH   1   2
BRANCH   1  15
ATOM     15  C   UNL     1       4.732   6.376  17.715  0.00  0.00    +0.000 C 
BRANCH  15  17
ATOM     16  C   UNL     1       5.249   5.207  15.518  0.00  0.00    +0.000 C 
ATOM     17  C   UNL     1       5.530   5.236  17.030  0.00  0.00    +0.000 C 
BRANCH  17  18
ATOM     18  C   UNL     1       5.199   3.890  17.666  0.00  0.00    +0.000 C 
ATOM     19  O   UNL     1       4.605   2.996  17.057  0.00  0.00    +0.000 OA
ATOM     20  N   UNL     1       5.555   3.721  18.984  0.00  0.00    +0.000 N 
ATOM     21  H   UNL     1       6.373   4.194  19.382  0.00  0.00    +0.000 HD
BRANCH  20  22
ATOM     22  O   UNL     1       5.264   2.445  19.525  0.00  0.00    +0.000 OA
ATOM     23  H   UNL     1       4.906   2.660  20.415  0.00  0.00    +0.000 HD
ENDBRANCH  20  22
ENDBRANCH  17  18
BRANCH  17  24
ATOM     24  S   UNL     1       7.302   5.522  17.304  0.00  0.00    +0.000 S 
ATOM     25  C   UNL     1       7.469   6.072  18.991  0.00  0.00    +0.000 C 
ATOM     26  O   UNL     1       7.989   4.247  17.197  0.00  0.00    +0.000 OA
ATOM     27  O   UNL     1       7.701   6.631  16.452  0.00  0.00    +0.000 OA
ENDBRANCH  17  24
ENDBRANCH  15  17
ENDBRANCH   1  15
TORSDOF 7
ENDMDL
MODEL 8
REMARK VINA RESULT:      -8.2      1.162      1.304
REMARK  Name = 
REMARK  9 active torsions:
REMARK  status: ('A' for Active; 'I' for Inactive)
REMARK    1  A    between atoms: C_1  and  C_2
REMARK    2  A    between atoms: C_2  and  C_3
REMARK    3  A    between atoms: C_2  and  C_18
REMARK    4  A    between atoms: C_2  and  S_22
REMARK    5  A    between atoms: C_3  and  C_4
REMARK    6  A    between atoms: C_4  and  C_5
REMARK    7  A    between atoms: C_8  and  C_9
REMARK    8  A    between atoms: N_20  and  O_21
REMARK    9  A    between atoms: S_22  and  C_23
REMARK                            x       y       z     vdW  Elec       q    Type
REMARK                         _______ _______ _______ _____ _____    ______ ____
ROOT
ATOM      1  C   UNL     1       3.300   5.974  17.785  0.00  0.00    +0.000 C 
ENDROOT
BRANCH   1   2
ATOM      2  C   UNL     1       2.566   6.942  18.677  0.00  0.00    +0.000 A 
ATOM      3  C   UNL     1       2.126   8.171  18.181  0.00  0.00    +0.000 A 
ATOM      4  C   UNL     1       1.444   9.065  19.009  0.00  0.00    +0.000 A 
ATOM      5  C   UNL     1       1.155   8.758  20.350  0.00  0.00    +0.000 A 
ATOM      6  C   UNL     1       1.582   7.508  20.827  0.00  0.00    +0.000 A 
ATOM      7  C   UNL     1       2.284   6.614  20.007  0.00  0.00    +0.000 A 
BRANCH   5   8
ATOM      8  C   UNL     1       0.460   9.737  21.219  0.00  0.00    +0.000 A 
ATOM      9  C   UNL     1      -0.188   9.332  22.404  0.00  0.00    +0.000 A 
ATOM     10  C   UNL     1      -0.926  10.233  23.177  0.00  0.00    +0.000 A 
ATOM     11  C   UNL     1      -1.003  11.561  22.788  0.00  0.00    +0.000 A 
ATOM     12  F   UNL     1      -1.725  12.422  23.516  0.00  0.00    +0.000 F 
ATOM     13  C   UNL     1      -0.348  12.006  21.650  0.00  0.00    +0.000 A 
ATOM     14  C   UNL     1       0.378  11.100  20.871  0.00  0.00    +0.000 A 
ENDBRANCH   5   8
ENDBRANCH   1   2
BRANCH   1  15
ATOM     15  C   UNL     1       4.779   6.348  17.592  0.00  0.00    +0.000 C 
BRANCH  15  17
ATOM     16  C   UNL     1       5.053   4.151  18.839  0.00  0.00    +0.000 C 
ATOM     17  C   UNL     1       5.768   5.226  18.001  0.00  0.00    +0.000 C 
BRANCH  17  18
ATOM     18  C   UNL     1       6.953   5.805  18.766  0.00  0.00    +0.000 C 
ATOM     19  O   UNL     1       7.374   5.309  19.814  0.00  0.00    +0.000 OA
ATOM     20  N   UNL     1       7.522   6.950  18.256  0.00  0.00    +0.000 N 
ATOM     21  H   UNL     1       7.524   7.143  17.249  0.00  0.00    +0.000 HD
BRANCH  20  22
ATOM     22  O   UNL     1       8.642   7.434  18.974  0.00  0.00    +0.000 OA
ATOM     23  H   UNL     1       9.268   7.686  18.260  0.00  0.00    +0.000 HD
ENDBRANCH  20  22
ENDBRANCH  17  18
BRANCH  17  24
ATOM     24  S   UNL     1       6.437   4.464  16.495  0.00  0.00    +0.000 S 
ATOM     25  C   UNL     1       5.945   5.512  15.140  0.00  0.00    +0.000 C 
ATOM     26  O   UNL     1       7.887   4.511  16.571  0.00  0.00    +0.000 OA
ATOM     27  O   UNL     1       5.764   3.188  16.316  0.00  0.00    +0.000 OA
ENDBRANCH  17  24
ENDBRANCH  15  17
ENDBRANCH   1  15
TORSDOF 7
ENDMDL
MODEL 9
REMARK VINA RESULT:      -8.1      1.615      2.085
REMARK  Name = 
REMARK  9 active torsions:
REMARK  status: ('A' for Active; 'I' for Inactive)
REMARK    1  A    between atoms: C_1  and  C_2
REMARK    2  A    between atoms: C_2  and  C_3
REMARK    3  A    between atoms: C_2  and  C_18
REMARK    4  A    between atoms: C_2  and  S_22
REMARK    5  A    between atoms: C_3  and  C_4
REMARK    6  A    between atoms: C_4  and  C_5
REMARK    7  A    between atoms: C_8  and  C_9
REMARK    8  A    between atoms: N_20  and  O_21
REMARK    9  A    between atoms: S_22  and  C_23
REMARK                            x       y       z     vdW  Elec       q    Type
REMARK                         _______ _______ _______ _____ _____    ______ ____
ROOT
ATOM      1  C   UNL     1       3.215   6.024  18.321  0.00  0.00    +0.000 C 
ENDROOT
BRANCH   1   2
ATOM      2  C   UNL     1       2.459   7.283  18.660  0.00  0.00    +0.000 A 
ATOM      3  C   UNL     1       2.007   7.510  19.961  0.00  0.00    +0.000 A 
ATOM      4  C   UNL     1       1.308   8.678  20.274  0.00  0.00    +0.000 A 
ATOM      5  C   UNL     1       1.057   9.670  19.310  0.00  0.00    +0.000 A 
ATOM      6  C   UNL     1       1.541   9.439  18.012  0.00  0.00    +0.000 A 
ATOM      7  C   UNL     1       2.225   8.259  17.687  0.00  0.00    +0.000 A 
BRANCH   5   8
ATOM      8  C   UNL     1       0.285  10.886  19.658  0.00  0.00    +0.000 A 
ATOM      9  C   UNL     1      -1.037  11.069  19.200  0.00  0.00    +0.000 A 
ATOM     10  C   UNL     1      -1.736  12.254  19.445  0.00  0.00    +0.000 A 
ATOM     11  C   UNL     1      -1.131  13.265  20.174  0.00  0.00    +0.000 A 
ATOM     12  F   UNL     1      -1.792  14.408  20.393  0.00  0.00    +0.000 F 
ATOM     13  C   UNL     1       0.153  13.108  20.674  0.00  0.00    +0.000 A 
ATOM     14  C   UNL     1       0.856  11.927  20.416  0.00  0.00    +0.000 A 
ENDBRANCH   5   8
ENDBRANCH   1   2
BRANCH   1  15
ATOM     15  C   UNL     1       4.559   6.306  17.630  0.00  0.00    +0.000 C 
BRANCH  15  17
ATOM     16  C   UNL     1       4.723   3.832  17.073  0.00  0.00    +0.000 C 
ATOM     17  C   UNL     1       5.496   5.072  17.553  0.00  0.00    +0.000 C 
BRANCH  17  18
ATOM     18  C   UNL     1       6.152   4.808  18.904  0.00  0.00    +0.000 C 
ATOM     19  O   UNL     1       5.737   3.952  19.688  0.00  0.00    +0.000 OA
ATOM     20  N   UNL     1       7.220   5.609  19.243  0.00  0.00    +0.000 N 
ATOM     21  H   UNL     1       7.846   5.994  18.529  0.00  0.00    +0.000 HD
BRANCH  20  22
ATOM     22  O   UNL     1       7.823   5.307  20.488  0.00  0.00    +0.000 OA
ATOM     23  H   UNL     1       8.384   4.528  20.278  0.00  0.00    +0.000 HD
ENDBRANCH  20  22
ENDBRANCH  17  18
BRANCH  17  24
ATOM     24  S   UNL     1       6.836   5.433  16.382  0.00  0.00    +0.000 S 
ATOM     25  C   UNL     1       6.191   5.090  14.757  0.00  0.00    +0.000 C 
ATOM     26  O   UNL     1       7.119   6.856  16.442  0.00  0.00    +0.000 OA
ATOM     27  O   UNL     1       7.901   4.474  16.631  0.00  0.00    +0.000 OA
ENDBRANCH  17  24
ENDBRANCH  15  17
ENDBRANCH   1  15
TORSDOF 7
ENDMDL
