MODEL 1
REMARK VINA RESULT:      -8.1      0.000      0.000
REMARK  Name = 
REMARK  2 active torsions:
REMARK  status: ('A' for Active; 'I' for Inactive)
REMARK    1  A    between atoms: C_2  and  C_13
REMARK    2  A    between atoms: N_3  and  C_4
REMARK                            x       y       z     vdW  Elec       q    Type
REMARK                         _______ _______ _______ _____ _____    ______ ____
ROOT
ATOM      1  O   UNL     1       2.293   8.821  17.193  0.00  0.00    +0.000 OA
ATOM      2  C   UNL     1       2.133   8.342  18.311  0.00  0.00    +0.000 C 
ATOM      3  N   UNL     1       2.581   7.098  18.716  0.00  0.00    +0.000 N 
ATOM      4  H   UNL     1       2.233   6.753  19.597  0.00  0.00    +0.000 HD
ENDROOT
BRANCH   2   5
ATOM      5  C   UNL     1       1.398   9.090  19.312  0.00  0.00    +0.000 A 
ATOM      6  C   UNL     1       0.709  10.291  19.292  0.00  0.00    +0.000 A 
ATOM      7  C   UNL     1       0.118  10.486  20.574  0.00  0.00    +0.000 A 
ATOM      8  C   UNL     1      -0.712  11.478  21.130  0.00  0.00    +0.000 A 
ATOM      9  C   UNL     1      -1.142  11.346  22.457  0.00  0.00    +0.000 A 
ATOM     10  C   UNL     1      -0.750  10.253  23.227  0.00  0.00    +0.000 A 
ATOM     11  C   UNL     1       0.078   9.257  22.698  0.00  0.00    +0.000 A 
ATOM     12  C   UNL     1       0.486   9.403  21.368  0.00  0.00    +0.000 A 
ATOM     13  N   UNL     1       1.269   8.586  20.591  0.00  0.00    +0.000 N 
ATOM     14  H   UNL     1       1.677   7.711  20.885  0.00  0.00    +0.000 HD
ENDBRANCH   2   5
BRANCH   3  15
ATOM     15  C   UNL     1       3.364   6.205  17.949  0.00  0.00    +0.000 A 
ATOM     16  C   UNL     1       3.006   4.858  17.742  0.00  0.00    +0.000 A 
ATOM     17  C   UNL     1       3.834   3.987  17.026  0.00  0.00    +0.000 A 
ATOM     18  C   UNL     1       5.011   4.491  16.531  0.00  0.00    +0.000 A 
ATOM     19  C   UNL     1       5.355   5.812  16.696  0.00  0.00    +0.000 A 
ATOM     20  C   UNL     1       4.546   6.699  17.379  0.00  0.00    +0.000 A 
ATOM     21  O   UNL     1       6.561   6.103  16.135  0.00  0.00    +0.000 OA
ATOM     22  C   UNL     1       6.968   4.794  15.679  0.00  0.00    +0.000 C 
ATOM     23  O   UNL     1       5.953   3.786  15.850  0.00  0.00    +0.000 OA
ENDBRANCH   3  15
TORSDOF 2
ENDMDL
MODEL 2
REMARK VINA RESULT:      -8.1      1.211      1.239
REMARK  Name = 
REMARK  2 active torsions:
REMARK  status: ('A' for Active; 'I' for Inactive)
REMARK    1  A    between atoms: C_2  and  C_13
REMARK    2  A    between atoms: N_3  and  C_4
REMARK                            x       y       z     vdW  Elec       q    Type
REMARK                         _______ _______ _______ _____ _____    ______ ____
ROOT
ATOM      1  O   UNL     1       2.540   5.855  20.338  0.00  0.00    +0.000 OA
ATOM      2  C   UNL     1       2.393   6.878  19.676  0.00  0.00    +0.000 C 
ATOM      3  N   UNL     1       2.920   7.092  18.415  0.00  0.00    +0.000 N 
ATOM      4  H   UNL     1       2.876   8.034  18.057  0.00  0.00    +0.000 HD
ENDROOT
BRANCH   2   5
ATOM      5  C   UNL     1       1.641   7.987  20.228  0.00  0.00    +0.000 A 
ATOM      6  C   UNL     1       1.096   9.137  19.684  0.00  0.00    +0.000 A 
ATOM      7  C   UNL     1       0.393   9.827  20.714  0.00  0.00    +0.000 A 
ATOM      8  C   UNL     1      -0.378  11.004  20.756  0.00  0.00    +0.000 A 
ATOM      9  C   UNL     1      -0.962  11.397  21.966  0.00  0.00    +0.000 A 
ATOM     10  C   UNL     1      -0.781  10.641  23.123  0.00  0.00    +0.000 A 
ATOM     11  C   UNL     1      -0.016   9.471  23.108  0.00  0.00    +0.000 A 
ATOM     12  C   UNL     1       0.550   9.091  21.886  0.00  0.00    +0.000 A 
ATOM     13  N   UNL     1       1.317   7.998  21.570  0.00  0.00    +0.000 N 
ATOM     14  H   UNL     1       1.591   7.268  22.212  0.00  0.00    +0.000 HD
ENDBRANCH   2   5
BRANCH   3  15
ATOM     15  C   UNL     1       3.641   6.153  17.643  0.00  0.00    +0.000 A 
ATOM     16  C   UNL     1       3.313   4.783  17.602  0.00  0.00    +0.000 A 
ATOM     17  C   UNL     1       4.085   3.872  16.874  0.00  0.00    +0.000 A 
ATOM     18  C   UNL     1       5.176   4.359  16.199  0.00  0.00    +0.000 A 
ATOM     19  C   UNL     1       5.487   5.698  16.202  0.00  0.00    +0.000 A 
ATOM     20  C   UNL     1       4.730   6.623  16.895  0.00  0.00    +0.000 A 
ATOM     21  O   UNL     1       6.608   5.968  15.478  0.00  0.00    +0.000 OA
ATOM     22  C   UNL     1       7.009   4.633  15.096  0.00  0.00    +0.000 C 
ATOM     23  O   UNL     1       6.059   3.619  15.477  0.00  0.00    +0.000 OA
ENDBRANCH   3  15
TORSDOF 2
ENDMDL
MODEL 3
REMARK VINA RESULT:      -8.0      0.618      1.315
REMARK  Name = 
REMARK  2 active torsions:
REMARK  status: ('A' for Active; 'I' for Inactive)
REMARK    1  A    between atoms: C_2  and  C_13
REMARK    2  A    between atoms: N_3  and  C_4
REMARK                            x       y       z     vdW  Elec       q    Type
REMARK                         _______ _______ _______ _____ _____    ______ ____
ROOT
ATOM      1  O   UNL     1       2.371   8.550  17.453  0.00  0.00    +0.000 OA
ATOM      2  C   UNL     1       2.236   7.935  18.506  0.00  0.00    +0.000 C 
ATOM      3  N   UNL     1       2.728   6.667  18.756  0.00  0.00    +0.000 N 
ATOM      4  H   UNL     1       2.399   6.207  19.590  0.00  0.00    +0.000 HD
ENDROOT
BRANCH   2   5
ATOM      5  C   UNL     1       1.486   8.533  19.592  0.00  0.00    +0.000 A 
ATOM      6  C   UNL     1       1.290   8.191  20.919  0.00  0.00    +0.000 A 
ATOM      7  C   UNL     1       0.504   9.211  21.531  0.00  0.00    +0.000 A 
ATOM      8  C   UNL     1       0.029   9.431  22.837  0.00  0.00    +0.000 A 
ATOM      9  C   UNL     1      -0.721  10.583  23.107  0.00  0.00    +0.000 A 
ATOM     10  C   UNL     1      -1.004  11.502  22.098  0.00  0.00    +0.000 A 
ATOM     11  C   UNL     1      -0.547  11.302  20.791  0.00  0.00    +0.000 A 
ATOM     12  C   UNL     1       0.209  10.150  20.546  0.00  0.00    +0.000 A 
ATOM     13  N   UNL     1       0.798   9.712  19.387  0.00  0.00    +0.000 N 
ATOM     14  H   UNL     1       0.772  10.190  18.498  0.00  0.00    +0.000 HD
ENDBRANCH   2   5
BRANCH   3  15
ATOM     15  C   UNL     1       3.532   5.899  17.883  0.00  0.00    +0.000 A 
ATOM     16  C   UNL     1       3.252   4.554  17.567  0.00  0.00    +0.000 A 
ATOM     17  C   UNL     1       4.102   3.807  16.746  0.00  0.00    +0.000 A 
ATOM     18  C   UNL     1       5.223   4.430  16.256  0.00  0.00    +0.000 A 
ATOM     19  C   UNL     1       5.490   5.751  16.528  0.00  0.00    +0.000 A 
ATOM     20  C   UNL     1       4.656   6.519  17.318  0.00  0.00    +0.000 A 
ATOM     21  O   UNL     1       6.651   6.170  15.952  0.00  0.00    +0.000 OA
ATOM     22  C   UNL     1       7.120   4.936  15.364  0.00  0.00    +0.000 C 
ATOM     23  O   UNL     1       6.178   3.852  15.480  0.00  0.00    +0.000 OA
ENDBRANCH   3  15
TORSDOF 2
ENDMDL
MODEL 4
REMARK VINA RESULT:      -7.6      5.144      7.116
REMARK  Name = 
REMARK  2 active torsions:
REMARK  status: ('A' for Active; 'I' for Inactive)
REMARK    1  A    between atoms: C_2  and  C_13
REMARK    2  A    between atoms: N_3  and  C_4
REMARK                            x       y       z     vdW  Elec       q    Type
REMARK                         _______ _______ _______ _____ _____    ______ ____
ROOT
ATOM      1  O   UNL     1       8.411   6.977  18.891  0.00  0.00    +0.000 OA
ATOM      2  C   UNL     1       7.935   7.874  18.203  0.00  0.00    +0.000 C 
ATOM      3  N   UNL     1       6.897   7.721  17.302  0.00  0.00    +0.000 N 
ATOM      4  H   UNL     1       6.720   8.491  16.676  0.00  0.00    +0.000 HD
ENDROOT
BRANCH   2   5
ATOM      5  C   UNL     1       8.489   9.211  18.287  0.00  0.00    +0.000 A 
ATOM      6  C   UNL     1       8.360  10.349  17.510  0.00  0.00    +0.000 A 
ATOM      7  C   UNL     1       9.094  11.400  18.133  0.00  0.00    +0.000 A 
ATOM      8  C   UNL     1       9.297  12.762  17.840  0.00  0.00    +0.000 A 
ATOM      9  C   UNL     1      10.083  13.537  18.702  0.00  0.00    +0.000 A 
ATOM     10  C   UNL     1      10.667  12.973  19.835  0.00  0.00    +0.000 A 
ATOM     11  C   UNL     1      10.485  11.621  20.143  0.00  0.00    +0.000 A 
ATOM     12  C   UNL     1       9.687  10.867  19.275  0.00  0.00    +0.000 A 
ATOM     13  N   UNL     1       9.321   9.546  19.336  0.00  0.00    +0.000 N 
ATOM     14  H   UNL     1       9.586   8.897  20.062  0.00  0.00    +0.000 HD
ENDBRANCH   2   5
BRANCH   3  15
ATOM     15  C   UNL     1       6.157   6.538  17.078  0.00  0.00    +0.000 A 
ATOM     16  C   UNL     1       6.562   5.543  16.165  0.00  0.00    +0.000 A 
ATOM     17  C   UNL     1       5.775   4.412  15.925  0.00  0.00    +0.000 A 
ATOM     18  C   UNL     1       4.590   4.304  16.611  0.00  0.00    +0.000 A 
ATOM     19  C   UNL     1       4.201   5.250  17.529  0.00  0.00    +0.000 A 
ATOM     20  C   UNL     1       4.969   6.365  17.802  0.00  0.00    +0.000 A 
ATOM     21  O   UNL     1       2.995   4.956  18.090  0.00  0.00    +0.000 OA
ATOM     22  C   UNL     1       2.638   3.765  17.352  0.00  0.00    +0.000 C 
ATOM     23  O   UNL     1       3.684   3.301  16.476  0.00  0.00    +0.000 OA
ENDBRANCH   3  15
TORSDOF 2
ENDMDL
MODEL 5
REMARK VINA RESULT:      -7.6      1.268      1.782
REMARK  Name = 
REMARK  2 active torsions:
REMARK  status: ('A' for Active; 'I' for Inactive)
REMARK    1  A    between atoms: C_2  and  C_13
REMARK    2  A    between atoms: N_3  and  C_4
REMARK                            x       y       z     vdW  Elec       q    Type
REMARK                         _______ _______ _______ _____ _____    ______ ____
ROOT
ATOM      1  O   UNL     1       2.475   5.808  20.451  0.00  0.00    +0.000 OA
ATOM      2  C   UNL     1       2.311   6.836  19.801  0.00  0.00    +0.000 C 
ATOM      3  N   UNL     1       2.828   7.071  18.540  0.00  0.00    +0.000 N 
ATOM      4  H   UNL     1       2.769   8.015  18.193  0.00  0.00    +0.000 HD
ENDROOT
BRANCH   2   5
ATOM      5  C   UNL     1       1.545   7.927  20.369  0.00  0.00    +0.000 A 
ATOM      6  C   UNL     1       0.989   8.156  21.616  0.00  0.00    +0.000 A 
ATOM      7  C   UNL     1       0.406   9.457  21.611  0.00  0.00    +0.000 A 
ATOM      8  C   UNL     1      -0.253  10.240  22.578  0.00  0.00    +0.000 A 
ATOM      9  C   UNL     1      -0.694  11.523  22.234  0.00  0.00    +0.000 A 
ATOM     10  C   UNL     1      -0.495  12.025  20.949  0.00  0.00    +0.000 A 
ATOM     11  C   UNL     1       0.152  11.264  19.970  0.00  0.00    +0.000 A 
ATOM     12  C   UNL     1       0.595   9.989  20.338  0.00  0.00    +0.000 A 
ATOM     13  N   UNL     1       1.268   9.043  19.606  0.00  0.00    +0.000 N 
ATOM     14  H   UNL     1       1.561   9.145  18.645  0.00  0.00    +0.000 HD
ENDBRANCH   2   5
BRANCH   3  15
ATOM     15  C   UNL     1       3.559   6.150  17.755  0.00  0.00    +0.000 A 
ATOM     16  C   UNL     1       3.203   4.792  17.638  0.00  0.00    +0.000 A 
ATOM     17  C   UNL     1       3.983   3.896  16.899  0.00  0.00    +0.000 A 
ATOM     18  C   UNL     1       5.111   4.388  16.290  0.00  0.00    +0.000 A 
ATOM     19  C   UNL     1       5.450   5.718  16.367  0.00  0.00    +0.000 A 
ATOM     20  C   UNL     1       4.686   6.628  17.071  0.00  0.00    +0.000 A 
ATOM     21  O   UNL     1       6.604   5.993  15.699  0.00  0.00    +0.000 OA
ATOM     22  C   UNL     1       6.991   4.668  15.272  0.00  0.00    +0.000 C 
ATOM     23  O   UNL     1       6.005   3.660  15.569  0.00  0.00    +0.000 OA
ENDBRANCH   3  15
TORSDOF 2
ENDMDL
MODEL 6
REMARK VINA RESULT:      -7.5      2.550      8.280
REMARK  Name = 
REMARK  2 active torsions:
REMARK  status: ('A' for Active; 'I' for Inactive)
REMARK    1  A    between atoms: C_2  and  C_13
REMARK    2  A    between atoms: N_3  and  C_4
REMARK                            x       y       z     vdW  Elec       q    Type
REMARK                         _______ _______ _______ _____ _____    ______ ____
ROOT
ATOM      1  O   UNL     1       1.662   6.410  20.711  0.00  0.00    +0.000 OA
ATOM      2  C   UNL     1       2.008   7.205  19.842  0.00  0.00    +0.000 C 
ATOM      3  N   UNL     1       1.646   8.539  19.794  0.00  0.00    +0.000 N 
ATOM      4  H   UNL     1       1.849   9.035  18.940  0.00  0.00    +0.000 HD
ENDROOT
BRANCH   2   5
ATOM      5  C   UNL     1       2.840   6.750  18.746  0.00  0.00    +0.000 A 
ATOM      6  C   UNL     1       3.588   7.400  17.780  0.00  0.00    +0.000 A 
ATOM      7  C   UNL     1       4.265   6.416  17.003  0.00  0.00    +0.000 A 
ATOM      8  C   UNL     1       5.177   6.469  15.932  0.00  0.00    +0.000 A 
ATOM      9  C   UNL     1       5.678   5.275  15.400  0.00  0.00    +0.000 A 
ATOM     10  C   UNL     1       5.277   4.043  15.914  0.00  0.00    +0.000 A 
ATOM     11  C   UNL     1       4.368   3.964  16.974  0.00  0.00    +0.000 A 
ATOM     12  C   UNL     1       3.888   5.170  17.497  0.00  0.00    +0.000 A 
ATOM     13  N   UNL     1       3.019   5.397  18.534  0.00  0.00    +0.000 N 
ATOM     14  H   UNL     1       2.584   4.685  19.102  0.00  0.00    +0.000 HD
ENDBRANCH   2   5
BRANCH   3  15
ATOM     15  C   UNL     1       0.890   9.232  20.766  0.00  0.00    +0.000 A 
ATOM     16  C   UNL     1       0.886   8.877  22.130  0.00  0.00    +0.000 A 
ATOM     17  C   UNL     1       0.080   9.549  23.055  0.00  0.00    +0.000 A 
ATOM     18  C   UNL     1      -0.711  10.569  22.587  0.00  0.00    +0.000 A 
ATOM     19  C   UNL     1      -0.691  10.948  21.266  0.00  0.00    +0.000 A 
ATOM     20  C   UNL     1       0.112  10.317  20.335  0.00  0.00    +0.000 A 
ATOM     21  O   UNL     1      -1.551  11.972  21.012  0.00  0.00    +0.000 OA
ATOM     22  C   UNL     1      -2.172  12.129  22.307  0.00  0.00    +0.000 C 
ATOM     23  O   UNL     1      -1.583  11.301  23.328  0.00  0.00    +0.000 OA
ENDBRANCH   3  15
TORSDOF 2
ENDMDL
MODEL 7
REMARK VINA RESULT:      -7.4      2.597      8.261
REMARK  Name = 
REMARK  2 active torsions:
REMARK  status: ('A' for Active; 'I' for Inactive)
REMARK    1  A    between atoms: C_2  and  C_13
REMARK    2  A    between atoms: N_3  and  C_4
REMARK                            x       y       z     vdW  Elec       q    Type
REMARK                         _______ _______ _______ _____ _____    ______ ____
ROOT
ATOM      1  O   UNL     1       1.475   6.002  20.794  0.00  0.00    +0.000 OA
ATOM      2  C   UNL     1       2.012   6.712  19.950  0.00  0.00    +0.000 C 
ATOM      3  N   UNL     1       1.853   8.082  19.844  0.00  0.00    +0.000 N 
ATOM      4  H   UNL     1       2.204   8.519  19.006  0.00  0.00    +0.000 HD
ENDROOT
BRANCH   2   5
ATOM      5  C   UNL     1       2.868   6.110  18.947  0.00  0.00    +0.000 A 
ATOM      6  C   UNL     1       3.170   4.802  18.610  0.00  0.00    +0.000 A 
ATOM      7  C   UNL     1       4.030   4.823  17.474  0.00  0.00    +0.000 A 
ATOM      8  C   UNL     1       4.622   3.826  16.675  0.00  0.00    +0.000 A 
ATOM      9  C   UNL     1       5.420   4.206  15.588  0.00  0.00    +0.000 A 
ATOM     10  C   UNL     1       5.637   5.552  15.299  0.00  0.00    +0.000 A 
ATOM     11  C   UNL     1       5.064   6.559  16.082  0.00  0.00    +0.000 A 
ATOM     12  C   UNL     1       4.262   6.158  17.156  0.00  0.00    +0.000 A 
ATOM     13  N   UNL     1       3.564   6.912  18.066  0.00  0.00    +0.000 N 
ATOM     14  H   UNL     1       3.525   7.921  18.085  0.00  0.00    +0.000 HD
ENDBRANCH   2   5
BRANCH   3  15
ATOM     15  C   UNL     1       1.118   8.906  20.728  0.00  0.00    +0.000 A 
ATOM     16  C   UNL     1       1.145   8.743  22.127  0.00  0.00    +0.000 A 
ATOM     17  C   UNL     1       0.359   9.539  22.967  0.00  0.00    +0.000 A 
ATOM     18  C   UNL     1      -0.443  10.485  22.380  0.00  0.00    +0.000 A 
ATOM     19  C   UNL     1      -0.453  10.677  21.019  0.00  0.00    +0.000 A 
ATOM     20  C   UNL     1       0.329   9.921  20.167  0.00  0.00    +0.000 A 
ATOM     21  O   UNL     1      -1.320  11.658  20.644  0.00  0.00    +0.000 OA
ATOM     22  C   UNL     1      -1.913  11.994  21.919  0.00  0.00    +0.000 C 
ATOM     23  O   UNL     1      -1.299  11.315  23.032  0.00  0.00    +0.000 OA
ENDBRANCH   3  15
TORSDOF 2
ENDMDL
MODEL 8
REMARK VINA RESULT:      -7.4      1.499      1.625
REMARK  Name = 
REMARK  2 active torsions:
REMARK  status: ('A' for Active; 'I' for Inactive)
REMARK    1  A    between atoms: C_2  and  C_13
REMARK    2  A    between atoms: N_3  and  C_4
REMARK                            x       y       z     vdW  Elec       q    Type
REMARK                         _______ _______ _______ _____ _____    ______ ____
ROOT
ATOM      1  O   UNL     1       2.171   5.652  19.365  0.00  0.00    +0.000 OA
ATOM      2  C   UNL     1       2.589   6.804  19.316  0.00  0.00    +0.000 C 
ATOM      3  N   UNL     1       3.789   7.192  18.747  0.00  0.00    +0.000 N 
ATOM      4  H   UNL     1       4.095   8.135  18.929  0.00  0.00    +0.000 HD
ENDROOT
BRANCH   2   5
ATOM      5  C   UNL     1       1.813   7.873  19.912  0.00  0.00    +0.000 A 
ATOM      6  C   UNL     1       1.213   9.014  19.407  0.00  0.00    +0.000 A 
ATOM      7  C   UNL     1       0.513   9.657  20.470  0.00  0.00    +0.000 A 
ATOM      8  C   UNL     1      -0.297  10.805  20.557  0.00  0.00    +0.000 A 
ATOM      9  C   UNL     1      -0.862  11.151  21.791  0.00  0.00    +0.000 A 
ATOM     10  C   UNL     1      -0.623  10.378  22.926  0.00  0.00    +0.000 A 
ATOM     11  C   UNL     1       0.183   9.237  22.865  0.00  0.00    +0.000 A 
ATOM     12  C   UNL     1       0.728   8.903  21.621  0.00  0.00    +0.000 A 
ATOM     13  N   UNL     1       1.525   7.845  21.262  0.00  0.00    +0.000 N 
ATOM     14  H   UNL     1       1.842   7.113  21.881  0.00  0.00    +0.000 HD
ENDBRANCH   2   5
BRANCH   3  15
ATOM     15  C   UNL     1       4.694   6.352  18.060  0.00  0.00    +0.000 A 
ATOM     16  C   UNL     1       5.538   5.435  18.717  0.00  0.00    +0.000 A 
ATOM     17  C   UNL     1       6.463   4.661  18.009  0.00  0.00    +0.000 A 
ATOM     18  C   UNL     1       6.522   4.827  16.648  0.00  0.00    +0.000 A 
ATOM     19  C   UNL     1       5.681   5.693  15.990  0.00  0.00    +0.000 A 
ATOM     20  C   UNL     1       4.743   6.453  16.662  0.00  0.00    +0.000 A 
ATOM     21  O   UNL     1       5.908   5.711  14.648  0.00  0.00    +0.000 OA
ATOM     22  C   UNL     1       7.045   4.824  14.556  0.00  0.00    +0.000 C 
ATOM     23  O   UNL     1       7.383   4.195  15.807  0.00  0.00    +0.000 OA
ENDBRANCH   3  15
TORSDOF 2
ENDMDL
MODEL 9
REMARK VINA RESULT:      -7.3      2.616      8.639
REMARK  Name = 
REMARK  2 active torsions:
REMARK  status: ('A' for Active; 'I' for Inactive)
REMARK    1  A    between atoms: C_2  and  C_13
REMARK    2  A    between atoms: N_3  and  C_4
REMARK                            x       y       z     vdW  Elec       q    Type
REMARK                         _______ _______ _______ _____ _____    ______ ____
ROOT
ATOM      1  O   UNL     1       5.801   5.839  18.237  0.00  0.00    +0.000 OA
ATOM      2  C   UNL     1       4.996   5.630  17.335  0.00  0.00    +0.000 C 
ATOM      3  N   UNL     1       3.630   5.829  17.425  0.00  0.00    +0.000 N 
ATOM      4  H   UNL     1       3.065   5.455  16.679  0.00  0.00    +0.000 HD
ENDROOT
BRANCH   2   5
ATOM      5  C   UNL     1       5.462   5.108  16.066  0.00  0.00    +0.000 A 
ATOM      6  C   UNL     1       5.027   4.092  15.233  0.00  0.00    +0.000 A 
ATOM      7  C   UNL     1       5.849   4.088  14.069  0.00  0.00    +0.000 A 
ATOM      8  C   UNL     1       5.863   3.330  12.882  0.00  0.00    +0.000 A 
ATOM      9  C   UNL     1       6.826   3.610  11.904  0.00  0.00    +0.000 A 
ATOM     10  C   UNL     1       7.767   4.619  12.099  0.00  0.00    +0.000 A 
ATOM     11  C   UNL     1       7.775   5.381  13.272  0.00  0.00    +0.000 A 
ATOM     12  C   UNL     1       6.798   5.093  14.231  0.00  0.00    +0.000 A 
ATOM     13  N   UNL     1       6.554   5.681  15.446  0.00  0.00    +0.000 N 
ATOM     14  H   UNL     1       7.072   6.454  15.838  0.00  0.00    +0.000 HD
ENDBRANCH   2   5
BRANCH   3  15
ATOM     15  C   UNL     1       2.939   6.378  18.530  0.00  0.00    +0.000 A 
ATOM     16  C   UNL     1       2.607   5.627  19.675  0.00  0.00    +0.000 A 
ATOM     17  C   UNL     1       1.872   6.187  20.725  0.00  0.00    +0.000 A 
ATOM     18  C   UNL     1       1.483   7.498  20.600  0.00  0.00    +0.000 A 
ATOM     19  C   UNL     1       1.830   8.252  19.505  0.00  0.00    +0.000 A 
ATOM     20  C   UNL     1       2.575   7.730  18.464  0.00  0.00    +0.000 A 
ATOM     21  O   UNL     1       1.341   9.520  19.577  0.00  0.00    +0.000 OA
ATOM     22  C   UNL     1       0.576   9.444  20.801  0.00  0.00    +0.000 C 
ATOM     23  O   UNL     1       0.733   8.192  21.497  0.00  0.00    +0.000 OA
ENDBRANCH   3  15
TORSDOF 2
ENDMDL
