MODEL 1
REMARK VINA RESULT:      -7.9      0.000      0.000
REMARK  Name = 
REMARK  7 active torsions:
REMARK  status: ('A' for Active; 'I' for Inactive)
REMARK    1  A    between atoms: C_1  and  C_2
REMARK    2  A    between atoms: C_2  and  O_3
REMARK    3  A    between atoms: O_3  and  C_4
REMARK    4  A    between atoms: C_10  and  C_11
REMARK    5  A    between atoms: C_15  and  C_16
REMARK    6  A    between atoms: C_17  and  C_18
REMARK    7  A    between atoms: C_18  and  C_19
REMARK                            x       y       z     vdW  Elec       q    Type
REMARK                         _______ _______ _______ _____ _____    ______ ____
ROOT
ATOM      1  C   UNL     1       2.437   5.710  20.034  0.00  0.00    +0.000 A 
ATOM      2  N   UNL     1       1.882   6.598  20.854  0.00  0.00    +0.000 NA
ATOM      3  N   UNL     1       1.754   7.727  20.107  0.00  0.00    +0.000 N 
ATOM      4  C   UNL     1       0.993   8.837  20.614  0.00  0.00    +0.000 A 
ATOM      5  C   UNL     1       0.561   8.821  21.943  0.00  0.00    +0.000 A 
ATOM      6  C   UNL     1      -0.258   9.857  22.403  0.00  0.00    +0.000 A 
ATOM      7  C   UNL     1      -0.630  10.878  21.533  0.00  0.00    +0.000 A 
ATOM      8  C   UNL     1      -0.134  10.836  20.242  0.00  0.00    +0.000 A 
ATOM      9  N   UNL     1       0.656   9.851  19.768  0.00  0.00    +0.000 NA
ATOM     10  C   UNL     1       2.386   7.584  18.874  0.00  0.00    +0.000 A 
ATOM     11  C   UNL     1       2.557   8.658  17.858  0.00  0.00    +0.000 C 
ATOM     12  C   UNL     1       2.816   6.263  18.791  0.00  0.00    +0.000 A 
ENDROOT
BRANCH   7  13
ATOM     13  C   UNL     1      -1.496  11.940  21.947  0.00  0.00    +0.000 C 
ATOM     14  N   UNL     1      -2.213  12.785  22.285  0.00  0.00    +0.000 NA
ENDBRANCH   7  13
BRANCH   1  15
ATOM     15  O   UNL     1       2.635   4.438  20.462  0.00  0.00    +0.000 OA
BRANCH  15  17
ATOM     16  C   UNL     1       1.463   2.666  21.637  0.00  0.00    +0.000 C 
ATOM     17  C   UNL     1       1.426   3.665  20.492  0.00  0.00    +0.000 C 
ENDBRANCH  15  17
ENDBRANCH   1  15
BRANCH  12  18
ATOM     18  C   UNL     1       3.576   5.634  17.672  0.00  0.00    +0.000 C 
BRANCH  18  19
ATOM     19  C   UNL     1       5.055   5.882  17.872  0.00  0.00    +0.000 A 
ATOM     20  C   UNL     1       5.735   6.839  17.097  0.00  0.00    +0.000 A 
ATOM     21  C   UNL     1       7.067   7.167  17.370  0.00  0.00    +0.000 A 
ATOM     22  C   UNL     1       7.740   6.540  18.416  0.00  0.00    +0.000 A 
ATOM     23  C   UNL     1       7.087   5.575  19.178  0.00  0.00    +0.000 A 
ATOM     24  C   UNL     1       5.755   5.248  18.909  0.00  0.00    +0.000 A 
ENDBRANCH  18  19
ENDBRANCH  12  18
TORSDOF 5
ENDMDL
MODEL 2
REMARK VINA RESULT:      -7.8      0.269      1.019
REMARK  Name = 
REMARK  7 active torsions:
REMARK  status: ('A' for Active; 'I' for Inactive)
REMARK    1  A    between atoms: C_1  and  C_2
REMARK    2  A    between atoms: C_2  and  O_3
REMARK    3  A    between atoms: O_3  and  C_4
REMARK    4  A    between atoms: C_10  and  C_11
REMARK    5  A    between atoms: C_15  and  C_16
REMARK    6  A    between atoms: C_17  and  C_18
REMARK    7  A    between atoms: C_18  and  C_19
REMARK                            x       y       z     vdW  Elec       q    Type
REMARK                         _______ _______ _______ _____ _____    ______ ____
ROOT
ATOM      1  C   UNL     1       2.258   5.801  20.028  0.00  0.00    +0.000 A 
ATOM      2  N   UNL     1       1.695   6.635  20.898  0.00  0.00    +0.000 NA
ATOM      3  N   UNL     1       1.597   7.816  20.232  0.00  0.00    +0.000 N 
ATOM      4  C   UNL     1       0.838   8.897  20.801  0.00  0.00    +0.000 A 
ATOM      5  C   UNL     1       0.376   8.791  22.116  0.00  0.00    +0.000 A 
ATOM      6  C   UNL     1      -0.442   9.802  22.632  0.00  0.00    +0.000 A 
ATOM      7  C   UNL     1      -0.782  10.888  21.829  0.00  0.00    +0.000 A 
ATOM      8  C   UNL     1      -0.256  10.932  20.550  0.00  0.00    +0.000 A 
ATOM      9  N   UNL     1       0.533   9.973  20.024  0.00  0.00    +0.000 NA
ATOM     10  C   UNL     1       2.255   7.753  19.007  0.00  0.00    +0.000 A 
ATOM     11  C   UNL     1       2.462   8.895  18.075  0.00  0.00    +0.000 C 
ATOM     12  C   UNL     1       2.672   6.436  18.837  0.00  0.00    +0.000 A 
ENDROOT
BRANCH   7  13
ATOM     13  C   UNL     1      -1.644  11.928  22.300  0.00  0.00    +0.000 C 
ATOM     14  N   UNL     1      -2.327  12.786  22.677  0.00  0.00    +0.000 NA
ENDBRANCH   7  13
BRANCH   1  15
ATOM     15  O   UNL     1       2.431   4.498  20.368  0.00  0.00    +0.000 OA
BRANCH  15  17
ATOM     16  C   UNL     1       1.361   2.721  21.630  0.00  0.00    +0.000 C 
ATOM     17  C   UNL     1       1.191   3.808  20.580  0.00  0.00    +0.000 C 
ENDBRANCH  15  17
ENDBRANCH   1  15
BRANCH  12  18
ATOM     18  C   UNL     1       3.449   5.879  17.692  0.00  0.00    +0.000 C 
BRANCH  18  19
ATOM     19  C   UNL     1       4.926   6.084  17.947  0.00  0.00    +0.000 A 
ATOM     20  C   UNL     1       5.585   5.378  18.971  0.00  0.00    +0.000 A 
ATOM     21  C   UNL     1       6.972   5.463  19.122  0.00  0.00    +0.000 A 
ATOM     22  C   UNL     1       7.722   6.258  18.259  0.00  0.00    +0.000 A 
ATOM     23  C   UNL     1       7.082   6.979  17.254  0.00  0.00    +0.000 A 
ATOM     24  C   UNL     1       5.695   6.894  17.098  0.00  0.00    +0.000 A 
ENDBRANCH  18  19
ENDBRANCH  12  18
TORSDOF 5
ENDMDL
MODEL 3
REMARK VINA RESULT:      -7.4      1.132      1.532
REMARK  Name = 
REMARK  7 active torsions:
REMARK  status: ('A' for Active; 'I' for Inactive)
REMARK    1  A    between atoms: C_1  and  C_2
REMARK    2  A    between atoms: C_2  and  O_3
REMARK    3  A    between atoms: O_3  and  C_4
REMARK    4  A    between atoms: C_10  and  C_11
REMARK    5  A    between atoms: C_15  and  C_16
REMARK    6  A    between atoms: C_17  and  C_18
REMARK    7  A    between atoms: C_18  and  C_19
REMARK                            x       y       z     vdW  Elec       q    Type
REMARK                         _______ _______ _______ _____ _____    ______ ____
ROOT
ATOM      1  C   UNL     1       2.262   4.979  19.834  0.00  0.00    +0.000 A 
ATOM      2  N   UNL     1       1.905   5.936  20.686  0.00  0.00    +0.000 NA
ATOM      3  N   UNL     1       1.934   7.081  19.952  0.00  0.00    +0.000 N 
ATOM      4  C   UNL     1       1.398   8.296  20.503  0.00  0.00    +0.000 A 
ATOM      5  C   UNL     1       1.032   8.335  21.851  0.00  0.00    +0.000 A 
ATOM      6  C   UNL     1       0.422   9.488  22.357  0.00  0.00    +0.000 A 
ATOM      7  C   UNL     1       0.188  10.569  21.511  0.00  0.00    +0.000 A 
ATOM      8  C   UNL     1       0.609  10.462  20.198  0.00  0.00    +0.000 A 
ATOM      9  N   UNL     1       1.198   9.364  19.680  0.00  0.00    +0.000 NA
ATOM     10  C   UNL     1       2.474   6.850  18.690  0.00  0.00    +0.000 A 
ATOM     11  C   UNL     1       2.777   7.893  17.673  0.00  0.00    +0.000 C 
ATOM     12  C   UNL     1       2.670   5.476  18.578  0.00  0.00    +0.000 A 
ENDROOT
BRANCH   7  13
ATOM     13  C   UNL     1      -0.464  11.756  21.973  0.00  0.00    +0.000 C 
ATOM     14  N   UNL     1      -0.988  12.726  22.329  0.00  0.00    +0.000 NA
ENDBRANCH   7  13
BRANCH   1  15
ATOM     15  O   UNL     1       2.261   3.685  20.245  0.00  0.00    +0.000 OA
BRANCH  15  17
ATOM     16  C   UNL     1       0.627   2.570  18.837  0.00  0.00    +0.000 C 
ATOM     17  C   UNL     1       0.953   3.095  20.226  0.00  0.00    +0.000 C 
ENDBRANCH  15  17
ENDBRANCH   1  15
BRANCH  12  18
ATOM     18  C   UNL     1       3.258   4.743  17.419  0.00  0.00    +0.000 C 
BRANCH  18  19
ATOM     19  C   UNL     1       4.763   4.894  17.447  0.00  0.00    +0.000 A 
ATOM     20  C   UNL     1       5.493   4.612  18.617  0.00  0.00    +0.000 A 
ATOM     21  C   UNL     1       6.891   4.620  18.609  0.00  0.00    +0.000 A 
ATOM     22  C   UNL     1       7.581   4.916  17.436  0.00  0.00    +0.000 A 
ATOM     23  C   UNL     1       6.873   5.218  16.276  0.00  0.00    +0.000 A 
ATOM     24  C   UNL     1       5.475   5.208  16.280  0.00  0.00    +0.000 A 
ENDBRANCH  18  19
ENDBRANCH  12  18
TORSDOF 5
ENDMDL
MODEL 4
REMARK VINA RESULT:      -7.3      1.021      1.022
REMARK  Name = 
REMARK  7 active torsions:
REMARK  status: ('A' for Active; 'I' for Inactive)
REMARK    1  A    between atoms: C_1  and  C_2
REMARK    2  A    between atoms: C_2  and  O_3
REMARK    3  A    between atoms: O_3  and  C_4
REMARK    4  A    between atoms: C_10  and  C_11
REMARK    5  A    between atoms: C_15  and  C_16
REMARK    6  A    between atoms: C_17  and  C_18
REMARK    7  A    between atoms: C_18  and  C_19
REMARK                            x       y       z     vdW  Elec       q    Type
REMARK                         _______ _______ _______ _____ _____    ______ ____
ROOT
ATOM      1  C   UNL     1       1.984   5.079  19.845  0.00  0.00    +0.000 A 
ATOM      2  N   UNL     1       1.585   6.003  20.714  0.00  0.00    +0.000 NA
ATOM      3  N   UNL     1       1.776   7.187  20.074  0.00  0.00    +0.000 N 
ATOM      4  C   UNL     1       1.252   8.400  20.642  0.00  0.00    +0.000 A 
ATOM      5  C   UNL     1       0.726   8.378  21.937  0.00  0.00    +0.000 A 
ATOM      6  C   UNL     1       0.131   9.536  22.448  0.00  0.00    +0.000 A 
ATOM      7  C   UNL     1       0.071  10.683  21.660  0.00  0.00    +0.000 A 
ATOM      8  C   UNL     1       0.642  10.630  20.402  0.00  0.00    +0.000 A 
ATOM      9  N   UNL     1       1.221   9.529  19.880  0.00  0.00    +0.000 NA
ATOM     10  C   UNL     1       2.451   7.000  18.871  0.00  0.00    +0.000 A 
ATOM     11  C   UNL     1       2.941   8.082  17.974  0.00  0.00    +0.000 C 
ATOM     12  C   UNL     1       2.574   5.626  18.684  0.00  0.00    +0.000 A 
ENDROOT
BRANCH   7  13
ATOM     13  C   UNL     1      -0.559  11.880  22.126  0.00  0.00    +0.000 C 
ATOM     14  N   UNL     1      -1.087  12.846  22.491  0.00  0.00    +0.000 NA
ENDBRANCH   7  13
BRANCH   1  15
ATOM     15  O   UNL     1       1.853   3.765  20.158  0.00  0.00    +0.000 OA
BRANCH  15  17
ATOM     16  C   UNL     1       3.839   2.373  20.271  0.00  0.00    +0.000 C 
ATOM     17  C   UNL     1       2.893   3.293  21.027  0.00  0.00    +0.000 C 
ENDBRANCH  15  17
ENDBRANCH   1  15
BRANCH  12  18
ATOM     18  C   UNL     1       3.254   4.929  17.554  0.00  0.00    +0.000 C 
BRANCH  18  19
ATOM     19  C   UNL     1       4.743   5.182  17.637  0.00  0.00    +0.000 A 
ATOM     20  C   UNL     1       5.466   5.599  16.504  0.00  0.00    +0.000 A 
ATOM     21  C   UNL     1       6.812   5.964  16.606  0.00  0.00    +0.000 A 
ATOM     22  C   UNL     1       7.458   5.911  17.839  0.00  0.00    +0.000 A 
ATOM     23  C   UNL     1       6.761   5.481  18.966  0.00  0.00    +0.000 A 
ATOM     24  C   UNL     1       5.415   5.119  18.866  0.00  0.00    +0.000 A 
ENDBRANCH  18  19
ENDBRANCH  12  18
TORSDOF 5
ENDMDL
MODEL 5
REMARK VINA RESULT:      -7.3      1.804      2.604
REMARK  Name = 
REMARK  7 active torsions:
REMARK  status: ('A' for Active; 'I' for Inactive)
REMARK    1  A    between atoms: C_1  and  C_2
REMARK    2  A    between atoms: C_2  and  O_3
REMARK    3  A    between atoms: O_3  and  C_4
REMARK    4  A    between atoms: C_10  and  C_11
REMARK    5  A    between atoms: C_15  and  C_16
REMARK    6  A    between atoms: C_17  and  C_18
REMARK    7  A    between atoms: C_18  and  C_19
REMARK                            x       y       z     vdW  Elec       q    Type
REMARK                         _______ _______ _______ _____ _____    ______ ____
ROOT
ATOM      1  C   UNL     1       2.381   6.378  20.230  0.00  0.00    +0.000 A 
ATOM      2  N   UNL     1       1.841   7.180  21.143  0.00  0.00    +0.000 NA
ATOM      3  N   UNL     1       1.455   8.285  20.450  0.00  0.00    +0.000 N 
ATOM      4  C   UNL     1       0.638   9.280  21.089  0.00  0.00    +0.000 A 
ATOM      5  C   UNL     1       0.413   9.201  22.466  0.00  0.00    +0.000 A 
ATOM      6  C   UNL     1      -0.459  10.115  23.066  0.00  0.00    +0.000 A 
ATOM      7  C   UNL     1      -1.088  11.081  22.283  0.00  0.00    +0.000 A 
ATOM      8  C   UNL     1      -0.786  11.111  20.933  0.00  0.00    +0.000 A 
ATOM      9  N   UNL     1       0.049  10.242  20.326  0.00  0.00    +0.000 NA
ATOM     10  C   UNL     1       1.911   8.232  19.136  0.00  0.00    +0.000 A 
ATOM     11  C   UNL     1       1.787   9.323  18.131  0.00  0.00    +0.000 C 
ATOM     12  C   UNL     1       2.496   6.981  18.959  0.00  0.00    +0.000 A 
ENDROOT
BRANCH   7  13
ATOM     13  C   UNL     1      -2.015  12.015  22.845  0.00  0.00    +0.000 C 
ATOM     14  N   UNL     1      -2.776  12.755  23.310  0.00  0.00    +0.000 NA
ENDBRANCH   7  13
BRANCH   1  15
ATOM     15  O   UNL     1       2.807   5.142  20.595  0.00  0.00    +0.000 OA
BRANCH  15  17
ATOM     16  C   UNL     1       2.286   2.949  21.497  0.00  0.00    +0.000 C 
ATOM     17  C   UNL     1       1.752   4.320  21.117  0.00  0.00    +0.000 C 
ENDBRANCH  15  17
ENDBRANCH   1  15
BRANCH  12  18
ATOM     18  C   UNL     1       3.158   6.464  17.726  0.00  0.00    +0.000 C 
BRANCH  18  19
ATOM     19  C   UNL     1       2.984   4.962  17.660  0.00  0.00    +0.000 A 
ATOM     20  C   UNL     1       4.098   4.105  17.733  0.00  0.00    +0.000 A 
ATOM     21  C   UNL     1       3.933   2.719  17.808  0.00  0.00    +0.000 A 
ATOM     22  C   UNL     1       2.654   2.167  17.806  0.00  0.00    +0.000 A 
ATOM     23  C   UNL     1       1.542   3.001  17.714  0.00  0.00    +0.000 A 
ATOM     24  C   UNL     1       1.705   4.387  17.641  0.00  0.00    +0.000 A 
ENDBRANCH  18  19
ENDBRANCH  12  18
TORSDOF 5
ENDMDL
MODEL 6
REMARK VINA RESULT:      -6.9      2.785      7.578
REMARK  Name = 
REMARK  7 active torsions:
REMARK  status: ('A' for Active; 'I' for Inactive)
REMARK    1  A    between atoms: C_1  and  C_2
REMARK    2  A    between atoms: C_2  and  O_3
REMARK    3  A    between atoms: O_3  and  C_4
REMARK    4  A    between atoms: C_10  and  C_11
REMARK    5  A    between atoms: C_15  and  C_16
REMARK    6  A    between atoms: C_17  and  C_18
REMARK    7  A    between atoms: C_18  and  C_19
REMARK                            x       y       z     vdW  Elec       q    Type
REMARK                         _______ _______ _______ _____ _____    ______ ____
ROOT
ATOM      1  C   UNL     1       1.046   9.446  21.210  0.00  0.00    +0.000 A 
ATOM      2  N   UNL     1       1.190   8.127  21.308  0.00  0.00    +0.000 NA
ATOM      3  N   UNL     1       1.629   7.735  20.082  0.00  0.00    +0.000 N 
ATOM      4  C   UNL     1       2.094   6.389  19.887  0.00  0.00    +0.000 A 
ATOM      5  C   UNL     1       1.908   5.445  20.901  0.00  0.00    +0.000 A 
ATOM      6  C   UNL     1       2.447   4.164  20.744  0.00  0.00    +0.000 A 
ATOM      7  C   UNL     1       3.159   3.854  19.588  0.00  0.00    +0.000 A 
ATOM      8  C   UNL     1       3.270   4.834  18.619  0.00  0.00    +0.000 A 
ATOM      9  N   UNL     1       2.764   6.079  18.741  0.00  0.00    +0.000 NA
ATOM     10  C   UNL     1       1.594   8.793  19.178  0.00  0.00    +0.000 A 
ATOM     11  C   UNL     1       1.879   8.698  17.721  0.00  0.00    +0.000 C 
ATOM     12  C   UNL     1       1.242   9.931  19.899  0.00  0.00    +0.000 A 
ENDROOT
BRANCH   7  13
ATOM     13  C   UNL     1       3.759   2.569  19.398  0.00  0.00    +0.000 C 
ATOM     14  N   UNL     1       4.229   1.523  19.230  0.00  0.00    +0.000 NA
ENDBRANCH   7  13
BRANCH   1  15
ATOM     15  O   UNL     1       0.682  10.161  22.305  0.00  0.00    +0.000 OA
BRANCH  15  17
ATOM     16  C   UNL     1      -1.405  11.052  23.168  0.00  0.00    +0.000 C 
ATOM     17  C   UNL     1      -0.618   9.805  22.797  0.00  0.00    +0.000 C 
ENDBRANCH  15  17
ENDBRANCH   1  15
BRANCH  12  18
ATOM     18  C   UNL     1       1.043  11.309  19.364  0.00  0.00    +0.000 C 
BRANCH  18  19
ATOM     19  C   UNL     1      -0.436  11.552  19.153  0.00  0.00    +0.000 A 
ATOM     20  C   UNL     1      -1.171  10.768  18.244  0.00  0.00    +0.000 A 
ATOM     21  C   UNL     1      -2.559  10.898  18.145  0.00  0.00    +0.000 A 
ATOM     22  C   UNL     1      -3.234  11.816  18.945  0.00  0.00    +0.000 A 
ATOM     23  C   UNL     1      -2.517  12.615  19.834  0.00  0.00    +0.000 A 
ATOM     24  C   UNL     1      -1.130  12.484  19.937  0.00  0.00    +0.000 A 
ENDBRANCH  18  19
ENDBRANCH  12  18
TORSDOF 5
ENDMDL
MODEL 7
REMARK VINA RESULT:      -6.9      1.729      2.454
REMARK  Name = 
REMARK  7 active torsions:
REMARK  status: ('A' for Active; 'I' for Inactive)
REMARK    1  A    between atoms: C_1  and  C_2
REMARK    2  A    between atoms: C_2  and  O_3
REMARK    3  A    between atoms: O_3  and  C_4
REMARK    4  A    between atoms: C_10  and  C_11
REMARK    5  A    between atoms: C_15  and  C_16
REMARK    6  A    between atoms: C_17  and  C_18
REMARK    7  A    between atoms: C_18  and  C_19
REMARK                            x       y       z     vdW  Elec       q    Type
REMARK                         _______ _______ _______ _____ _____    ______ ____
ROOT
ATOM      1  C   UNL     1       2.210   6.583  20.300  0.00  0.00    +0.000 A 
ATOM      2  N   UNL     1       1.651   7.387  21.200  0.00  0.00    +0.000 NA
ATOM      3  N   UNL     1       1.292   8.496  20.498  0.00  0.00    +0.000 N 
ATOM      4  C   UNL     1       0.466   9.496  21.116  0.00  0.00    +0.000 A 
ATOM      5  C   UNL     1       0.203   9.417  22.487  0.00  0.00    +0.000 A 
ATOM      6  C   UNL     1      -0.678  10.337  23.064  0.00  0.00    +0.000 A 
ATOM      7  C   UNL     1      -1.278  11.308  22.266  0.00  0.00    +0.000 A 
ATOM      8  C   UNL     1      -0.941  11.338  20.925  0.00  0.00    +0.000 A 
ATOM      9  N   UNL     1      -0.096  10.464  20.339  0.00  0.00    +0.000 NA
ATOM     10  C   UNL     1       1.783   8.442  19.196  0.00  0.00    +0.000 A 
ATOM     11  C   UNL     1       1.694   9.535  18.190  0.00  0.00    +0.000 C 
ATOM     12  C   UNL     1       2.363   7.186  19.033  0.00  0.00    +0.000 A 
ENDROOT
BRANCH   7  13
ATOM     13  C   UNL     1      -2.213  12.248  22.804  0.00  0.00    +0.000 C 
ATOM     14  N   UNL     1      -2.987  12.996  23.235  0.00  0.00    +0.000 NA
ENDBRANCH   7  13
BRANCH   1  15
ATOM     15  O   UNL     1       2.616   5.342  20.674  0.00  0.00    +0.000 OA
BRANCH  15  17
ATOM     16  C   UNL     1       2.037   3.088  21.362  0.00  0.00    +0.000 C 
ATOM     17  C   UNL     1       1.522   4.468  20.986  0.00  0.00    +0.000 C 
ENDBRANCH  15  17
ENDBRANCH   1  15
BRANCH  12  18
ATOM     18  C   UNL     1       3.054   6.666  17.818  0.00  0.00    +0.000 C 
BRANCH  18  19
ATOM     19  C   UNL     1       3.088   5.154  17.873  0.00  0.00    +0.000 A 
ATOM     20  C   UNL     1       1.941   4.397  17.572  0.00  0.00    +0.000 A 
ATOM     21  C   UNL     1       2.004   3.002  17.491  0.00  0.00    +0.000 A 
ATOM     22  C   UNL     1       3.210   2.343  17.716  0.00  0.00    +0.000 A 
ATOM     23  C   UNL     1       4.349   3.078  18.037  0.00  0.00    +0.000 A 
ATOM     24  C   UNL     1       4.290   4.472  18.115  0.00  0.00    +0.000 A 
ENDBRANCH  18  19
ENDBRANCH  12  18
TORSDOF 5
ENDMDL
MODEL 8
REMARK VINA RESULT:      -6.8      2.835      7.627
REMARK  Name = 
REMARK  7 active torsions:
REMARK  status: ('A' for Active; 'I' for Inactive)
REMARK    1  A    between atoms: C_1  and  C_2
REMARK    2  A    between atoms: C_2  and  O_3
REMARK    3  A    between atoms: O_3  and  C_4
REMARK    4  A    between atoms: C_10  and  C_11
REMARK    5  A    between atoms: C_15  and  C_16
REMARK    6  A    between atoms: C_17  and  C_18
REMARK    7  A    between atoms: C_18  and  C_19
REMARK                            x       y       z     vdW  Elec       q    Type
REMARK                         _______ _______ _______ _____ _____    ______ ____
ROOT
ATOM      1  C   UNL     1       1.152   9.388  21.296  0.00  0.00    +0.000 A 
ATOM      2  N   UNL     1       1.284   8.066  21.349  0.00  0.00    +0.000 NA
ATOM      3  N   UNL     1       1.619   7.700  20.083  0.00  0.00    +0.000 N 
ATOM      4  C   UNL     1       2.047   6.353  19.818  0.00  0.00    +0.000 A 
ATOM      5  C   UNL     1       1.927   5.387  20.821  0.00  0.00    +0.000 A 
ATOM      6  C   UNL     1       2.433   4.103  20.590  0.00  0.00    +0.000 A 
ATOM      7  C   UNL     1       3.047   3.814  19.374  0.00  0.00    +0.000 A 
ATOM      8  C   UNL     1       3.096   4.817  18.423  0.00  0.00    +0.000 A 
ATOM      9  N   UNL     1       2.620   6.065  18.616  0.00  0.00    +0.000 NA
ATOM     10  C   UNL     1       1.528   8.782  19.211  0.00  0.00    +0.000 A 
ATOM     11  C   UNL     1       1.696   8.721  17.734  0.00  0.00    +0.000 C 
ATOM     12  C   UNL     1       1.252   9.905  19.986  0.00  0.00    +0.000 A 
ENDROOT
BRANCH   7  13
ATOM     13  C   UNL     1       3.611   2.526  19.105  0.00  0.00    +0.000 C 
ATOM     14  N   UNL     1       4.083   1.493  18.876  0.00  0.00    +0.000 NA
ENDBRANCH   7  13
BRANCH   1  15
ATOM     15  O   UNL     1       0.887  10.080  22.434  0.00  0.00    +0.000 OA
BRANCH  15  17
ATOM     16  C   UNL     1      -1.292  10.845  23.184  0.00  0.00    +0.000 C 
ATOM     17  C   UNL     1      -0.336   9.669  23.064  0.00  0.00    +0.000 C 
ENDBRANCH  15  17
ENDBRANCH   1  15
BRANCH  12  18
ATOM     18  C   UNL     1       1.032  11.299  19.503  0.00  0.00    +0.000 C 
BRANCH  18  19
ATOM     19  C   UNL     1      -0.453  11.593  19.490  0.00  0.00    +0.000 A 
ATOM     20  C   UNL     1      -0.986  12.636  20.269  0.00  0.00    +0.000 A 
ATOM     21  C   UNL     1      -2.332  12.998  20.158  0.00  0.00    +0.000 A 
ATOM     22  C   UNL     1      -3.167  12.319  19.274  0.00  0.00    +0.000 A 
ATOM     23  C   UNL     1      -2.659  11.269  18.512  0.00  0.00    +0.000 A 
ATOM     24  C   UNL     1      -1.313  10.908  18.619  0.00  0.00    +0.000 A 
ENDBRANCH  18  19
ENDBRANCH  12  18
TORSDOF 5
ENDMDL
MODEL 9
REMARK VINA RESULT:      -6.6      3.050      6.997
REMARK  Name = 
REMARK  7 active torsions:
REMARK  status: ('A' for Active; 'I' for Inactive)
REMARK    1  A    between atoms: C_1  and  C_2
REMARK    2  A    between atoms: C_2  and  O_3
REMARK    3  A    between atoms: O_3  and  C_4
REMARK    4  A    between atoms: C_10  and  C_11
REMARK    5  A    between atoms: C_15  and  C_16
REMARK    6  A    between atoms: C_17  and  C_18
REMARK    7  A    between atoms: C_18  and  C_19
REMARK                            x       y       z     vdW  Elec       q    Type
REMARK                         _______ _______ _______ _____ _____    ______ ____
ROOT
ATOM      1  C   UNL     1       0.709  10.078  21.514  0.00  0.00    +0.000 A 
ATOM      2  N   UNL     1       0.947   8.769  21.522  0.00  0.00    +0.000 NA
ATOM      3  N   UNL     1       1.306   8.475  20.244  0.00  0.00    +0.000 N 
ATOM      4  C   UNL     1       1.841   7.177  19.933  0.00  0.00    +0.000 A 
ATOM      5  C   UNL     1       1.802   6.170  20.902  0.00  0.00    +0.000 A 
ATOM      6  C   UNL     1       2.409   4.940  20.627  0.00  0.00    +0.000 A 
ATOM      7  C   UNL     1       3.040   4.742  19.401  0.00  0.00    +0.000 A 
ATOM      8  C   UNL     1       3.006   5.779  18.486  0.00  0.00    +0.000 A 
ATOM      9  N   UNL     1       2.431   6.976  18.722  0.00  0.00    +0.000 NA
ATOM     10  C   UNL     1       1.126   9.575  19.410  0.00  0.00    +0.000 A 
ATOM     11  C   UNL     1       1.294   9.578  17.931  0.00  0.00    +0.000 C 
ATOM     12  C   UNL     1       0.763  10.645  20.223  0.00  0.00    +0.000 A 
ENDROOT
BRANCH   7  13
ATOM     13  C   UNL     1       3.705   3.515  19.089  0.00  0.00    +0.000 C 
ATOM     14  N   UNL     1       4.262   2.528  18.845  0.00  0.00    +0.000 NA
ENDBRANCH   7  13
BRANCH   1  15
ATOM     15  O   UNL     1       0.392  10.706  22.675  0.00  0.00    +0.000 OA
BRANCH  15  17
ATOM     16  C   UNL     1      -1.752  11.790  23.021  0.00  0.00    +0.000 C 
ATOM     17  C   UNL     1      -0.969  10.488  23.074  0.00  0.00    +0.000 C 
ENDBRANCH  15  17
ENDBRANCH   1  15
BRANCH  12  18
ATOM     18  C   UNL     1       0.430  12.032  19.787  0.00  0.00    +0.000 C 
BRANCH  18  19
ATOM     19  C   UNL     1       1.704  12.841  19.683  0.00  0.00    +0.000 A 
ATOM     20  C   UNL     1       2.256  13.154  18.427  0.00  0.00    +0.000 A 
ATOM     21  C   UNL     1       3.355  14.012  18.321  0.00  0.00    +0.000 A 
ATOM     22  C   UNL     1       3.924  14.564  19.467  0.00  0.00    +0.000 A 
ATOM     23  C   UNL     1       3.402  14.246  20.718  0.00  0.00    +0.000 A 
ATOM     24  C   UNL     1       2.301  13.391  20.826  0.00  0.00    +0.000 A 
ENDBRANCH  18  19
ENDBRANCH  12  18
TORSDOF 5
ENDMDL
