MODEL 1
REMARK VINA RESULT:      -8.3      0.000      0.000
REMARK  Name = 
REMARK  9 active torsions:
REMARK  status: ('A' for Active; 'I' for Inactive)
REMARK    1  A    between atoms: C_1  and  C_2
REMARK    2  A    between atoms: C_2  and  C_3
REMARK    3  A    between atoms: C_3  and  C_4
REMARK    4  A    between atoms: C_4  and  C_5
REMARK    5  A    between atoms: C_5  and  O_7
REMARK    6  A    between atoms: C_12  and  C_13
REMARK    7  A    between atoms: C_16  and  N_17
REMARK    8  A    between atoms: N_20  and  C_21
REMARK    9  A    between atoms: C_24  and  C_25
REMARK                            x       y       z     vdW  Elec       q    Type
REMARK                         _______ _______ _______ _____ _____    ______ ____
ROOT
ATOM      1  C   UNL     1       0.616   9.071  21.132  0.00  0.00    +0.000 A 
ATOM      2  C   UNL     1       0.713  10.367  20.610  0.00  0.00    +0.000 A 
ATOM      3  C   UNL     1       0.159  11.462  21.276  0.00  0.00    +0.000 A 
ATOM      4  C   UNL     1      -0.548  11.292  22.464  0.00  0.00    +0.000 A 
ATOM      5  C   UNL     1      -0.641  10.015  23.015  0.00  0.00    +0.000 A 
ATOM      6  C   UNL     1      -0.071   8.920  22.352  0.00  0.00    +0.000 A 
ENDROOT
BRANCH   1  12
ATOM      7  C   UNL     1       4.844   5.148  17.905  0.00  0.00    +0.000 C 
ATOM      8  C   UNL     1       4.260   6.175  16.912  0.00  0.00    +0.000 C 
ATOM      9  C   UNL     1       3.728   7.429  17.589  0.00  0.00    +0.000 C 
ATOM     10  C   UNL     1       2.839   7.100  18.757  0.00  0.00    +0.000 A 
ATOM     11  C   UNL     1       2.075   8.128  19.325  0.00  0.00    +0.000 A 
ATOM     12  C   UNL     1       1.279   7.927  20.470  0.00  0.00    +0.000 A 
ATOM     13  C   UNL     1       1.207   6.624  20.987  0.00  0.00    +0.000 A 
ATOM     14  C   UNL     1       1.967   5.588  20.439  0.00  0.00    +0.000 A 
ATOM     15  C   UNL     1       2.809   5.835  19.351  0.00  0.00    +0.000 A 
ATOM     16  C   UNL     1       3.743   4.766  18.906  0.00  0.00    +0.000 C 
ATOM     17  O   UNL     1       3.700   3.663  19.448  0.00  0.00    +0.000 OA
BRANCH   7  19
ATOM     18  C   UNL     1       5.407   4.009  15.634  0.00  0.00    +0.000 C 
ATOM     19  C   UNL     1       5.321   3.873  17.153  0.00  0.00    +0.000 C 
ENDBRANCH   7  19
BRANCH   7  20
ATOM     20  C   UNL     1       5.999   5.692  18.799  0.00  0.00    +0.000 C 
BRANCH  20  21
ATOM     21  C   UNL     1       7.379   5.666  18.192  0.00  0.00    +0.000 C 
ATOM     22  O   UNL     1       7.779   6.429  17.331  0.00  0.00    +0.000 OA
BRANCH  21  23
ATOM     23  O   UNL     1       8.179   4.734  18.752  0.00  0.00    +0.000 OA
ATOM     24  H   UNL     1       8.110   4.666  19.723  0.00  0.00    +0.000 HD
ENDBRANCH  21  23
ENDBRANCH  20  21
ENDBRANCH   7  20
ENDBRANCH   1  12
BRANCH   4  25
ATOM     25  N   UNL     1      -1.157  12.370  23.137  0.00  0.00    +0.000 N 
ATOM     26  C   UNL     1      -2.392  12.893  22.789  0.00  0.00    +0.000 C 
ATOM     27  O   UNL     1      -3.155  12.394  21.969  0.00  0.00    +0.000 OA
ATOM     28  N   UNL     1      -2.648  14.074  23.466  0.00  0.00    +0.000 N 
ATOM     29  H   UNL     1      -0.848  12.570  24.077  0.00  0.00    +0.000 HD
ATOM     30  H   UNL     1      -1.826  14.633  23.645  0.00  0.00    +0.000 HD
BRANCH  28  31
ATOM     31  C   UNL     1      -3.858  14.774  23.268  0.00  0.00    +0.000 A 
ATOM     32  C   UNL     1      -3.913  15.941  22.500  0.00  0.00    +0.000 A 
ATOM     33  C   UNL     1      -5.116  16.635  22.355  0.00  0.00    +0.000 A 
ATOM     34  C   UNL     1      -6.274  16.174  22.986  0.00  0.00    +0.000 A 
ATOM     35  C   UNL     1      -7.570  16.916  22.851  0.00  0.00    +0.000 C 
ATOM     36  C   UNL     1      -6.213  15.004  23.755  0.00  0.00    +0.000 A 
ATOM     37  C   UNL     1      -5.016  14.293  23.875  0.00  0.00    +0.000 A 
ENDBRANCH  28  31
ENDBRANCH   4  25
TORSDOF 7
ENDMDL
MODEL 2
REMARK VINA RESULT:      -8.3      0.581      1.009
REMARK  Name = 
REMARK  9 active torsions:
REMARK  status: ('A' for Active; 'I' for Inactive)
REMARK    1  A    between atoms: C_1  and  C_2
REMARK    2  A    between atoms: C_2  and  C_3
REMARK    3  A    between atoms: C_3  and  C_4
REMARK    4  A    between atoms: C_4  and  C_5
REMARK    5  A    between atoms: C_5  and  O_7
REMARK    6  A    between atoms: C_12  and  C_13
REMARK    7  A    between atoms: C_16  and  N_17
REMARK    8  A    between atoms: N_20  and  C_21
REMARK    9  A    between atoms: C_24  and  C_25
REMARK                            x       y       z     vdW  Elec       q    Type
REMARK                         _______ _______ _______ _____ _____    ______ ____
ROOT
ATOM      1  C   UNL     1       0.747   8.832  21.003  0.00  0.00    +0.000 A 
ATOM      2  C   UNL     1       0.719  10.135  20.486  0.00  0.00    +0.000 A 
ATOM      3  C   UNL     1       0.119  11.181  21.188  0.00  0.00    +0.000 A 
ATOM      4  C   UNL     1      -0.511  10.953  22.410  0.00  0.00    +0.000 A 
ATOM      5  C   UNL     1      -0.478   9.671  22.956  0.00  0.00    +0.000 A 
ATOM      6  C   UNL     1       0.138   8.626  22.255  0.00  0.00    +0.000 A 
ENDROOT
BRANCH   1  12
ATOM      7  C   UNL     1       5.150   5.221  17.649  0.00  0.00    +0.000 C 
ATOM      8  C   UNL     1       4.531   6.265  16.695  0.00  0.00    +0.000 C 
ATOM      9  C   UNL     1       3.944   7.466  17.419  0.00  0.00    +0.000 C 
ATOM     10  C   UNL     1       3.062   7.054  18.565  0.00  0.00    +0.000 A 
ATOM     11  C   UNL     1       2.254   8.025  19.170  0.00  0.00    +0.000 A 
ATOM     12  C   UNL     1       1.460   7.746  20.299  0.00  0.00    +0.000 A 
ATOM     13  C   UNL     1       1.438   6.420  20.761  0.00  0.00    +0.000 A 
ATOM     14  C   UNL     1       2.242   5.439  20.176  0.00  0.00    +0.000 A 
ATOM     15  C   UNL     1       3.080   5.765  19.106  0.00  0.00    +0.000 A 
ATOM     16  C   UNL     1       4.059   4.754  18.624  0.00  0.00    +0.000 C 
ATOM     17  O   UNL     1       4.057   3.628  19.120  0.00  0.00    +0.000 OA
BRANCH   7  19
ATOM     18  C   UNL     1       5.586   4.125  15.329  0.00  0.00    +0.000 C 
ATOM     19  C   UNL     1       5.683   3.998  16.848  0.00  0.00    +0.000 C 
ENDBRANCH   7  19
BRANCH   7  20
ATOM     20  C   UNL     1       6.276   5.773  18.573  0.00  0.00    +0.000 C 
BRANCH  20  21
ATOM     21  C   UNL     1       7.412   6.489  17.884  0.00  0.00    +0.000 C 
ATOM     22  O   UNL     1       7.544   6.591  16.678  0.00  0.00    +0.000 OA
BRANCH  21  23
ATOM     23  O   UNL     1       8.259   7.080  18.752  0.00  0.00    +0.000 OA
ATOM     24  H   UNL     1       7.831   7.494  19.525  0.00  0.00    +0.000 HD
ENDBRANCH  21  23
ENDBRANCH  20  21
ENDBRANCH   7  20
ENDBRANCH   1  12
BRANCH   4  25
ATOM     25  N   UNL     1      -1.165  11.980  23.121  0.00  0.00    +0.000 N 
ATOM     26  C   UNL     1      -2.367  12.543  22.725  0.00  0.00    +0.000 C 
ATOM     27  O   UNL     1      -3.067  12.122  21.810  0.00  0.00    +0.000 OA
ATOM     28  N   UNL     1      -2.668  13.668  23.475  0.00  0.00    +0.000 N 
ATOM     29  H   UNL     1      -0.928  12.099  24.096  0.00  0.00    +0.000 HD
ATOM     30  H   UNL     1      -1.860  14.201  23.762  0.00  0.00    +0.000 HD
BRANCH  28  31
ATOM     31  C   UNL     1      -3.856  14.396  23.244  0.00  0.00    +0.000 A 
ATOM     32  C   UNL     1      -5.060  14.050  23.865  0.00  0.00    +0.000 A 
ATOM     33  C   UNL     1      -6.228  14.762  23.586  0.00  0.00    +0.000 A 
ATOM     34  C   UNL     1      -6.205  15.821  22.674  0.00  0.00    +0.000 A 
ATOM     35  C   UNL     1      -7.455  16.587  22.354  0.00  0.00    +0.000 C 
ATOM     36  C   UNL     1      -4.996  16.163  22.055  0.00  0.00    +0.000 A 
ATOM     37  C   UNL     1      -3.821  15.470  22.357  0.00  0.00    +0.000 A 
ENDBRANCH  28  31
ENDBRANCH   4  25
TORSDOF 7
ENDMDL
MODEL 3
REMARK VINA RESULT:      -8.3      0.269      1.181
REMARK  Name = 
REMARK  9 active torsions:
REMARK  status: ('A' for Active; 'I' for Inactive)
REMARK    1  A    between atoms: C_1  and  C_2
REMARK    2  A    between atoms: C_2  and  C_3
REMARK    3  A    between atoms: C_3  and  C_4
REMARK    4  A    between atoms: C_4  and  C_5
REMARK    5  A    between atoms: C_5  and  O_7
REMARK    6  A    between atoms: C_12  and  C_13
REMARK    7  A    between atoms: C_16  and  N_17
REMARK    8  A    between atoms: N_20  and  C_21
REMARK    9  A    between atoms: C_24  and  C_25
REMARK                            x       y       z     vdW  Elec       q    Type
REMARK                         _______ _______ _______ _____ _____    ______ ____
ROOT
ATOM      1  C   UNL     1       0.716   9.138  21.109  0.00  0.00    +0.000 A 
ATOM      2  C   UNL     1       0.111   9.001  22.365  0.00  0.00    +0.000 A 
ATOM      3  C   UNL     1      -0.526  10.078  22.985  0.00  0.00    +0.000 A 
ATOM      4  C   UNL     1      -0.542  11.338  22.390  0.00  0.00    +0.000 A 
ATOM      5  C   UNL     1       0.036  11.494  21.131  0.00  0.00    +0.000 A 
ATOM      6  C   UNL     1       0.661  10.408  20.505  0.00  0.00    +0.000 A 
ENDROOT
BRANCH   1  12
ATOM      7  C   UNL     1       4.706   5.062  17.769  0.00  0.00    +0.000 C 
ATOM      8  C   UNL     1       4.173   6.141  16.803  0.00  0.00    +0.000 C 
ATOM      9  C   UNL     1       3.714   7.406  17.510  0.00  0.00    +0.000 C 
ATOM     10  C   UNL     1       2.814   7.101  18.676  0.00  0.00    +0.000 A 
ATOM     11  C   UNL     1       2.111   8.156  19.272  0.00  0.00    +0.000 A 
ATOM     12  C   UNL     1       1.312   7.975  20.417  0.00  0.00    +0.000 A 
ATOM     13  C   UNL     1       1.172   6.666  20.907  0.00  0.00    +0.000 A 
ATOM     14  C   UNL     1       1.871   5.602  20.332  0.00  0.00    +0.000 A 
ATOM     15  C   UNL     1       2.719   5.827  19.243  0.00  0.00    +0.000 A 
ATOM     16  C   UNL     1       3.591   4.719  18.769  0.00  0.00    +0.000 C 
ATOM     17  O   UNL     1       3.490   3.608  19.288  0.00  0.00    +0.000 OA
BRANCH   7  19
ATOM     18  C   UNL     1       5.355   3.981  15.493  0.00  0.00    +0.000 C 
ATOM     19  C   UNL     1       5.108   3.779  16.987  0.00  0.00    +0.000 C 
ENDBRANCH   7  19
BRANCH   7  20
ATOM     20  C   UNL     1       5.893   5.522  18.667  0.00  0.00    +0.000 C 
BRANCH  20  21
ATOM     21  C   UNL     1       7.263   5.466  18.038  0.00  0.00    +0.000 C 
ATOM     22  O   UNL     1       7.745   6.335  17.334  0.00  0.00    +0.000 OA
BRANCH  21  23
ATOM     23  O   UNL     1       7.955   4.362  18.390  0.00  0.00    +0.000 OA
ATOM     24  H   UNL     1       8.779   4.535  18.882  0.00  0.00    +0.000 HD
ENDBRANCH  21  23
ENDBRANCH  20  21
ENDBRANCH   7  20
ENDBRANCH   1  12
BRANCH   4  25
ATOM     25  N   UNL     1      -1.137  12.454  23.010  0.00  0.00    +0.000 N 
ATOM     26  C   UNL     1      -2.392  12.938  22.681  0.00  0.00    +0.000 C 
ATOM     27  O   UNL     1      -3.182  12.375  21.930  0.00  0.00    +0.000 OA
ATOM     28  N   UNL     1      -2.635  14.161  23.283  0.00  0.00    +0.000 N 
ATOM     29  H   UNL     1      -0.791  12.723  23.921  0.00  0.00    +0.000 HD
ATOM     30  H   UNL     1      -1.814  14.740  23.388  0.00  0.00    +0.000 HD
BRANCH  28  31
ATOM     31  C   UNL     1      -3.862  14.833  23.089  0.00  0.00    +0.000 A 
ATOM     32  C   UNL     1      -4.956  14.620  23.932  0.00  0.00    +0.000 A 
ATOM     33  C   UNL     1      -6.170  15.267  23.691  0.00  0.00    +0.000 A 
ATOM     34  C   UNL     1      -6.303  16.126  22.597  0.00  0.00    +0.000 A 
ATOM     35  C   UNL     1      -7.605  16.817  22.318  0.00  0.00    +0.000 C 
ATOM     36  C   UNL     1      -5.203  16.336  21.756  0.00  0.00    +0.000 A 
ATOM     37  C   UNL     1      -3.980  15.712  22.014  0.00  0.00    +0.000 A 
ENDBRANCH  28  31
ENDBRANCH   4  25
TORSDOF 7
ENDMDL
MODEL 4
REMARK VINA RESULT:      -8.2      2.351      3.675
REMARK  Name = 
REMARK  9 active torsions:
REMARK  status: ('A' for Active; 'I' for Inactive)
REMARK    1  A    between atoms: C_1  and  C_2
REMARK    2  A    between atoms: C_2  and  C_3
REMARK    3  A    between atoms: C_3  and  C_4
REMARK    4  A    between atoms: C_4  and  C_5
REMARK    5  A    between atoms: C_5  and  O_7
REMARK    6  A    between atoms: C_12  and  C_13
REMARK    7  A    between atoms: C_16  and  N_17
REMARK    8  A    between atoms: N_20  and  C_21
REMARK    9  A    between atoms: C_24  and  C_25
REMARK                            x       y       z     vdW  Elec       q    Type
REMARK                         _______ _______ _______ _____ _____    ______ ____
ROOT
ATOM      1  C   UNL     1       0.623  10.430  19.015  0.00  0.00    +0.000 A 
ATOM      2  C   UNL     1       1.156  11.704  19.252  0.00  0.00    +0.000 A 
ATOM      3  C   UNL     1       0.331  12.803  19.496  0.00  0.00    +0.000 A 
ATOM      4  C   UNL     1      -1.057  12.675  19.467  0.00  0.00    +0.000 A 
ATOM      5  C   UNL     1      -1.612  11.414  19.254  0.00  0.00    +0.000 A 
ATOM      6  C   UNL     1      -0.779  10.310  19.025  0.00  0.00    +0.000 A 
ENDROOT
BRANCH   1  12
ATOM      7  C   UNL     1       3.143   4.322  18.872  0.00  0.00    +0.000 C 
ATOM      8  C   UNL     1       2.991   4.764  20.343  0.00  0.00    +0.000 C 
ATOM      9  C   UNL     1       1.960   5.866  20.535  0.00  0.00    +0.000 C 
ATOM     10  C   UNL     1       2.150   6.988  19.553  0.00  0.00    +0.000 A 
ATOM     11  C   UNL     1       1.447   8.183  19.759  0.00  0.00    +0.000 A 
ATOM     12  C   UNL     1       1.501   9.253  18.845  0.00  0.00    +0.000 A 
ATOM     13  C   UNL     1       2.360   9.120  17.743  0.00  0.00    +0.000 A 
ATOM     14  C   UNL     1       3.064   7.934  17.516  0.00  0.00    +0.000 A 
ATOM     15  C   UNL     1       2.929   6.858  18.399  0.00  0.00    +0.000 A 
ATOM     16  C   UNL     1       3.537   5.550  18.038  0.00  0.00    +0.000 C 
ATOM     17  O   UNL     1       4.215   5.462  17.015  0.00  0.00    +0.000 OA
BRANCH   7  19
ATOM     18  C   UNL     1       4.464   2.377  19.986  0.00  0.00    +0.000 C 
ATOM     19  C   UNL     1       4.246   3.234  18.741  0.00  0.00    +0.000 C 
ENDBRANCH   7  19
BRANCH   7  20
ATOM     20  C   UNL     1       1.827   3.817  18.207  0.00  0.00    +0.000 C 
BRANCH  20  21
ATOM     21  C   UNL     1       1.089   2.723  18.938  0.00  0.00    +0.000 C 
ATOM     22  O   UNL     1       0.288   2.901  19.838  0.00  0.00    +0.000 OA
BRANCH  21  23
ATOM     23  O   UNL     1       1.354   1.495  18.445  0.00  0.00    +0.000 OA
ATOM     24  H   UNL     1       1.054   0.756  19.007  0.00  0.00    +0.000 HD
ENDBRANCH  21  23
ENDBRANCH  20  21
ENDBRANCH   7  20
ENDBRANCH   1  12
BRANCH   4  25
ATOM     25  N   UNL     1      -1.917  13.774  19.664  0.00  0.00    +0.000 N 
ATOM     26  C   UNL     1      -2.223  14.296  20.910  0.00  0.00    +0.000 C 
ATOM     27  O   UNL     1      -1.677  13.967  21.958  0.00  0.00    +0.000 OA
ATOM     28  N   UNL     1      -3.252  15.220  20.830  0.00  0.00    +0.000 N 
ATOM     29  H   UNL     1      -2.070  14.394  18.882  0.00  0.00    +0.000 HD
ATOM     30  H   UNL     1      -3.938  15.013  20.118  0.00  0.00    +0.000 HD
BRANCH  28  31
ATOM     31  C   UNL     1      -3.720  15.883  21.985  0.00  0.00    +0.000 A 
ATOM     32  C   UNL     1      -4.764  15.365  22.757  0.00  0.00    +0.000 A 
ATOM     33  C   UNL     1      -5.233  16.063  23.871  0.00  0.00    +0.000 A 
ATOM     34  C   UNL     1      -4.669  17.294  24.218  0.00  0.00    +0.000 A 
ATOM     35  C   UNL     1      -5.172  18.063  25.403  0.00  0.00    +0.000 C 
ATOM     36  C   UNL     1      -3.624  17.810  23.440  0.00  0.00    +0.000 A 
ATOM     37  C   UNL     1      -3.134  17.096  22.344  0.00  0.00    +0.000 A 
ENDBRANCH  28  31
ENDBRANCH   4  25
TORSDOF 7
ENDMDL
MODEL 5
REMARK VINA RESULT:      -8.2      1.303      1.911
REMARK  Name = 
REMARK  9 active torsions:
REMARK  status: ('A' for Active; 'I' for Inactive)
REMARK    1  A    between atoms: C_1  and  C_2
REMARK    2  A    between atoms: C_2  and  C_3
REMARK    3  A    between atoms: C_3  and  C_4
REMARK    4  A    between atoms: C_4  and  C_5
REMARK    5  A    between atoms: C_5  and  O_7
REMARK    6  A    between atoms: C_12  and  C_13
REMARK    7  A    between atoms: C_16  and  N_17
REMARK    8  A    between atoms: N_20  and  C_21
REMARK    9  A    between atoms: C_24  and  C_25
REMARK                            x       y       z     vdW  Elec       q    Type
REMARK                         _______ _______ _______ _____ _____    ______ ____
ROOT
ATOM      1  C   UNL     1       1.495   8.365  20.019  0.00  0.00    +0.000 A 
ATOM      2  C   UNL     1       1.085   9.576  19.445  0.00  0.00    +0.000 A 
ATOM      3  C   UNL     1       0.458  10.565  20.205  0.00  0.00    +0.000 A 
ATOM      4  C   UNL     1       0.182  10.359  21.556  0.00  0.00    +0.000 A 
ATOM      5  C   UNL     1       0.599   9.172  22.155  0.00  0.00    +0.000 A 
ATOM      6  C   UNL     1       1.241   8.188  21.392  0.00  0.00    +0.000 A 
ENDROOT
BRANCH   1  12
ATOM      7  C   UNL     1       5.916   5.201  16.262  0.00  0.00    +0.000 C 
ATOM      8  C   UNL     1       5.163   6.227  15.388  0.00  0.00    +0.000 C 
ATOM      9  C   UNL     1       4.540   7.357  16.192  0.00  0.00    +0.000 C 
ATOM     10  C   UNL     1       3.767   6.844  17.375  0.00  0.00    +0.000 A 
ATOM     11  C   UNL     1       2.932   7.732  18.065  0.00  0.00    +0.000 A 
ATOM     12  C   UNL     1       2.237   7.358  19.231  0.00  0.00    +0.000 A 
ATOM     13  C   UNL     1       2.340   6.020  19.644  0.00  0.00    +0.000 A 
ATOM     14  C   UNL     1       3.173   5.121  18.974  0.00  0.00    +0.000 A 
ATOM     15  C   UNL     1       3.913   5.542  17.866  0.00  0.00    +0.000 A 
ATOM     16  C   UNL     1       4.929   4.623  17.285  0.00  0.00    +0.000 C 
ATOM     17  O   UNL     1       5.040   3.485  17.738  0.00  0.00    +0.000 OA
BRANCH   7  19
ATOM     18  C   UNL     1       5.884   3.946  13.982  0.00  0.00    +0.000 C 
ATOM     19  C   UNL     1       6.482   4.048  15.384  0.00  0.00    +0.000 C 
ENDBRANCH   7  19
BRANCH   7  20
ATOM     20  C   UNL     1       7.058   5.805  17.133  0.00  0.00    +0.000 C 
BRANCH  20  21
ATOM     21  C   UNL     1       7.692   4.874  18.137  0.00  0.00    +0.000 C 
ATOM     22  O   UNL     1       8.548   4.047  17.880  0.00  0.00    +0.000 OA
BRANCH  21  23
ATOM     23  O   UNL     1       7.260   5.092  19.397  0.00  0.00    +0.000 OA
ATOM     24  H   UNL     1       6.941   4.297  19.864  0.00  0.00    +0.000 HD
ENDBRANCH  21  23
ENDBRANCH  20  21
ENDBRANCH   7  20
ENDBRANCH   1  12
BRANCH   4  25
ATOM     25  N   UNL     1      -0.490  11.320  22.339  0.00  0.00    +0.000 N 
ATOM     26  C   UNL     1      -1.534  12.099  21.870  0.00  0.00    +0.000 C 
ATOM     27  O   UNL     1      -2.087  11.946  20.786  0.00  0.00    +0.000 OA
ATOM     28  N   UNL     1      -1.858  13.101  22.770  0.00  0.00    +0.000 N 
ATOM     29  H   UNL     1      -0.430  11.229  23.343  0.00  0.00    +0.000 HD
ATOM     30  H   UNL     1      -1.070  13.462  23.287  0.00  0.00    +0.000 HD
BRANCH  28  31
ATOM     31  C   UNL     1      -2.904  14.010  22.495  0.00  0.00    +0.000 A 
ATOM     32  C   UNL     1      -4.229  13.731  22.843  0.00  0.00    +0.000 A 
ATOM     33  C   UNL     1      -5.248  14.629  22.522  0.00  0.00    +0.000 A 
ATOM     34  C   UNL     1      -4.952  15.813  21.840  0.00  0.00    +0.000 A 
ATOM     35  C   UNL     1      -6.038  16.781  21.476  0.00  0.00    +0.000 C 
ATOM     36  C   UNL     1      -3.623  16.087  21.493  0.00  0.00    +0.000 A 
ATOM     37  C   UNL     1      -2.599  15.203  21.842  0.00  0.00    +0.000 A 
ENDBRANCH  28  31
ENDBRANCH   4  25
TORSDOF 7
ENDMDL
MODEL 6
REMARK VINA RESULT:      -8.1      2.217      2.779
REMARK  Name = 
REMARK  9 active torsions:
REMARK  status: ('A' for Active; 'I' for Inactive)
REMARK    1  A    between atoms: C_1  and  C_2
REMARK    2  A    between atoms: C_2  and  C_3
REMARK    3  A    between atoms: C_3  and  C_4
REMARK    4  A    between atoms: C_4  and  C_5
REMARK    5  A    between atoms: C_5  and  O_7
REMARK    6  A    between atoms: C_12  and  C_13
REMARK    7  A    between atoms: C_16  and  N_17
REMARK    8  A    between atoms: N_20  and  C_21
REMARK    9  A    between atoms: C_24  and  C_25
REMARK                            x       y       z     vdW  Elec       q    Type
REMARK                         _______ _______ _______ _____ _____    ______ ____
ROOT
ATOM      1  C   UNL     1       1.092   8.883  20.086  0.00  0.00    +0.000 A 
ATOM      2  C   UNL     1       0.821   8.908  21.460  0.00  0.00    +0.000 A 
ATOM      3  C   UNL     1      -0.015   9.876  22.018  0.00  0.00    +0.000 A 
ATOM      4  C   UNL     1      -0.573  10.879  21.228  0.00  0.00    +0.000 A 
ATOM      5  C   UNL     1      -0.335  10.864  19.854  0.00  0.00    +0.000 A 
ATOM      6  C   UNL     1       0.492   9.881  19.296  0.00  0.00    +0.000 A 
ENDROOT
BRANCH   1  12
ATOM      7  C   UNL     1       5.792   5.399  17.012  0.00  0.00    +0.000 C 
ATOM      8  C   UNL     1       5.037   6.247  15.967  0.00  0.00    +0.000 C 
ATOM      9  C   UNL     1       4.336   7.455  16.568  0.00  0.00    +0.000 C 
ATOM     10  C   UNL     1       3.533   7.089  17.786  0.00  0.00    +0.000 A 
ATOM     11  C   UNL     1       2.635   8.032  18.303  0.00  0.00    +0.000 A 
ATOM     12  C   UNL     1       1.906   7.804  19.486  0.00  0.00    +0.000 A 
ATOM     13  C   UNL     1       2.045   6.549  20.100  0.00  0.00    +0.000 A 
ATOM     14  C   UNL     1       2.941   5.598  19.604  0.00  0.00    +0.000 A 
ATOM     15  C   UNL     1       3.710   5.883  18.472  0.00  0.00    +0.000 A 
ATOM     16  C   UNL     1       4.786   4.936  18.075  0.00  0.00    +0.000 C 
ATOM     17  O   UNL     1       4.922   3.884  18.698  0.00  0.00    +0.000 OA
BRANCH   7  19
ATOM     18  C   UNL     1       6.271   4.074  14.824  0.00  0.00    +0.000 C 
ATOM     19  C   UNL     1       6.441   4.155  16.340  0.00  0.00    +0.000 C 
ENDBRANCH   7  19
BRANCH   7  20
ATOM     20  C   UNL     1       6.871   6.177  17.823  0.00  0.00    +0.000 C 
BRANCH  20  21
ATOM     21  C   UNL     1       7.599   5.393  18.886  0.00  0.00    +0.000 C 
ATOM     22  O   UNL     1       7.472   5.557  20.086  0.00  0.00    +0.000 OA
BRANCH  21  23
ATOM     23  O   UNL     1       8.380   4.418  18.374  0.00  0.00    +0.000 OA
ATOM     24  H   UNL     1       9.315   4.455  18.650  0.00  0.00    +0.000 HD
ENDBRANCH  21  23
ENDBRANCH  20  21
ENDBRANCH   7  20
ENDBRANCH   1  12
BRANCH   4  25
ATOM     25  N   UNL     1      -1.384  11.898  21.768  0.00  0.00    +0.000 N 
ATOM     26  C   UNL     1      -0.884  13.019  22.408  0.00  0.00    +0.000 C 
ATOM     27  O   UNL     1       0.302  13.329  22.448  0.00  0.00    +0.000 OA
ATOM     28  N   UNL     1      -1.893  13.737  23.029  0.00  0.00    +0.000 N 
ATOM     29  H   UNL     1      -2.328  11.980  21.417  0.00  0.00    +0.000 HD
ATOM     30  H   UNL     1      -2.643  13.167  23.390  0.00  0.00    +0.000 HD
BRANCH  28  31
ATOM     31  C   UNL     1      -1.606  14.926  23.735  0.00  0.00    +0.000 A 
ATOM     32  C   UNL     1      -1.465  14.937  25.126  0.00  0.00    +0.000 A 
ATOM     33  C   UNL     1      -1.222  16.134  25.802  0.00  0.00    +0.000 A 
ATOM     34  C   UNL     1      -1.127  17.335  25.093  0.00  0.00    +0.000 A 
ATOM     35  C   UNL     1      -0.881  18.631  25.807  0.00  0.00    +0.000 C 
ATOM     36  C   UNL     1      -1.270  17.318  23.700  0.00  0.00    +0.000 A 
ATOM     37  C   UNL     1      -1.482  16.116  23.020  0.00  0.00    +0.000 A 
ENDBRANCH  28  31
ENDBRANCH   4  25
TORSDOF 7
ENDMDL
MODEL 7
REMARK VINA RESULT:      -8.1      0.779      1.140
REMARK  Name = 
REMARK  9 active torsions:
REMARK  status: ('A' for Active; 'I' for Inactive)
REMARK    1  A    between atoms: C_1  and  C_2
REMARK    2  A    between atoms: C_2  and  C_3
REMARK    3  A    between atoms: C_3  and  C_4
REMARK    4  A    between atoms: C_4  and  C_5
REMARK    5  A    between atoms: C_5  and  O_7
REMARK    6  A    between atoms: C_12  and  C_13
REMARK    7  A    between atoms: C_16  and  N_17
REMARK    8  A    between atoms: N_20  and  C_21
REMARK    9  A    between atoms: C_24  and  C_25
REMARK                            x       y       z     vdW  Elec       q    Type
REMARK                         _______ _______ _______ _____ _____    ______ ____
ROOT
ATOM      1  C   UNL     1       0.948   8.768  20.991  0.00  0.00    +0.000 A 
ATOM      2  C   UNL     1       0.224   8.481  22.156  0.00  0.00    +0.000 A 
ATOM      3  C   UNL     1      -0.484   9.474  22.834  0.00  0.00    +0.000 A 
ATOM      4  C   UNL     1      -0.456  10.797  22.397  0.00  0.00    +0.000 A 
ATOM      5  C   UNL     1       0.240  11.105  21.229  0.00  0.00    +0.000 A 
ATOM      6  C   UNL     1       0.937  10.102  20.542  0.00  0.00    +0.000 A 
ENDROOT
BRANCH   1  12
ATOM      7  C   UNL     1       5.183   5.229  17.355  0.00  0.00    +0.000 C 
ATOM      8  C   UNL     1       4.532   6.303  16.458  0.00  0.00    +0.000 C 
ATOM      9  C   UNL     1       3.985   7.487  17.240  0.00  0.00    +0.000 C 
ATOM     10  C   UNL     1       3.148   7.047  18.409  0.00  0.00    +0.000 A 
ATOM     11  C   UNL     1       2.372   8.006  19.074  0.00  0.00    +0.000 A 
ATOM     12  C   UNL     1       1.624   7.698  20.227  0.00  0.00    +0.000 A 
ATOM     13  C   UNL     1       1.612   6.360  20.652  0.00  0.00    +0.000 A 
ATOM     14  C   UNL     1       2.384   5.391  20.007  0.00  0.00    +0.000 A 
ATOM     15  C   UNL     1       3.180   5.743  18.912  0.00  0.00    +0.000 A 
ATOM     16  C   UNL     1       4.131   4.741  18.361  0.00  0.00    +0.000 C 
ATOM     17  O   UNL     1       4.141   3.601  18.824  0.00  0.00    +0.000 OA
BRANCH   7  19
ATOM     18  C   UNL     1       5.524   4.202  14.989  0.00  0.00    +0.000 C 
ATOM     19  C   UNL     1       5.674   4.027  16.498  0.00  0.00    +0.000 C 
ENDBRANCH   7  19
BRANCH   7  20
ATOM     20  C   UNL     1       6.351   5.748  18.247  0.00  0.00    +0.000 C 
BRANCH  20  21
ATOM     21  C   UNL     1       7.402   6.578  17.552  0.00  0.00    +0.000 C 
ATOM     22  O   UNL     1       7.600   6.591  16.350  0.00  0.00    +0.000 OA
BRANCH  21  23
ATOM     23  O   UNL     1       8.080   7.379  18.400  0.00  0.00    +0.000 OA
ATOM     24  H   UNL     1       8.077   8.325  18.161  0.00  0.00    +0.000 HD
ENDBRANCH  21  23
ENDBRANCH  20  21
ENDBRANCH   7  20
ENDBRANCH   1  12
BRANCH   4  25
ATOM     25  N   UNL     1      -1.124  11.830  23.085  0.00  0.00    +0.000 N 
ATOM     26  C   UNL     1      -2.190  12.540  22.559  0.00  0.00    +0.000 C 
ATOM     27  O   UNL     1      -2.766  12.260  21.513  0.00  0.00    +0.000 OA
ATOM     28  N   UNL     1      -2.508  13.631  23.350  0.00  0.00    +0.000 N 
ATOM     29  H   UNL     1      -1.039  11.852  24.092  0.00  0.00    +0.000 HD
ATOM     30  H   UNL     1      -1.714  14.057  23.805  0.00  0.00    +0.000 HD
BRANCH  28  31
ATOM     31  C   UNL     1      -3.573  14.491  23.003  0.00  0.00    +0.000 A 
ATOM     32  C   UNL     1      -3.461  15.412  21.958  0.00  0.00    +0.000 A 
ATOM     33  C   UNL     1      -4.516  16.278  21.663  0.00  0.00    +0.000 A 
ATOM     34  C   UNL     1      -5.691  16.237  22.419  0.00  0.00    +0.000 A 
ATOM     35  C   UNL     1      -6.827  17.171  22.124  0.00  0.00    +0.000 C 
ATOM     36  C   UNL     1      -5.797  15.313  23.466  0.00  0.00    +0.000 A 
ATOM     37  C   UNL     1      -4.753  14.426  23.741  0.00  0.00    +0.000 A 
ENDBRANCH  28  31
ENDBRANCH   4  25
TORSDOF 7
ENDMDL
MODEL 8
REMARK VINA RESULT:      -8.0      1.391      2.036
REMARK  Name = 
REMARK  9 active torsions:
REMARK  status: ('A' for Active; 'I' for Inactive)
REMARK    1  A    between atoms: C_1  and  C_2
REMARK    2  A    between atoms: C_2  and  C_3
REMARK    3  A    between atoms: C_3  and  C_4
REMARK    4  A    between atoms: C_4  and  C_5
REMARK    5  A    between atoms: C_5  and  O_7
REMARK    6  A    between atoms: C_12  and  C_13
REMARK    7  A    between atoms: C_16  and  N_17
REMARK    8  A    between atoms: N_20  and  C_21
REMARK    9  A    between atoms: C_24  and  C_25
REMARK                            x       y       z     vdW  Elec       q    Type
REMARK                         _______ _______ _______ _____ _____    ______ ____
ROOT
ATOM      1  C   UNL     1       1.477   8.470  20.172  0.00  0.00    +0.000 A 
ATOM      2  C   UNL     1       0.908   8.176  21.419  0.00  0.00    +0.000 A 
ATOM      3  C   UNL     1       0.129   9.111  22.101  0.00  0.00    +0.000 A 
ATOM      4  C   UNL     1      -0.072  10.389  21.581  0.00  0.00    +0.000 A 
ATOM      5  C   UNL     1       0.466  10.700  20.333  0.00  0.00    +0.000 A 
ATOM      6  C   UNL     1       1.235   9.752  19.644  0.00  0.00    +0.000 A 
ENDROOT
BRANCH   1  12
ATOM      7  C   UNL     1       5.893   5.254  16.454  0.00  0.00    +0.000 C 
ATOM      8  C   UNL     1       5.092   6.217  15.554  0.00  0.00    +0.000 C 
ATOM      9  C   UNL     1       4.457   7.367  16.321  0.00  0.00    +0.000 C 
ATOM     10  C   UNL     1       3.726   6.888  17.545  0.00  0.00    +0.000 A 
ATOM     11  C   UNL     1       2.884   7.786  18.214  0.00  0.00    +0.000 A 
ATOM     12  C   UNL     1       2.227   7.447  19.413  0.00  0.00    +0.000 A 
ATOM     13  C   UNL     1       2.376   6.133  19.884  0.00  0.00    +0.000 A 
ATOM     14  C   UNL     1       3.218   5.226  19.234  0.00  0.00    +0.000 A 
ATOM     15  C   UNL     1       3.920   5.615  18.090  0.00  0.00    +0.000 A 
ATOM     16  C   UNL     1       4.946   4.698  17.528  0.00  0.00    +0.000 C 
ATOM     17  O   UNL     1       5.099   3.584  18.029  0.00  0.00    +0.000 OA
BRANCH   7  19
ATOM     18  C   UNL     1       5.995   4.019  14.165  0.00  0.00    +0.000 C 
ATOM     19  C   UNL     1       6.470   4.076  15.616  0.00  0.00    +0.000 C 
ENDBRANCH   7  19
BRANCH   7  20
ATOM     20  C   UNL     1       7.038   5.927  17.268  0.00  0.00    +0.000 C 
BRANCH  20  21
ATOM     21  C   UNL     1       7.678   5.081  18.342  0.00  0.00    +0.000 C 
ATOM     22  O   UNL     1       7.569   5.272  19.539  0.00  0.00    +0.000 OA
BRANCH  21  23
ATOM     23  O   UNL     1       8.348   4.021  17.842  0.00  0.00    +0.000 OA
ATOM     24  H   UNL     1       7.891   3.552  17.119  0.00  0.00    +0.000 HD
ENDBRANCH  21  23
ENDBRANCH  20  21
ENDBRANCH   7  20
ENDBRANCH   1  12
BRANCH   4  25
ATOM     25  N   UNL     1      -0.815  11.370  22.267  0.00  0.00    +0.000 N 
ATOM     26  C   UNL     1      -1.783  12.158  21.668  0.00  0.00    +0.000 C 
ATOM     27  O   UNL     1      -2.208  11.997  20.529  0.00  0.00    +0.000 OA
ATOM     28  N   UNL     1      -2.195  13.178  22.510  0.00  0.00    +0.000 N 
ATOM     29  H   UNL     1      -0.875  11.294  23.273  0.00  0.00    +0.000 HD
ATOM     30  H   UNL     1      -1.468  13.535  23.113  0.00  0.00    +0.000 HD
BRANCH  28  31
ATOM     31  C   UNL     1      -3.186  14.098  22.103  0.00  0.00    +0.000 A 
ATOM     32  C   UNL     1      -4.547  13.840  22.289  0.00  0.00    +0.000 A 
ATOM     33  C   UNL     1      -5.506  14.749  21.839  0.00  0.00    +0.000 A 
ATOM     34  C   UNL     1      -5.113  15.921  21.187  0.00  0.00    +0.000 A 
ATOM     35  C   UNL     1      -6.132  16.901  20.685  0.00  0.00    +0.000 C 
ATOM     36  C   UNL     1      -3.747  16.174  21.002  0.00  0.00    +0.000 A 
ATOM     37  C   UNL     1      -2.787  15.279  21.481  0.00  0.00    +0.000 A 
ENDBRANCH  28  31
ENDBRANCH   4  25
TORSDOF 7
ENDMDL
MODEL 9
REMARK VINA RESULT:      -7.9      1.530      2.854
REMARK  Name = 
REMARK  9 active torsions:
REMARK  status: ('A' for Active; 'I' for Inactive)
REMARK    1  A    between atoms: C_1  and  C_2
REMARK    2  A    between atoms: C_2  and  C_3
REMARK    3  A    between atoms: C_3  and  C_4
REMARK    4  A    between atoms: C_4  and  C_5
REMARK    5  A    between atoms: C_5  and  O_7
REMARK    6  A    between atoms: C_12  and  C_13
REMARK    7  A    between atoms: C_16  and  N_17
REMARK    8  A    between atoms: N_20  and  C_21
REMARK    9  A    between atoms: C_24  and  C_25
REMARK                            x       y       z     vdW  Elec       q    Type
REMARK                         _______ _______ _______ _____ _____    ______ ____
ROOT
ATOM      1  C   UNL     1       0.514   9.374  20.985  0.00  0.00    +0.000 A 
ATOM      2  C   UNL     1      -0.183  10.460  20.439  0.00  0.00    +0.000 A 
ATOM      3  C   UNL     1      -1.007  11.264  21.227  0.00  0.00    +0.000 A 
ATOM      4  C   UNL     1      -1.196  10.985  22.579  0.00  0.00    +0.000 A 
ATOM      5  C   UNL     1      -0.498   9.923  23.151  0.00  0.00    +0.000 A 
ATOM      6  C   UNL     1       0.341   9.127  22.360  0.00  0.00    +0.000 A 
ENDROOT
BRANCH   1  12
ATOM      7  C   UNL     1       3.708   4.493  17.878  0.00  0.00    +0.000 C 
ATOM      8  C   UNL     1       3.964   4.370  19.395  0.00  0.00    +0.000 C 
ATOM      9  C   UNL     1       2.900   5.051  20.241  0.00  0.00    +0.000 C 
ATOM     10  C   UNL     1       2.609   6.445  19.759  0.00  0.00    +0.000 A 
ATOM     11  C   UNL     1       1.843   7.288  20.575  0.00  0.00    +0.000 A 
ATOM     12  C   UNL     1       1.454   8.579  20.166  0.00  0.00    +0.000 A 
ATOM     13  C   UNL     1       1.934   9.037  18.929  0.00  0.00    +0.000 A 
ATOM     14  C   UNL     1       2.692   8.209  18.098  0.00  0.00    +0.000 A 
ATOM     15  C   UNL     1       2.996   6.904  18.496  0.00  0.00    +0.000 A 
ATOM     16  C   UNL     1       3.641   5.985  17.521  0.00  0.00    +0.000 C 
ATOM     17  O   UNL     1       3.969   6.413  16.415  0.00  0.00    +0.000 OA
BRANCH   7  19
ATOM     18  C   UNL     1       6.267   4.268  17.461  0.00  0.00    +0.000 C 
ATOM     19  C   UNL     1       4.859   3.822  17.074  0.00  0.00    +0.000 C 
ENDBRANCH   7  19
BRANCH   7  20
ATOM     20  C   UNL     1       2.337   3.926  17.403  0.00  0.00    +0.000 C 
BRANCH  20  21
ATOM     21  C   UNL     1       1.839   2.698  18.122  0.00  0.00    +0.000 C 
ATOM     22  O   UNL     1       0.852   2.657  18.835  0.00  0.00    +0.000 OA
BRANCH  21  23
ATOM     23  O   UNL     1       2.570   1.597  17.845  0.00  0.00    +0.000 OA
ATOM     24  H   UNL     1       2.051   0.825  17.552  0.00  0.00    +0.000 HD
ENDBRANCH  21  23
ENDBRANCH  20  21
ENDBRANCH   7  20
ENDBRANCH   1  12
BRANCH   4  25
ATOM     25  N   UNL     1      -2.057  11.751  23.391  0.00  0.00    +0.000 N 
ATOM     26  C   UNL     1      -3.091  12.527  22.896  0.00  0.00    +0.000 C 
ATOM     27  O   UNL     1      -3.469  12.524  21.729  0.00  0.00    +0.000 OA
ATOM     28  N   UNL     1      -3.630  13.338  23.881  0.00  0.00    +0.000 N 
ATOM     29  H   UNL     1      -2.132  11.495  24.366  0.00  0.00    +0.000 HD
ATOM     30  H   UNL     1      -2.959  13.657  24.565  0.00  0.00    +0.000 HD
BRANCH  28  31
ATOM     31  C   UNL     1      -4.705  14.208  23.596  0.00  0.00    +0.000 A 
ATOM     32  C   UNL     1      -6.034  13.785  23.685  0.00  0.00    +0.000 A 
ATOM     33  C   UNL     1      -7.076  14.655  23.357  0.00  0.00    +0.000 A 
ATOM     34  C   UNL     1      -6.796  15.955  22.925  0.00  0.00    +0.000 A 
ATOM     35  C   UNL     1      -7.904  16.896  22.555  0.00  0.00    +0.000 C 
ATOM     36  C   UNL     1      -5.462  16.373  22.836  0.00  0.00    +0.000 A 
ATOM     37  C   UNL     1      -4.421  15.512  23.194  0.00  0.00    +0.000 A 
ENDBRANCH  28  31
ENDBRANCH   4  25
TORSDOF 7
ENDMDL
