MODEL 1
REMARK VINA RESULT:      -8.2      0.000      0.000
REMARK  Name = 
REMARK  10 active torsions:
REMARK  status: ('A' for Active; 'I' for Inactive)
REMARK    1  A    between atoms: C_1  and  C_2
REMARK    2  A    between atoms: N_4  and  CA_5
REMARK    3  A    between atoms: CA_5  and  C_6
REMARK    4  A    between atoms: CA_5  and  C_28
REMARK    5  A    between atoms: C_6  and  N_7
REMARK    6  A    between atoms: C_8  and  C_10
REMARK    7  A    between atoms: N_17  and  C_18
REMARK    8  A    between atoms: C_18  and  C_19
REMARK    9  A    between atoms: C_19  and  C_20
REMARK   10  A    between atoms: C_28  and  OXT_30
REMARK                            x       y       z     vdW  Elec       q    Type
REMARK                         _______ _______ _______ _____ _____    ______ ____
ROOT
ATOM      1  C   UNL     1       3.905   5.702  18.194  0.00  0.00    +0.000 A 
ATOM      2  C   UNL     1       3.495   6.913  17.584  0.00  0.00    +0.000 A 
ATOM      3  C   UNL     1       2.692   7.542  18.514  0.00  0.00    +0.000 A 
ATOM      4  N   UNL     1       2.638   6.696  19.570  0.00  0.00    +0.000 N 
ATOM      5  N   UNL     1       3.361   5.569  19.421  0.00  0.00    +0.000 NA
ATOM      6  C   UNL     1       1.920   6.952  20.788  0.00  0.00    +0.000 C 
ATOM      7  C   UNL     1       1.104   8.244  20.748  0.00  0.00    +0.000 C 
ATOM      8  N   UNL     1       1.303   9.154  19.615  0.00  0.00    +0.000 N 
ATOM      9  C   UNL     1       2.026   8.810  18.467  0.00  0.00    +0.000 C 
ATOM     10  O   UNL     1       2.089   9.533  17.478  0.00  0.00    +0.000 OA
ENDROOT
BRANCH   1  12
ATOM     11  N   UNL     1       4.741   4.583  16.278  0.00  0.00    +0.000 N 
ATOM     12  C   UNL     1       4.822   4.692  17.649  0.00  0.00    +0.000 C 
ATOM     13  O   UNL     1       5.544   3.985  18.346  0.00  0.00    +0.000 OA
ATOM     14  H   UNL     1       4.106   5.241  15.828  0.00  0.00    +0.000 HD
BRANCH  11  15
ATOM     15  C   UNL     1       5.567   3.689  15.494  0.00  0.00    +0.000 C 
BRANCH  15  16
ATOM     16  CA  UNL     1       5.968   4.255  14.123  0.00  0.00    +0.000 C 
BRANCH  16  20
ATOM     17  C   UNL     1       6.172   1.761  11.257  0.00  0.00    +0.000 C 
ATOM     18  C   UNL     1       5.602   2.879  12.084  0.00  0.00    +0.000 C 
ATOM     19  O   UNL     1       4.558   3.451  11.793  0.00  0.00    +0.000 OA
ATOM     20  N   UNL     1       6.360   3.206  13.177  0.00  0.00    +0.000 N 
ATOM     21  H   UNL     1       7.231   2.712  13.361  0.00  0.00    +0.000 HD
ENDBRANCH  16  20
BRANCH  16  22
ATOM     22  C   UNL     1       7.188   5.165  14.289  0.00  0.00    +0.000 C 
ATOM     23  O   UNL     1       7.578   5.585  15.373  0.00  0.00    +0.000 OA
BRANCH  22  24
ATOM     24  OXT UNL     1       7.814   5.481  13.133  0.00  0.00    +0.000 OA
ATOM     25  HXT UNL     1       7.281   6.046  12.537  0.00  0.00    +0.000 HD
ENDBRANCH  22  24
ENDBRANCH  16  22
ENDBRANCH  15  16
ENDBRANCH  11  15
ENDBRANCH   1  12
BRANCH   8  26
ATOM     26  C   UNL     1       0.438  10.333  19.539  0.00  0.00    +0.000 C 
BRANCH  26  27
ATOM     27  C   UNL     1      -1.026  10.044  19.162  0.00  0.00    +0.000 C 
BRANCH  27  28
ATOM     28  C   UNL     1      -1.467  10.886  17.938  0.00  0.00    +0.000 C 
ATOM     29  C   UNL     1      -2.444  12.026  18.289  0.00  0.00    +0.000 C 
ATOM     30  C   UNL     1      -3.902  11.583  18.362  0.00  0.00    +0.000 C 
ATOM     31  N   UNL     1      -4.311  10.938  17.117  0.00  0.00    +0.000 NA
ATOM     32  C   UNL     1      -3.528   9.723  16.905  0.00  0.00    +0.000 C 
ATOM     33  C   UNL     1      -2.033  10.017  16.795  0.00  0.00    +0.000 C 
ATOM     34  H   UNL     1      -4.153  11.582  16.342  0.00  0.00    +0.000 HD
ENDBRANCH  27  28
ENDBRANCH  26  27
ENDBRANCH   8  26
TORSDOF 9
ENDMDL
MODEL 2
REMARK VINA RESULT:      -7.8      2.421      3.680
REMARK  Name = 
REMARK  10 active torsions:
REMARK  status: ('A' for Active; 'I' for Inactive)
REMARK    1  A    between atoms: C_1  and  C_2
REMARK    2  A    between atoms: N_4  and  CA_5
REMARK    3  A    between atoms: CA_5  and  C_6
REMARK    4  A    between atoms: CA_5  and  C_28
REMARK    5  A    between atoms: C_6  and  N_7
REMARK    6  A    between atoms: C_8  and  C_10
REMARK    7  A    between atoms: N_17  and  C_18
REMARK    8  A    between atoms: C_18  and  C_19
REMARK    9  A    between atoms: C_19  and  C_20
REMARK   10  A    between atoms: C_28  and  OXT_30
REMARK                            x       y       z     vdW  Elec       q    Type
REMARK                         _______ _______ _______ _____ _____    ______ ____
ROOT
ATOM      1  C   UNL     1       3.443   6.032  18.543  0.00  0.00    +0.000 A 
ATOM      2  C   UNL     1       3.135   7.213  17.824  0.00  0.00    +0.000 A 
ATOM      3  C   UNL     1       2.338   7.960  18.667  0.00  0.00    +0.000 A 
ATOM      4  N   UNL     1       2.188   7.206  19.782  0.00  0.00    +0.000 N 
ATOM      5  N   UNL     1       2.845   6.030  19.751  0.00  0.00    +0.000 NA
ATOM      6  C   UNL     1       1.441   7.601  20.943  0.00  0.00    +0.000 C 
ATOM      7  C   UNL     1       0.710   8.932  20.768  0.00  0.00    +0.000 C 
ATOM      8  N   UNL     1       1.011   9.735  19.578  0.00  0.00    +0.000 N 
ATOM      9  C   UNL     1       1.755   9.259  18.492  0.00  0.00    +0.000 C 
ATOM     10  O   UNL     1       1.902   9.895  17.455  0.00  0.00    +0.000 OA
ENDROOT
BRANCH   1  12
ATOM     11  N   UNL     1       4.660   5.004  16.787  0.00  0.00    +0.000 N 
ATOM     12  C   UNL     1       4.316   4.928  18.118  0.00  0.00    +0.000 C 
ATOM     13  O   UNL     1       4.657   4.011  18.859  0.00  0.00    +0.000 OA
ATOM     14  H   UNL     1       4.313   5.827  16.295  0.00  0.00    +0.000 HD
BRANCH  11  15
ATOM     15  C   UNL     1       5.542   4.060  16.131  0.00  0.00    +0.000 C 
BRANCH  15  16
ATOM     16  CA  UNL     1       6.909   4.648  15.751  0.00  0.00    +0.000 C 
BRANCH  16  20
ATOM     17  C   UNL     1       7.574   7.848  17.700  0.00  0.00    +0.000 C 
ATOM     18  C   UNL     1       7.513   6.368  17.442  0.00  0.00    +0.000 C 
ATOM     19  O   UNL     1       7.850   5.538  18.278  0.00  0.00    +0.000 OA
ATOM     20  N   UNL     1       7.062   6.038  16.192  0.00  0.00    +0.000 N 
ATOM     21  H   UNL     1       6.816   6.769  15.528  0.00  0.00    +0.000 HD
ENDBRANCH  16  20
BRANCH  16  22
ATOM     22  C   UNL     1       7.048   4.662  14.226  0.00  0.00    +0.000 C 
ATOM     23  O   UNL     1       6.422   3.914  13.483  0.00  0.00    +0.000 OA
BRANCH  22  24
ATOM     24  OXT UNL     1       7.928   5.571  13.751  0.00  0.00    +0.000 OA
ATOM     25  HXT UNL     1       7.825   6.463  14.141  0.00  0.00    +0.000 HD
ENDBRANCH  22  24
ENDBRANCH  16  22
ENDBRANCH  15  16
ENDBRANCH  11  15
ENDBRANCH   1  12
BRANCH   8  26
ATOM     26  C   UNL     1       0.225  10.955  19.373  0.00  0.00    +0.000 C 
BRANCH  26  27
ATOM     27  C   UNL     1       0.138  11.885  20.595  0.00  0.00    +0.000 C 
BRANCH  27  28
ATOM     28  C   UNL     1      -1.286  11.877  21.207  0.00  0.00    +0.000 C 
ATOM     29  C   UNL     1      -2.246  12.894  20.556  0.00  0.00    +0.000 C 
ATOM     30  C   UNL     1      -2.133  14.301  21.136  0.00  0.00    +0.000 C 
ATOM     31  N   UNL     1      -2.327  14.283  22.583  0.00  0.00    +0.000 NA
ATOM     32  C   UNL     1      -1.272  13.497  23.217  0.00  0.00    +0.000 C 
ATOM     33  C   UNL     1      -1.273  12.045  22.741  0.00  0.00    +0.000 C 
ATOM     34  H   UNL     1      -3.234  13.863  22.792  0.00  0.00    +0.000 HD
ENDBRANCH  27  28
ENDBRANCH  26  27
ENDBRANCH   8  26
TORSDOF 9
ENDMDL
MODEL 3
REMARK VINA RESULT:      -7.8      2.087      3.305
REMARK  Name = 
REMARK  10 active torsions:
REMARK  status: ('A' for Active; 'I' for Inactive)
REMARK    1  A    between atoms: C_1  and  C_2
REMARK    2  A    between atoms: N_4  and  CA_5
REMARK    3  A    between atoms: CA_5  and  C_6
REMARK    4  A    between atoms: CA_5  and  C_28
REMARK    5  A    between atoms: C_6  and  N_7
REMARK    6  A    between atoms: C_8  and  C_10
REMARK    7  A    between atoms: N_17  and  C_18
REMARK    8  A    between atoms: C_18  and  C_19
REMARK    9  A    between atoms: C_19  and  C_20
REMARK   10  A    between atoms: C_28  and  OXT_30
REMARK                            x       y       z     vdW  Elec       q    Type
REMARK                         _______ _______ _______ _____ _____    ______ ____
ROOT
ATOM      1  C   UNL     1       3.194   5.725  18.440  0.00  0.00    +0.000 A 
ATOM      2  C   UNL     1       2.938   6.935  17.748  0.00  0.00    +0.000 A 
ATOM      3  C   UNL     1       2.301   7.753  18.658  0.00  0.00    +0.000 A 
ATOM      4  N   UNL     1       2.183   7.012  19.786  0.00  0.00    +0.000 N 
ATOM      5  N   UNL     1       2.714   5.777  19.699  0.00  0.00    +0.000 NA
ATOM      6  C   UNL     1       1.590   7.473  21.010  0.00  0.00    +0.000 C 
ATOM      7  C   UNL     1       0.982   8.871  20.898  0.00  0.00    +0.000 C 
ATOM      8  N   UNL     1       1.248   9.647  19.682  0.00  0.00    +0.000 N 
ATOM      9  C   UNL     1       1.836   9.104  18.533  0.00  0.00    +0.000 C 
ATOM     10  O   UNL     1       1.947   9.728  17.484  0.00  0.00    +0.000 OA
ENDROOT
BRANCH   1  12
ATOM     11  N   UNL     1       4.559   4.778  16.749  0.00  0.00    +0.000 N 
ATOM     12  C   UNL     1       3.909   4.543  17.940  0.00  0.00    +0.000 C 
ATOM     13  O   UNL     1       3.885   3.451  18.499  0.00  0.00    +0.000 OA
ATOM     14  H   UNL     1       4.502   5.736  16.405  0.00  0.00    +0.000 HD
BRANCH  11  15
ATOM     15  C   UNL     1       5.367   3.788  16.067  0.00  0.00    +0.000 C 
BRANCH  15  16
ATOM     16  CA  UNL     1       6.809   4.243  15.797  0.00  0.00    +0.000 C 
BRANCH  16  20
ATOM     17  C   UNL     1       7.869   6.923  18.281  0.00  0.00    +0.000 C 
ATOM     18  C   UNL     1       7.620   5.535  17.761  0.00  0.00    +0.000 C 
ATOM     19  O   UNL     1       7.844   4.531  18.426  0.00  0.00    +0.000 OA
ATOM     20  N   UNL     1       7.138   5.498  16.481  0.00  0.00    +0.000 N 
ATOM     21  H   UNL     1       6.990   6.364  15.965  0.00  0.00    +0.000 HD
ENDBRANCH  16  20
BRANCH  16  22
ATOM     22  C   UNL     1       6.984   4.508  14.299  0.00  0.00    +0.000 C 
ATOM     23  O   UNL     1       7.613   5.459  13.849  0.00  0.00    +0.000 OA
BRANCH  22  24
ATOM     24  OXT UNL     1       6.380   3.605  13.495  0.00  0.00    +0.000 OA
ATOM     25  HXT UNL     1       5.420   3.508  13.660  0.00  0.00    +0.000 HD
ENDBRANCH  22  24
ENDBRANCH  16  22
ENDBRANCH  15  16
ENDBRANCH  11  15
ENDBRANCH   1  12
BRANCH   8  26
ATOM     26  C   UNL     1       0.571  10.939  19.546  0.00  0.00    +0.000 C 
BRANCH  26  27
ATOM     27  C   UNL     1      -0.835  11.005  20.167  0.00  0.00    +0.000 C 
BRANCH  27  28
ATOM     28  C   UNL     1      -1.752  11.975  19.379  0.00  0.00    +0.000 C 
ATOM     29  C   UNL     1      -0.984  13.081  18.626  0.00  0.00    +0.000 C 
ATOM     30  C   UNL     1      -0.648  14.291  19.493  0.00  0.00    +0.000 C 
ATOM     31  N   UNL     1      -1.854  14.844  20.103  0.00  0.00    +0.000 NA
ATOM     32  C   UNL     1      -2.455  13.859  20.998  0.00  0.00    +0.000 C 
ATOM     33  C   UNL     1      -2.863  12.586  20.259  0.00  0.00    +0.000 C 
ATOM     34  H   UNL     1      -2.518  15.083  19.367  0.00  0.00    +0.000 HD
ENDBRANCH  27  28
ENDBRANCH  26  27
ENDBRANCH   8  26
TORSDOF 9
ENDMDL
MODEL 4
REMARK VINA RESULT:      -7.7      2.740      4.170
REMARK  Name = 
REMARK  10 active torsions:
REMARK  status: ('A' for Active; 'I' for Inactive)
REMARK    1  A    between atoms: C_1  and  C_2
REMARK    2  A    between atoms: N_4  and  CA_5
REMARK    3  A    between atoms: CA_5  and  C_6
REMARK    4  A    between atoms: CA_5  and  C_28
REMARK    5  A    between atoms: C_6  and  N_7
REMARK    6  A    between atoms: C_8  and  C_10
REMARK    7  A    between atoms: N_17  and  C_18
REMARK    8  A    between atoms: C_18  and  C_19
REMARK    9  A    between atoms: C_19  and  C_20
REMARK   10  A    between atoms: C_28  and  OXT_30
REMARK                            x       y       z     vdW  Elec       q    Type
REMARK                         _______ _______ _______ _____ _____    ______ ____
ROOT
ATOM      1  C   UNL     1       3.218   5.991  18.565  0.00  0.00    +0.000 A 
ATOM      2  C   UNL     1       2.951   7.172  17.829  0.00  0.00    +0.000 A 
ATOM      3  C   UNL     1       2.247   7.991  18.688  0.00  0.00    +0.000 A 
ATOM      4  N   UNL     1       2.105   7.277  19.830  0.00  0.00    +0.000 N 
ATOM      5  N   UNL     1       2.682   6.060  19.801  0.00  0.00    +0.000 NA
ATOM      6  C   UNL     1       1.444   7.749  21.014  0.00  0.00    +0.000 C 
ATOM      7  C   UNL     1       0.793   9.121  20.837  0.00  0.00    +0.000 C 
ATOM      8  N   UNL     1       1.085   9.873  19.611  0.00  0.00    +0.000 N 
ATOM      9  C   UNL     1       1.741   9.321  18.505  0.00  0.00    +0.000 C 
ATOM     10  O   UNL     1       1.877   9.920  17.444  0.00  0.00    +0.000 OA
ENDROOT
BRANCH   1  12
ATOM     11  N   UNL     1       4.877   5.117  17.115  0.00  0.00    +0.000 N 
ATOM     12  C   UNL     1       3.994   4.823  18.130  0.00  0.00    +0.000 C 
ATOM     13  O   UNL     1       3.834   3.695  18.587  0.00  0.00    +0.000 OA
ATOM     14  H   UNL     1       4.911   6.099  16.841  0.00  0.00    +0.000 HD
BRANCH  11  15
ATOM     15  C   UNL     1       5.786   4.150  16.535  0.00  0.00    +0.000 C 
BRANCH  15  16
ATOM     16  CA  UNL     1       7.101   4.760  16.028  0.00  0.00    +0.000 C 
BRANCH  16  20
ATOM     17  C   UNL     1       7.620   8.130  17.716  0.00  0.00    +0.000 C 
ATOM     18  C   UNL     1       7.584   6.633  17.592  0.00  0.00    +0.000 C 
ATOM     19  O   UNL     1       7.870   5.886  18.520  0.00  0.00    +0.000 OA
ATOM     20  N   UNL     1       7.218   6.186  16.350  0.00  0.00    +0.000 N 
ATOM     21  H   UNL     1       7.011   6.851  15.608  0.00  0.00    +0.000 HD
ENDBRANCH  16  20
BRANCH  16  22
ATOM     22  C   UNL     1       7.152   4.656  14.502  0.00  0.00    +0.000 C 
ATOM     23  O   UNL     1       7.758   5.448  13.789  0.00  0.00    +0.000 OA
BRANCH  22  24
ATOM     24  OXT UNL     1       6.463   3.613  13.987  0.00  0.00    +0.000 OA
ATOM     25  HXT UNL     1       5.720   3.313  14.550  0.00  0.00    +0.000 HD
ENDBRANCH  22  24
ENDBRANCH  16  22
ENDBRANCH  15  16
ENDBRANCH  11  15
ENDBRANCH   1  12
BRANCH   8  26
ATOM     26  C   UNL     1       0.371  11.136  19.411  0.00  0.00    +0.000 C 
BRANCH  26  27
ATOM     27  C   UNL     1       1.185  12.402  19.730  0.00  0.00    +0.000 C 
BRANCH  27  28
ATOM     28  C   UNL     1       1.181  13.389  18.534  0.00  0.00    +0.000 C 
ATOM     29  C   UNL     1       2.588  13.855  18.110  0.00  0.00    +0.000 C 
ATOM     30  C   UNL     1       3.115  15.031  18.927  0.00  0.00    +0.000 C 
ATOM     31  N   UNL     1       2.180  16.153  18.884  0.00  0.00    +0.000 NA
ATOM     32  C   UNL     1       0.912  15.768  19.500  0.00  0.00    +0.000 C 
ATOM     33  C   UNL     1       0.253  14.599  18.770  0.00  0.00    +0.000 C 
ATOM     34  H   UNL     1       2.019  16.414  17.911  0.00  0.00    +0.000 HD
ENDBRANCH  27  28
ENDBRANCH  26  27
ENDBRANCH   8  26
TORSDOF 9
ENDMDL
MODEL 5
REMARK VINA RESULT:      -7.7      0.991      1.509
REMARK  Name = 
REMARK  10 active torsions:
REMARK  status: ('A' for Active; 'I' for Inactive)
REMARK    1  A    between atoms: C_1  and  C_2
REMARK    2  A    between atoms: N_4  and  CA_5
REMARK    3  A    between atoms: CA_5  and  C_6
REMARK    4  A    between atoms: CA_5  and  C_28
REMARK    5  A    between atoms: C_6  and  N_7
REMARK    6  A    between atoms: C_8  and  C_10
REMARK    7  A    between atoms: N_17  and  C_18
REMARK    8  A    between atoms: C_18  and  C_19
REMARK    9  A    between atoms: C_19  and  C_20
REMARK   10  A    between atoms: C_28  and  OXT_30
REMARK                            x       y       z     vdW  Elec       q    Type
REMARK                         _______ _______ _______ _____ _____    ______ ____
ROOT
ATOM      1  C   UNL     1       3.450   5.472  18.091  0.00  0.00    +0.000 A 
ATOM      2  C   UNL     1       3.192   6.734  17.500  0.00  0.00    +0.000 A 
ATOM      3  C   UNL     1       2.528   7.464  18.464  0.00  0.00    +0.000 A 
ATOM      4  N   UNL     1       2.398   6.628  19.521  0.00  0.00    +0.000 N 
ATOM      5  N   UNL     1       2.946   5.411  19.340  0.00  0.00    +0.000 NA
ATOM      6  C   UNL     1       1.777   6.976  20.769  0.00  0.00    +0.000 C 
ATOM      7  C   UNL     1       1.154   8.372  20.764  0.00  0.00    +0.000 C 
ATOM      8  N   UNL     1       1.432   9.252  19.624  0.00  0.00    +0.000 N 
ATOM      9  C   UNL     1       2.048   8.815  18.446  0.00  0.00    +0.000 C 
ATOM     10  O   UNL     1       2.172   9.528  17.456  0.00  0.00    +0.000 OA
ENDROOT
BRANCH   1  12
ATOM     11  N   UNL     1       4.729   4.643  16.275  0.00  0.00    +0.000 N 
ATOM     12  C   UNL     1       4.189   4.345  17.506  0.00  0.00    +0.000 C 
ATOM     13  O   UNL     1       4.271   3.241  18.036  0.00  0.00    +0.000 OA
ATOM     14  H   UNL     1       4.591   5.604  15.962  0.00  0.00    +0.000 HD
BRANCH  11  15
ATOM     15  C   UNL     1       5.536   3.718  15.506  0.00  0.00    +0.000 C 
BRANCH  15  16
ATOM     16  CA  UNL     1       5.976   4.264  14.140  0.00  0.00    +0.000 C 
BRANCH  16  20
ATOM     17  C   UNL     1       6.202   1.738  11.303  0.00  0.00    +0.000 C 
ATOM     18  C   UNL     1       5.633   2.874  12.106  0.00  0.00    +0.000 C 
ATOM     19  O   UNL     1       4.606   3.459  11.786  0.00  0.00    +0.000 OA
ATOM     20  N   UNL     1       6.372   3.199  13.213  0.00  0.00    +0.000 N 
ATOM     21  H   UNL     1       7.230   2.693  13.421  0.00  0.00    +0.000 HD
ENDBRANCH  16  20
BRANCH  16  22
ATOM     22  C   UNL     1       7.207   5.155  14.324  0.00  0.00    +0.000 C 
ATOM     23  O   UNL     1       7.585   5.572  15.413  0.00  0.00    +0.000 OA
BRANCH  22  24
ATOM     24  OXT UNL     1       7.857   5.459  13.178  0.00  0.00    +0.000 OA
ATOM     25  HXT UNL     1       8.610   4.865  12.981  0.00  0.00    +0.000 HD
ENDBRANCH  22  24
ENDBRANCH  16  22
ENDBRANCH  15  16
ENDBRANCH  11  15
ENDBRANCH   1  12
BRANCH   8  26
ATOM     26  C   UNL     1       0.742  10.543  19.586  0.00  0.00    +0.000 C 
BRANCH  26  27
ATOM     27  C   UNL     1      -0.421  10.689  20.583  0.00  0.00    +0.000 C 
BRANCH  27  28
ATOM     28  C   UNL     1      -1.596  11.486  19.962  0.00  0.00    +0.000 C 
ATOM     29  C   UNL     1      -2.270  10.772  18.772  0.00  0.00    +0.000 C 
ATOM     30  C   UNL     1      -1.563  11.005  17.440  0.00  0.00    +0.000 C 
ATOM     31  N   UNL     1      -1.437  12.433  17.162  0.00  0.00    +0.000 NA
ATOM     32  C   UNL     1      -0.601  13.066  18.180  0.00  0.00    +0.000 C 
ATOM     33  C   UNL     1      -1.198  12.927  19.579  0.00  0.00    +0.000 C 
ATOM     34  H   UNL     1      -2.364  12.858  17.174  0.00  0.00    +0.000 HD
ENDBRANCH  27  28
ENDBRANCH  26  27
ENDBRANCH   8  26
TORSDOF 9
ENDMDL
MODEL 6
REMARK VINA RESULT:      -7.7      3.602      5.247
REMARK  Name = 
REMARK  10 active torsions:
REMARK  status: ('A' for Active; 'I' for Inactive)
REMARK    1  A    between atoms: C_1  and  C_2
REMARK    2  A    between atoms: N_4  and  CA_5
REMARK    3  A    between atoms: CA_5  and  C_6
REMARK    4  A    between atoms: CA_5  and  C_28
REMARK    5  A    between atoms: C_6  and  N_7
REMARK    6  A    between atoms: C_8  and  C_10
REMARK    7  A    between atoms: N_17  and  C_18
REMARK    8  A    between atoms: C_18  and  C_19
REMARK    9  A    between atoms: C_19  and  C_20
REMARK   10  A    between atoms: C_28  and  OXT_30
REMARK                            x       y       z     vdW  Elec       q    Type
REMARK                         _______ _______ _______ _____ _____    ______ ____
ROOT
ATOM      1  C   UNL     1       1.680   7.879  20.188  0.00  0.00    +0.000 A 
ATOM      2  C   UNL     1       1.186   8.326  21.438  0.00  0.00    +0.000 A 
ATOM      3  C   UNL     1       0.707   9.600  21.212  0.00  0.00    +0.000 A 
ATOM      4  N   UNL     1       0.959   9.851  19.905  0.00  0.00    +0.000 N 
ATOM      5  N   UNL     1       1.545   8.833  19.245  0.00  0.00    +0.000 NA
ATOM      6  C   UNL     1       0.611  11.067  19.223  0.00  0.00    +0.000 C 
ATOM      7  C   UNL     1       0.018  12.130  20.148  0.00  0.00    +0.000 C 
ATOM      8  N   UNL     1      -0.322  11.742  21.521  0.00  0.00    +0.000 N 
ATOM      9  C   UNL     1       0.064  10.527  22.098  0.00  0.00    +0.000 C 
ATOM     10  O   UNL     1      -0.124  10.261  23.280  0.00  0.00    +0.000 OA
ENDROOT
BRANCH   1  12
ATOM     11  N   UNL     1       2.925   6.548  18.672  0.00  0.00    +0.000 N 
ATOM     12  C   UNL     1       2.243   6.560  19.868  0.00  0.00    +0.000 C 
ATOM     13  O   UNL     1       2.077   5.565  20.567  0.00  0.00    +0.000 OA
ATOM     14  H   UNL     1       2.992   7.450  18.202  0.00  0.00    +0.000 HD
BRANCH  11  15
ATOM     15  C   UNL     1       3.607   5.382  18.148  0.00  0.00    +0.000 C 
BRANCH  15  16
ATOM     16  CA  UNL     1       5.115   5.584  17.943  0.00  0.00    +0.000 C 
BRANCH  16  20
ATOM     17  C   UNL     1       7.001   4.792  14.735  0.00  0.00    +0.000 C 
ATOM     18  C   UNL     1       6.707   5.487  16.034  0.00  0.00    +0.000 C 
ATOM     19  O   UNL     1       7.416   6.380  16.481  0.00  0.00    +0.000 OA
ATOM     20  N   UNL     1       5.588   5.024  16.673  0.00  0.00    +0.000 N 
ATOM     21  H   UNL     1       5.045   4.264  16.267  0.00  0.00    +0.000 HD
ENDBRANCH  16  20
BRANCH  16  22
ATOM     22  C   UNL     1       5.879   4.851  19.049  0.00  0.00    +0.000 C 
ATOM     23  O   UNL     1       6.691   5.397  19.788  0.00  0.00    +0.000 OA
BRANCH  22  24
ATOM     24  OXT UNL     1       5.593   3.533  19.150  0.00  0.00    +0.000 OA
ATOM     25  HXT UNL     1       6.312   2.947  18.836  0.00  0.00    +0.000 HD
ENDBRANCH  22  24
ENDBRANCH  16  22
ENDBRANCH  15  16
ENDBRANCH  11  15
ENDBRANCH   1  12
BRANCH   8  26
ATOM     26  C   UNL     1      -0.788  12.798  22.423  0.00  0.00    +0.000 C 
BRANCH  26  27
ATOM     27  C   UNL     1      -2.310  13.030  22.421  0.00  0.00    +0.000 C 
BRANCH  27  28
ATOM     28  C   UNL     1      -2.823  13.399  23.837  0.00  0.00    +0.000 C 
ATOM     29  C   UNL     1      -3.999  12.524  24.317  0.00  0.00    +0.000 C 
ATOM     30  C   UNL     1      -5.361  13.006  23.826  0.00  0.00    +0.000 C 
ATOM     31  N   UNL     1      -5.585  14.399  24.203  0.00  0.00    +0.000 NA
ATOM     32  C   UNL     1      -4.594  15.256  23.555  0.00  0.00    +0.000 C 
ATOM     33  C   UNL     1      -3.168  14.896  23.970  0.00  0.00    +0.000 C 
ATOM     34  H   UNL     1      -5.498  14.488  25.216  0.00  0.00    +0.000 HD
ENDBRANCH  27  28
ENDBRANCH  26  27
ENDBRANCH   8  26
TORSDOF 9
ENDMDL
MODEL 7
REMARK VINA RESULT:      -7.7      1.821      2.399
REMARK  Name = 
REMARK  10 active torsions:
REMARK  status: ('A' for Active; 'I' for Inactive)
REMARK    1  A    between atoms: C_1  and  C_2
REMARK    2  A    between atoms: N_4  and  CA_5
REMARK    3  A    between atoms: CA_5  and  C_6
REMARK    4  A    between atoms: CA_5  and  C_28
REMARK    5  A    between atoms: C_6  and  N_7
REMARK    6  A    between atoms: C_8  and  C_10
REMARK    7  A    between atoms: N_17  and  C_18
REMARK    8  A    between atoms: C_18  and  C_19
REMARK    9  A    between atoms: C_19  and  C_20
REMARK   10  A    between atoms: C_28  and  OXT_30
REMARK                            x       y       z     vdW  Elec       q    Type
REMARK                         _______ _______ _______ _____ _____    ______ ____
ROOT
ATOM      1  C   UNL     1       4.110   5.793  18.117  0.00  0.00    +0.000 A 
ATOM      2  C   UNL     1       3.636   7.000  17.546  0.00  0.00    +0.000 A 
ATOM      3  C   UNL     1       2.772   7.535  18.480  0.00  0.00    +0.000 A 
ATOM      4  N   UNL     1       2.749   6.643  19.499  0.00  0.00    +0.000 N 
ATOM      5  N   UNL     1       3.548   5.574  19.323  0.00  0.00    +0.000 NA
ATOM      6  C   UNL     1       1.987   6.801  20.707  0.00  0.00    +0.000 C 
ATOM      7  C   UNL     1       1.089   8.038  20.699  0.00  0.00    +0.000 C 
ATOM      8  N   UNL     1       1.254   9.006  19.609  0.00  0.00    +0.000 N 
ATOM      9  C   UNL     1       2.024   8.758  18.467  0.00  0.00    +0.000 C 
ATOM     10  O   UNL     1       2.063   9.525  17.511  0.00  0.00    +0.000 OA
ENDROOT
BRANCH   1  12
ATOM     11  N   UNL     1       4.806   4.484  16.267  0.00  0.00    +0.000 N 
ATOM     12  C   UNL     1       5.104   4.869  17.555  0.00  0.00    +0.000 C 
ATOM     13  O   UNL     1       6.068   4.444  18.186  0.00  0.00    +0.000 OA
ATOM     14  H   UNL     1       3.979   4.924  15.863  0.00  0.00    +0.000 HD
BRANCH  11  15
ATOM     15  C   UNL     1       5.646   3.609  15.475  0.00  0.00    +0.000 C 
BRANCH  15  16
ATOM     16  CA  UNL     1       6.023   4.185  14.102  0.00  0.00    +0.000 C 
BRANCH  16  20
ATOM     17  C   UNL     1       6.151   1.724  11.203  0.00  0.00    +0.000 C 
ATOM     18  C   UNL     1       5.610   2.841  12.051  0.00  0.00    +0.000 C 
ATOM     19  O   UNL     1       4.572   3.432  11.780  0.00  0.00    +0.000 OA
ATOM     20  N   UNL     1       6.386   3.142  13.138  0.00  0.00    +0.000 N 
ATOM     21  H   UNL     1       7.252   2.633  13.304  0.00  0.00    +0.000 HD
ENDBRANCH  16  20
BRANCH  16  22
ATOM     22  C   UNL     1       7.254   5.084  14.250  0.00  0.00    +0.000 C 
ATOM     23  O   UNL     1       7.674   5.485  15.330  0.00  0.00    +0.000 OA
BRANCH  22  24
ATOM     24  OXT UNL     1       7.853   5.412  13.084  0.00  0.00    +0.000 OA
ATOM     25  HXT UNL     1       7.267   5.335  12.303  0.00  0.00    +0.000 HD
ENDBRANCH  22  24
ENDBRANCH  16  22
ENDBRANCH  15  16
ENDBRANCH  11  15
ENDBRANCH   1  12
BRANCH   8  26
ATOM     26  C   UNL     1       0.315  10.129  19.559  0.00  0.00    +0.000 C 
BRANCH  26  27
ATOM     27  C   UNL     1       0.368  11.077  20.770  0.00  0.00    +0.000 C 
BRANCH  27  28
ATOM     28  C   UNL     1      -1.056  11.450  21.254  0.00  0.00    +0.000 C 
ATOM     29  C   UNL     1      -1.829  12.352  20.271  0.00  0.00    +0.000 C 
ATOM     30  C   UNL     1      -1.514  13.837  20.427  0.00  0.00    +0.000 C 
ATOM     31  N   UNL     1      -1.748  14.276  21.800  0.00  0.00    +0.000 NA
ATOM     32  C   UNL     1      -0.845  13.573  22.708  0.00  0.00    +0.000 C 
ATOM     33  C   UNL     1      -1.058  12.061  22.671  0.00  0.00    +0.000 C 
ATOM     34  H   UNL     1      -2.714  14.068  22.055  0.00  0.00    +0.000 HD
ENDBRANCH  27  28
ENDBRANCH  26  27
ENDBRANCH   8  26
TORSDOF 9
ENDMDL
MODEL 8
REMARK VINA RESULT:      -7.7      2.381      3.633
REMARK  Name = 
REMARK  10 active torsions:
REMARK  status: ('A' for Active; 'I' for Inactive)
REMARK    1  A    between atoms: C_1  and  C_2
REMARK    2  A    between atoms: N_4  and  CA_5
REMARK    3  A    between atoms: CA_5  and  C_6
REMARK    4  A    between atoms: CA_5  and  C_28
REMARK    5  A    between atoms: C_6  and  N_7
REMARK    6  A    between atoms: C_8  and  C_10
REMARK    7  A    between atoms: N_17  and  C_18
REMARK    8  A    between atoms: C_18  and  C_19
REMARK    9  A    between atoms: C_19  and  C_20
REMARK   10  A    between atoms: C_28  and  OXT_30
REMARK                            x       y       z     vdW  Elec       q    Type
REMARK                         _______ _______ _______ _____ _____    ______ ____
ROOT
ATOM      1  C   UNL     1       3.104   6.281  18.607  0.00  0.00    +0.000 A 
ATOM      2  C   UNL     1       2.871   7.451  17.843  0.00  0.00    +0.000 A 
ATOM      3  C   UNL     1       2.155   8.294  18.668  0.00  0.00    +0.000 A 
ATOM      4  N   UNL     1       1.975   7.603  19.818  0.00  0.00    +0.000 N 
ATOM      5  N   UNL     1       2.537   6.378  19.826  0.00  0.00    +0.000 NA
ATOM      6  C   UNL     1       1.289   8.104  20.977  0.00  0.00    +0.000 C 
ATOM      7  C   UNL     1       0.660   9.480  20.757  0.00  0.00    +0.000 C 
ATOM      8  N   UNL     1       0.993  10.206  19.526  0.00  0.00    +0.000 N 
ATOM      9  C   UNL     1       1.670   9.626  18.448  0.00  0.00    +0.000 C 
ATOM     10  O   UNL     1       1.841  10.204  17.380  0.00  0.00    +0.000 OA
ENDROOT
BRANCH   1  12
ATOM     11  N   UNL     1       4.390   5.193  16.939  0.00  0.00    +0.000 N 
ATOM     12  C   UNL     1       3.877   5.096  18.213  0.00  0.00    +0.000 C 
ATOM     13  O   UNL     1       4.006   4.104  18.925  0.00  0.00    +0.000 OA
ATOM     14  H   UNL     1       4.213   6.079  16.467  0.00  0.00    +0.000 HD
BRANCH  11  15
ATOM     15  C   UNL     1       5.222   4.176  16.329  0.00  0.00    +0.000 C 
BRANCH  15  16
ATOM     16  CA  UNL     1       6.637   4.659  15.976  0.00  0.00    +0.000 C 
BRANCH  16  20
ATOM     17  C   UNL     1       7.503   7.995  17.587  0.00  0.00    +0.000 C 
ATOM     18  C   UNL     1       7.414   6.501  17.456  0.00  0.00    +0.000 C 
ATOM     19  O   UNL     1       7.832   5.736  18.316  0.00  0.00    +0.000 OA
ATOM     20  N   UNL     1       6.837   6.078  16.288  0.00  0.00    +0.000 N 
ATOM     21  H   UNL     1       6.526   6.757  15.596  0.00  0.00    +0.000 HD
ENDBRANCH  16  20
BRANCH  16  22
ATOM     22  C   UNL     1       6.861   4.512  14.469  0.00  0.00    +0.000 C 
ATOM     23  O   UNL     1       7.467   5.334  13.791  0.00  0.00    +0.000 OA
BRANCH  22  24
ATOM     24  OXT UNL     1       6.329   3.392  13.929  0.00  0.00    +0.000 OA
ATOM     25  HXT UNL     1       6.393   2.605  14.508  0.00  0.00    +0.000 HD
ENDBRANCH  22  24
ENDBRANCH  16  22
ENDBRANCH  15  16
ENDBRANCH  11  15
ENDBRANCH   1  12
BRANCH   8  26
ATOM     26  C   UNL     1       0.300  11.473  19.284  0.00  0.00    +0.000 C 
BRANCH  26  27
ATOM     27  C   UNL     1      -1.199  11.472  19.632  0.00  0.00    +0.000 C 
BRANCH  27  28
ATOM     28  C   UNL     1      -1.662  12.865  20.129  0.00  0.00    +0.000 C 
ATOM     29  C   UNL     1      -0.657  13.551  21.076  0.00  0.00    +0.000 C 
ATOM     30  C   UNL     1      -0.794  13.117  22.532  0.00  0.00    +0.000 C 
ATOM     31  N   UNL     1      -2.158  13.328  23.010  0.00  0.00    +0.000 NA
ATOM     32  C   UNL     1      -3.087  12.495  22.249  0.00  0.00    +0.000 C 
ATOM     33  C   UNL     1      -3.070  12.832  20.759  0.00  0.00    +0.000 C 
ATOM     34  H   UNL     1      -2.406  14.310  22.887  0.00  0.00    +0.000 HD
ENDBRANCH  27  28
ENDBRANCH  26  27
ENDBRANCH   8  26
TORSDOF 9
ENDMDL
MODEL 9
REMARK VINA RESULT:      -7.7      1.270      1.603
REMARK  Name = 
REMARK  10 active torsions:
REMARK  status: ('A' for Active; 'I' for Inactive)
REMARK    1  A    between atoms: C_1  and  C_2
REMARK    2  A    between atoms: N_4  and  CA_5
REMARK    3  A    between atoms: CA_5  and  C_6
REMARK    4  A    between atoms: CA_5  and  C_28
REMARK    5  A    between atoms: C_6  and  N_7
REMARK    6  A    between atoms: C_8  and  C_10
REMARK    7  A    between atoms: N_17  and  C_18
REMARK    8  A    between atoms: C_18  and  C_19
REMARK    9  A    between atoms: C_19  and  C_20
REMARK   10  A    between atoms: C_28  and  OXT_30
REMARK                            x       y       z     vdW  Elec       q    Type
REMARK                         _______ _______ _______ _____ _____    ______ ____
ROOT
ATOM      1  C   UNL     1       3.987   5.825  18.165  0.00  0.00    +0.000 A 
ATOM      2  C   UNL     1       3.518   7.007  17.541  0.00  0.00    +0.000 A 
ATOM      3  C   UNL     1       2.674   7.599  18.458  0.00  0.00    +0.000 A 
ATOM      4  N   UNL     1       2.655   6.761  19.522  0.00  0.00    +0.000 N 
ATOM      5  N   UNL     1       3.440   5.674  19.388  0.00  0.00    +0.000 NA
ATOM      6  C   UNL     1       1.914   6.989  20.731  0.00  0.00    +0.000 C 
ATOM      7  C   UNL     1       1.030   8.235  20.672  0.00  0.00    +0.000 C 
ATOM      8  N   UNL     1       1.190   9.144  19.532  0.00  0.00    +0.000 N 
ATOM      9  C   UNL     1       1.940   8.830  18.393  0.00  0.00    +0.000 C 
ATOM     10  O   UNL     1       1.973   9.546  17.398  0.00  0.00    +0.000 OA
ENDROOT
BRANCH   1  12
ATOM     11  N   UNL     1       4.776   4.594  16.299  0.00  0.00    +0.000 N 
ATOM     12  C   UNL     1       4.961   4.861  17.637  0.00  0.00    +0.000 C 
ATOM     13  O   UNL     1       5.815   4.313  18.328  0.00  0.00    +0.000 OA
ATOM     14  H   UNL     1       4.035   5.130  15.848  0.00  0.00    +0.000 HD
BRANCH  11  15
ATOM     15  C   UNL     1       5.628   3.709  15.531  0.00  0.00    +0.000 C 
BRANCH  15  16
ATOM     16  CA  UNL     1       6.007   4.258  14.147  0.00  0.00    +0.000 C 
BRANCH  16  20
ATOM     17  C   UNL     1       6.169   1.738  11.300  0.00  0.00    +0.000 C 
ATOM     18  C   UNL     1       5.617   2.871  12.120  0.00  0.00    +0.000 C 
ATOM     19  O   UNL     1       4.580   3.454  11.827  0.00  0.00    +0.000 OA
ATOM     20  N   UNL     1       6.382   3.195  13.208  0.00  0.00    +0.000 N 
ATOM     21  H   UNL     1       7.247   2.692  13.393  0.00  0.00    +0.000 HD
ENDBRANCH  16  20
BRANCH  16  22
ATOM     22  C   UNL     1       7.231   5.168  14.281  0.00  0.00    +0.000 C 
ATOM     23  O   UNL     1       7.637   5.602  15.353  0.00  0.00    +0.000 OA
BRANCH  22  24
ATOM     24  OXT UNL     1       7.839   5.466  13.111  0.00  0.00    +0.000 OA
ATOM     25  HXT UNL     1       8.403   6.266  13.152  0.00  0.00    +0.000 HD
ENDBRANCH  22  24
ENDBRANCH  16  22
ENDBRANCH  15  16
ENDBRANCH  11  15
ENDBRANCH   1  12
BRANCH   8  26
ATOM     26  C   UNL     1       0.264  10.275  19.437  0.00  0.00    +0.000 C 
BRANCH  26  27
ATOM     27  C   UNL     1       0.148  11.130  20.711  0.00  0.00    +0.000 C 
BRANCH  27  28
ATOM     28  C   UNL     1      -0.414  12.539  20.393  0.00  0.00    +0.000 C 
ATOM     29  C   UNL     1      -1.337  13.101  21.493  0.00  0.00    +0.000 C 
ATOM     30  C   UNL     1      -2.783  12.628  21.380  0.00  0.00    +0.000 C 
ATOM     31  N   UNL     1      -3.328  12.937  20.061  0.00  0.00    +0.000 NA
ATOM     32  C   UNL     1      -2.583  12.215  19.032  0.00  0.00    +0.000 C 
ATOM     33  C   UNL     1      -1.106  12.603  19.016  0.00  0.00    +0.000 C 
ATOM     34  H   UNL     1      -3.248  13.941  19.895  0.00  0.00    +0.000 HD
ENDBRANCH  27  28
ENDBRANCH  26  27
ENDBRANCH   8  26
TORSDOF 9
ENDMDL
