MODEL 1
REMARK VINA RESULT:      -7.9      0.000      0.000
REMARK  Name = 
REMARK  6 active torsions:
REMARK  status: ('A' for Active; 'I' for Inactive)
REMARK    1  A    between atoms: C_1  and  C_2
REMARK    2  A    between atoms: C_2  and  N_3
REMARK    3  A    between atoms: C_6  and  C_7
REMARK    4  A    between atoms: C_10  and  C_11
REMARK    5  A    between atoms: N_20  and  C_21
REMARK    6  A    between atoms: C_29  and  C_30
REMARK                            x       y       z     vdW  Elec       q    Type
REMARK                         _______ _______ _______ _____ _____    ______ ____
ROOT
ATOM      1  N   UNL     1       1.088  13.036  19.510  0.00  0.00    +0.000 N 
ATOM      2  C   UNL     1       1.424  13.007  20.859  0.00  0.00    +0.000 C 
ATOM      3  O   UNL     1       2.287  13.756  21.329  0.00  0.00    +0.000 OA
ATOM      4  C   UNL     1       0.671  12.058  21.772  0.00  0.00    +0.000 C 
ATOM      5  C   UNL     1       1.135  10.664  21.466  0.00  0.00    +0.000 C 
ATOM      6  O   UNL     1       1.807  10.084  22.328  0.00  0.00    +0.000 OA
ATOM      7  N   UNL     1       0.826  10.109  20.213  0.00  0.00    +0.000 N 
ATOM      8  C   UNL     1      -0.005  10.793  19.258  0.00  0.00    +0.000 A 
ATOM      9  C   UNL     1      -1.064  10.054  18.680  0.00  0.00    +0.000 A 
ATOM     10  C   UNL     1      -2.016  10.645  17.838  0.00  0.00    +0.000 A 
ATOM     11  C   UNL     1      -1.851  11.982  17.479  0.00  0.00    +0.000 A 
ATOM     12  C   UNL     1      -0.790  12.724  18.003  0.00  0.00    +0.000 A 
ATOM     13  C   UNL     1       0.112  12.167  18.932  0.00  0.00    +0.000 A 
ENDROOT
BRANCH   4  14
ATOM     14  C   UNL     1      -0.831  12.322  21.946  0.00  0.00    +0.000 A 
ATOM     15  C   UNL     1      -1.650  11.580  22.814  0.00  0.00    +0.000 A 
ATOM     16  C   UNL     1      -3.019  11.877  22.946  0.00  0.00    +0.000 A 
ATOM     17  C   UNL     1      -3.595  12.923  22.217  0.00  0.00    +0.000 A 
ATOM     18  C   UNL     1      -2.763  13.710  21.414  0.00  0.00    +0.000 A 
ATOM     19  C   UNL     1      -1.405  13.423  21.290  0.00  0.00    +0.000 A 
BRANCH  17  20
ATOM     20  C   UNL     1      -5.021  13.183  22.235  0.00  0.00    +0.000 A 
ATOM     21  C   UNL     1      -5.856  14.240  22.518  0.00  0.00    +0.000 A 
ATOM     22  N   UNL     1      -7.171  13.853  22.393  0.00  0.00    +0.000 NA
ATOM     23  C   UNL     1      -7.084  12.589  22.046  0.00  0.00    +0.000 A 
ATOM     24  O   UNL     1      -5.818  12.111  21.915  0.00  0.00    +0.000 OA
ENDBRANCH  17  20
ENDBRANCH   4  14
BRANCH   7  25
ATOM     25  C   UNL     1       1.273   8.770  19.880  0.00  0.00    +0.000 A 
ATOM     26  C   UNL     1       1.109   7.702  20.779  0.00  0.00    +0.000 A 
ATOM     27  C   UNL     1       1.627   6.430  20.515  0.00  0.00    +0.000 A 
ATOM     28  C   UNL     1       2.313   6.190  19.332  0.00  0.00    +0.000 A 
ATOM     29  C   UNL     1       2.460   7.216  18.405  0.00  0.00    +0.000 A 
ATOM     30  C   UNL     1       1.948   8.495  18.674  0.00  0.00    +0.000 A 
ENDBRANCH   7  25
BRANCH  10  31
ATOM     31  C   UNL     1      -3.240   9.881  17.396  0.00  0.00    +0.000 C 
ATOM     32  F   UNL     1      -4.360  10.650  17.313  0.00  0.00    +0.000 F 
ATOM     33  F   UNL     1      -3.079   9.328  16.161  0.00  0.00    +0.000 F 
ATOM     34  F   UNL     1      -3.550   8.853  18.231  0.00  0.00    +0.000 F 
ENDBRANCH  10  31
BRANCH   1  36
ATOM     35  C   UNL     1       3.065  13.475  18.013  0.00  0.00    +0.000 C 
ATOM     36  C   UNL     1       1.785  14.004  18.651  0.00  0.00    +0.000 C 
ENDBRANCH   1  36
TORSDOF 5
ENDMDL
MODEL 2
REMARK VINA RESULT:      -7.5      0.149      1.027
REMARK  Name = 
REMARK  6 active torsions:
REMARK  status: ('A' for Active; 'I' for Inactive)
REMARK    1  A    between atoms: C_1  and  C_2
REMARK    2  A    between atoms: C_2  and  N_3
REMARK    3  A    between atoms: C_6  and  C_7
REMARK    4  A    between atoms: C_10  and  C_11
REMARK    5  A    between atoms: N_20  and  C_21
REMARK    6  A    between atoms: C_29  and  C_30
REMARK                            x       y       z     vdW  Elec       q    Type
REMARK                         _______ _______ _______ _____ _____    ______ ____
ROOT
ATOM      1  N   UNL     1       1.057  13.078  19.565  0.00  0.00    +0.000 N 
ATOM      2  C   UNL     1       1.389  13.043  20.915  0.00  0.00    +0.000 C 
ATOM      3  O   UNL     1       2.229  13.809  21.397  0.00  0.00    +0.000 OA
ATOM      4  C   UNL     1       0.657  12.064  21.814  0.00  0.00    +0.000 C 
ATOM      5  C   UNL     1       1.160  10.687  21.495  0.00  0.00    +0.000 C 
ATOM      6  O   UNL     1       1.843  10.115  22.353  0.00  0.00    +0.000 OA
ATOM      7  N   UNL     1       0.870  10.138  20.234  0.00  0.00    +0.000 N 
ATOM      8  C   UNL     1       0.025  10.810  19.283  0.00  0.00    +0.000 A 
ATOM      9  C   UNL     1      -1.012  10.050  18.693  0.00  0.00    +0.000 A 
ATOM     10  C   UNL     1      -1.976  10.625  17.853  0.00  0.00    +0.000 A 
ATOM     11  C   UNL     1      -1.845  11.970  17.510  0.00  0.00    +0.000 A 
ATOM     12  C   UNL     1      -0.806  12.734  18.047  0.00  0.00    +0.000 A 
ATOM     13  C   UNL     1       0.107  12.190  18.973  0.00  0.00    +0.000 A 
ENDROOT
BRANCH   4  14
ATOM     14  C   UNL     1      -0.852  12.286  21.985  0.00  0.00    +0.000 A 
ATOM     15  C   UNL     1      -1.638  11.574  22.907  0.00  0.00    +0.000 A 
ATOM     16  C   UNL     1      -3.015  11.831  23.032  0.00  0.00    +0.000 A 
ATOM     17  C   UNL     1      -3.633  12.807  22.242  0.00  0.00    +0.000 A 
ATOM     18  C   UNL     1      -2.836  13.568  21.382  0.00  0.00    +0.000 A 
ATOM     19  C   UNL     1      -1.469  13.321  21.264  0.00  0.00    +0.000 A 
BRANCH  17  20
ATOM     20  C   UNL     1      -5.068  13.016  22.256  0.00  0.00    +0.000 A 
ATOM     21  C   UNL     1      -5.952  13.941  22.764  0.00  0.00    +0.000 A 
ATOM     22  N   UNL     1      -7.246  13.567  22.478  0.00  0.00    +0.000 NA
ATOM     23  C   UNL     1      -7.098  12.442  21.817  0.00  0.00    +0.000 A 
ATOM     24  O   UNL     1      -5.811  12.047  21.629  0.00  0.00    +0.000 OA
ENDBRANCH  17  20
ENDBRANCH   4  14
BRANCH   7  25
ATOM     25  C   UNL     1       1.354   8.815  19.888  0.00  0.00    +0.000 A 
ATOM     26  C   UNL     1       1.948   8.558  18.640  0.00  0.00    +0.000 A 
ATOM     27  C   UNL     1       2.323   7.268  18.253  0.00  0.00    +0.000 A 
ATOM     28  C   UNL     1       2.126   6.198  19.116  0.00  0.00    +0.000 A 
ATOM     29  C   UNL     1       1.574   6.424  20.373  0.00  0.00    +0.000 A 
ATOM     30  C   UNL     1       1.190   7.718  20.757  0.00  0.00    +0.000 A 
ENDBRANCH   7  25
BRANCH  10  31
ATOM     31  C   UNL     1      -3.178   9.833  17.397  0.00  0.00    +0.000 C 
ATOM     32  F   UNL     1      -3.021   9.267  16.169  0.00  0.00    +0.000 F 
ATOM     33  F   UNL     1      -3.463   8.805  18.245  0.00  0.00    +0.000 F 
ATOM     34  F   UNL     1      -4.308  10.587  17.325  0.00  0.00    +0.000 F 
ENDBRANCH  10  31
BRANCH   1  36
ATOM     35  C   UNL     1       3.001  13.570  18.041  0.00  0.00    +0.000 C 
ATOM     36  C   UNL     1       1.732  14.074  18.720  0.00  0.00    +0.000 C 
ENDBRANCH   1  36
TORSDOF 5
ENDMDL
MODEL 3
REMARK VINA RESULT:      -7.5      3.044      5.656
REMARK  Name = 
REMARK  6 active torsions:
REMARK  status: ('A' for Active; 'I' for Inactive)
REMARK    1  A    between atoms: C_1  and  C_2
REMARK    2  A    between atoms: C_2  and  N_3
REMARK    3  A    between atoms: C_6  and  C_7
REMARK    4  A    between atoms: C_10  and  C_11
REMARK    5  A    between atoms: N_20  and  C_21
REMARK    6  A    between atoms: C_29  and  C_30
REMARK                            x       y       z     vdW  Elec       q    Type
REMARK                         _______ _______ _______ _____ _____    ______ ____
ROOT
ATOM      1  N   UNL     1       1.098   9.675  20.616  0.00  0.00    +0.000 N 
ATOM      2  C   UNL     1       1.356   9.739  19.251  0.00  0.00    +0.000 C 
ATOM      3  O   UNL     1       1.960   8.838  18.661  0.00  0.00    +0.000 OA
ATOM      4  C   UNL     1       0.836  10.933  18.472  0.00  0.00    +0.000 C 
ATOM      5  C   UNL     1       1.672  12.122  18.844  0.00  0.00    +0.000 C 
ATOM      6  O   UNL     1       2.427  12.583  17.979  0.00  0.00    +0.000 OA
ATOM      7  N   UNL     1       1.591  12.620  20.155  0.00  0.00    +0.000 N 
ATOM      8  C   UNL     1       0.660  12.093  21.118  0.00  0.00    +0.000 A 
ATOM      9  C   UNL     1      -0.129  13.027  21.828  0.00  0.00    +0.000 A 
ATOM     10  C   UNL     1      -1.158  12.631  22.696  0.00  0.00    +0.000 A 
ATOM     11  C   UNL     1      -1.336  11.270  22.939  0.00  0.00    +0.000 A 
ATOM     12  C   UNL     1      -0.543  10.327  22.281  0.00  0.00    +0.000 A 
ATOM     13  C   UNL     1       0.424  10.712  21.331  0.00  0.00    +0.000 A 
ENDROOT
BRANCH   4  14
ATOM     14  C   UNL     1      -0.689  11.088  18.395  0.00  0.00    +0.000 A 
ATOM     15  C   UNL     1      -1.354  12.305  18.627  0.00  0.00    +0.000 A 
ATOM     16  C   UNL     1      -2.754  12.394  18.526  0.00  0.00    +0.000 A 
ATOM     17  C   UNL     1      -3.517  11.270  18.188  0.00  0.00    +0.000 A 
ATOM     18  C   UNL     1      -2.849  10.081  17.881  0.00  0.00    +0.000 A 
ATOM     19  C   UNL     1      -1.460   9.995  17.971  0.00  0.00    +0.000 A 
BRANCH  17  20
ATOM     20  C   UNL     1      -4.966  11.292  18.192  0.00  0.00    +0.000 A 
ATOM     21  C   UNL     1      -5.969  12.142  17.782  0.00  0.00    +0.000 A 
ATOM     22  N   UNL     1      -7.200  11.616  18.106  0.00  0.00    +0.000 NA
ATOM     23  C   UNL     1      -6.899  10.481  18.696  0.00  0.00    +0.000 A 
ATOM     24  O   UNL     1      -5.570  10.206  18.776  0.00  0.00    +0.000 OA
ENDBRANCH  17  20
ENDBRANCH   4  14
BRANCH   7  25
ATOM     25  C   UNL     1       2.397  13.759  20.552  0.00  0.00    +0.000 A 
ATOM     26  C   UNL     1       3.466  13.617  21.454  0.00  0.00    +0.000 A 
ATOM     27  C   UNL     1       4.185  14.721  21.924  0.00  0.00    +0.000 A 
ATOM     28  C   UNL     1       3.860  16.000  21.491  0.00  0.00    +0.000 A 
ATOM     29  C   UNL     1       2.831  16.170  20.570  0.00  0.00    +0.000 A 
ATOM     30  C   UNL     1       2.104  15.063  20.105  0.00  0.00    +0.000 A 
ENDBRANCH   7  25
BRANCH  10  31
ATOM     31  C   UNL     1      -2.107  13.645  23.286  0.00  0.00    +0.000 C 
ATOM     32  F   UNL     1      -1.529  14.451  24.218  0.00  0.00    +0.000 F 
ATOM     33  F   UNL     1      -2.615  14.481  22.338  0.00  0.00    +0.000 F 
ATOM     34  F   UNL     1      -3.179  13.071  23.895  0.00  0.00    +0.000 F 
ENDBRANCH  10  31
BRANCH   1  36
ATOM     35  C   UNL     1       0.728   7.229  21.087  0.00  0.00    +0.000 C 
ATOM     36  C   UNL     1       1.557   8.483  21.344  0.00  0.00    +0.000 C 
ENDBRANCH   1  36
TORSDOF 5
ENDMDL
MODEL 4
REMARK VINA RESULT:      -7.5      3.045      5.698
REMARK  Name = 
REMARK  6 active torsions:
REMARK  status: ('A' for Active; 'I' for Inactive)
REMARK    1  A    between atoms: C_1  and  C_2
REMARK    2  A    between atoms: C_2  and  N_3
REMARK    3  A    between atoms: C_6  and  C_7
REMARK    4  A    between atoms: C_10  and  C_11
REMARK    5  A    between atoms: N_20  and  C_21
REMARK    6  A    between atoms: C_29  and  C_30
REMARK                            x       y       z     vdW  Elec       q    Type
REMARK                         _______ _______ _______ _____ _____    ______ ____
ROOT
ATOM      1  N   UNL     1       1.094   9.682  20.611  0.00  0.00    +0.000 N 
ATOM      2  C   UNL     1       1.350   9.751  19.246  0.00  0.00    +0.000 C 
ATOM      3  O   UNL     1       1.957   8.853  18.653  0.00  0.00    +0.000 OA
ATOM      4  C   UNL     1       0.825  10.945  18.471  0.00  0.00    +0.000 C 
ATOM      5  C   UNL     1       1.658  12.136  18.846  0.00  0.00    +0.000 C 
ATOM      6  O   UNL     1       2.411  12.602  17.982  0.00  0.00    +0.000 OA
ATOM      7  N   UNL     1       1.577  12.630  20.159  0.00  0.00    +0.000 N 
ATOM      8  C   UNL     1       0.649  12.097  21.120  0.00  0.00    +0.000 A 
ATOM      9  C   UNL     1      -0.143  13.026  21.835  0.00  0.00    +0.000 A 
ATOM     10  C   UNL     1      -1.169  12.625  22.701  0.00  0.00    +0.000 A 
ATOM     11  C   UNL     1      -1.344  11.262  22.941  0.00  0.00    +0.000 A 
ATOM     12  C   UNL     1      -0.548  10.324  22.280  0.00  0.00    +0.000 A 
ATOM     13  C   UNL     1       0.417  10.715  21.329  0.00  0.00    +0.000 A 
ENDROOT
BRANCH   4  14
ATOM     14  C   UNL     1      -0.700  11.096  18.396  0.00  0.00    +0.000 A 
ATOM     15  C   UNL     1      -1.367  12.315  18.613  0.00  0.00    +0.000 A 
ATOM     16  C   UNL     1      -2.768  12.398  18.515  0.00  0.00    +0.000 A 
ATOM     17  C   UNL     1      -3.529  11.269  18.194  0.00  0.00    +0.000 A 
ATOM     18  C   UNL     1      -2.859  10.077  17.901  0.00  0.00    +0.000 A 
ATOM     19  C   UNL     1      -1.470   9.995  17.988  0.00  0.00    +0.000 A 
BRANCH  17  20
ATOM     20  C   UNL     1      -4.978  11.287  18.201  0.00  0.00    +0.000 A 
ATOM     21  C   UNL     1      -5.984  12.135  17.793  0.00  0.00    +0.000 A 
ATOM     22  N   UNL     1      -7.213  11.606  18.121  0.00  0.00    +0.000 NA
ATOM     23  C   UNL     1      -6.907  10.472  18.709  0.00  0.00    +0.000 A 
ATOM     24  O   UNL     1      -5.578  10.199  18.786  0.00  0.00    +0.000 OA
ENDBRANCH  17  20
ENDBRANCH   4  14
BRANCH   7  25
ATOM     25  C   UNL     1       2.380  13.770  20.558  0.00  0.00    +0.000 A 
ATOM     26  C   UNL     1       2.121  15.057  20.055  0.00  0.00    +0.000 A 
ATOM     27  C   UNL     1       2.949  16.144  20.349  0.00  0.00    +0.000 A 
ATOM     28  C   UNL     1       4.056  15.974  21.171  0.00  0.00    +0.000 A 
ATOM     29  C   UNL     1       4.319  14.721  21.715  0.00  0.00    +0.000 A 
ATOM     30  C   UNL     1       3.492  13.628  21.412  0.00  0.00    +0.000 A 
ENDBRANCH   7  25
BRANCH  10  31
ATOM     31  C   UNL     1      -2.121  13.634  23.296  0.00  0.00    +0.000 C 
ATOM     32  F   UNL     1      -3.182  13.069  23.934  0.00  0.00    +0.000 F 
ATOM     33  F   UNL     1      -1.512  14.427  24.221  0.00  0.00    +0.000 F 
ATOM     34  F   UNL     1      -2.645  14.475  22.365  0.00  0.00    +0.000 F 
ENDBRANCH  10  31
BRANCH   1  36
ATOM     35  C   UNL     1       0.726   7.235  21.083  0.00  0.00    +0.000 C 
ATOM     36  C   UNL     1       1.557   8.489  21.335  0.00  0.00    +0.000 C 
ENDBRANCH   1  36
TORSDOF 5
ENDMDL
MODEL 5
REMARK VINA RESULT:      -7.4      3.011      5.619
REMARK  Name = 
REMARK  6 active torsions:
REMARK  status: ('A' for Active; 'I' for Inactive)
REMARK    1  A    between atoms: C_1  and  C_2
REMARK    2  A    between atoms: C_2  and  N_3
REMARK    3  A    between atoms: C_6  and  C_7
REMARK    4  A    between atoms: C_10  and  C_11
REMARK    5  A    between atoms: N_20  and  C_21
REMARK    6  A    between atoms: C_29  and  C_30
REMARK                            x       y       z     vdW  Elec       q    Type
REMARK                         _______ _______ _______ _____ _____    ______ ____
ROOT
ATOM      1  N   UNL     1       1.216   9.663  20.450  0.00  0.00    +0.000 N 
ATOM      2  C   UNL     1       1.459   9.804  19.088  0.00  0.00    +0.000 C 
ATOM      3  O   UNL     1       2.111   8.968  18.455  0.00  0.00    +0.000 OA
ATOM      4  C   UNL     1       0.862  10.999  18.367  0.00  0.00    +0.000 C 
ATOM      5  C   UNL     1       1.629  12.218  18.789  0.00  0.00    +0.000 C 
ATOM      6  O   UNL     1       2.348  12.762  17.942  0.00  0.00    +0.000 OA
ATOM      7  N   UNL     1       1.529  12.650  20.122  0.00  0.00    +0.000 N 
ATOM      8  C   UNL     1       0.639  12.025  21.064  0.00  0.00    +0.000 A 
ATOM      9  C   UNL     1      -0.199  12.877  21.821  0.00  0.00    +0.000 A 
ATOM     10  C   UNL     1      -1.195  12.381  22.675  0.00  0.00    +0.000 A 
ATOM     11  C   UNL     1      -1.290  11.002  22.857  0.00  0.00    +0.000 A 
ATOM     12  C   UNL     1      -0.447  10.139  22.152  0.00  0.00    +0.000 A 
ATOM     13  C   UNL     1       0.487  10.624  21.215  0.00  0.00    +0.000 A 
ENDROOT
BRANCH   4  14
ATOM     14  C   UNL     1      -0.670  11.066  18.305  0.00  0.00    +0.000 A 
ATOM     15  C   UNL     1      -1.482   9.948  18.046  0.00  0.00    +0.000 A 
ATOM     16  C   UNL     1      -2.883  10.064  18.017  0.00  0.00    +0.000 A 
ATOM     17  C   UNL     1      -3.501  11.298  18.251  0.00  0.00    +0.000 A 
ATOM     18  C   UNL     1      -2.697  12.391  18.586  0.00  0.00    +0.000 A 
ATOM     19  C   UNL     1      -1.308  12.275  18.624  0.00  0.00    +0.000 A 
BRANCH  17  20
ATOM     20  C   UNL     1      -4.932  11.483  18.111  0.00  0.00    +0.000 A 
ATOM     21  C   UNL     1      -5.785  12.391  17.525  0.00  0.00    +0.000 A 
ATOM     22  N   UNL     1      -7.094  12.045  17.778  0.00  0.00    +0.000 NA
ATOM     23  C   UNL     1      -6.985  10.954  18.501  0.00  0.00    +0.000 A 
ATOM     24  O   UNL     1      -5.711  10.541  18.736  0.00  0.00    +0.000 OA
ENDBRANCH  17  20
ENDBRANCH   4  14
BRANCH   7  25
ATOM     25  C   UNL     1       2.269  13.816  20.566  0.00  0.00    +0.000 A 
ATOM     26  C   UNL     1       1.892  15.112  20.174  0.00  0.00    +0.000 A 
ATOM     27  C   UNL     1       2.655  16.235  20.508  0.00  0.00    +0.000 A 
ATOM     28  C   UNL     1       3.814  16.090  21.260  0.00  0.00    +0.000 A 
ATOM     29  C   UNL     1       4.195  14.826  21.695  0.00  0.00    +0.000 A 
ATOM     30  C   UNL     1       3.433  13.698  21.351  0.00  0.00    +0.000 A 
ENDBRANCH   7  25
BRANCH  10  31
ATOM     31  C   UNL     1      -2.198  13.308  23.316  0.00  0.00    +0.000 C 
ATOM     32  F   UNL     1      -1.657  14.120  24.265  0.00  0.00    +0.000 F 
ATOM     33  F   UNL     1      -2.779  14.139  22.406  0.00  0.00    +0.000 F 
ATOM     34  F   UNL     1      -3.217  12.643  23.924  0.00  0.00    +0.000 F 
ENDBRANCH  10  31
BRANCH   1  36
ATOM     35  C   UNL     1       0.986   7.183  20.825  0.00  0.00    +0.000 C 
ATOM     36  C   UNL     1       1.751   8.469  21.120  0.00  0.00    +0.000 C 
ENDBRANCH   1  36
TORSDOF 5
ENDMDL
MODEL 6
REMARK VINA RESULT:      -7.3      3.011      5.623
REMARK  Name = 
REMARK  6 active torsions:
REMARK  status: ('A' for Active; 'I' for Inactive)
REMARK    1  A    between atoms: C_1  and  C_2
REMARK    2  A    between atoms: C_2  and  N_3
REMARK    3  A    between atoms: C_6  and  C_7
REMARK    4  A    between atoms: C_10  and  C_11
REMARK    5  A    between atoms: N_20  and  C_21
REMARK    6  A    between atoms: C_29  and  C_30
REMARK                            x       y       z     vdW  Elec       q    Type
REMARK                         _______ _______ _______ _____ _____    ______ ____
ROOT
ATOM      1  N   UNL     1       1.217   9.662  20.447  0.00  0.00    +0.000 N 
ATOM      2  C   UNL     1       1.465   9.811  19.086  0.00  0.00    +0.000 C 
ATOM      3  O   UNL     1       2.118   8.978  18.450  0.00  0.00    +0.000 OA
ATOM      4  C   UNL     1       0.872  11.011  18.371  0.00  0.00    +0.000 C 
ATOM      5  C   UNL     1       1.640  12.226  18.802  0.00  0.00    +0.000 C 
ATOM      6  O   UNL     1       2.362  12.774  17.961  0.00  0.00    +0.000 OA
ATOM      7  N   UNL     1       1.537  12.650  20.138  0.00  0.00    +0.000 N 
ATOM      8  C   UNL     1       0.642  12.021  21.073  0.00  0.00    +0.000 A 
ATOM      9  C   UNL     1      -0.197  12.869  21.833  0.00  0.00    +0.000 A 
ATOM     10  C   UNL     1      -1.196  12.370  22.680  0.00  0.00    +0.000 A 
ATOM     11  C   UNL     1      -1.294  10.990  22.853  0.00  0.00    +0.000 A 
ATOM     12  C   UNL     1      -0.451  10.131  22.146  0.00  0.00    +0.000 A 
ATOM     13  C   UNL     1       0.487  10.619  21.215  0.00  0.00    +0.000 A 
ENDROOT
BRANCH   4  14
ATOM     14  C   UNL     1      -0.660  11.081  18.304  0.00  0.00    +0.000 A 
ATOM     15  C   UNL     1      -1.473   9.966  18.035  0.00  0.00    +0.000 A 
ATOM     16  C   UNL     1      -2.873  10.085  18.002  0.00  0.00    +0.000 A 
ATOM     17  C   UNL     1      -3.490  11.318  18.242  0.00  0.00    +0.000 A 
ATOM     18  C   UNL     1      -2.685  12.408  18.587  0.00  0.00    +0.000 A 
ATOM     19  C   UNL     1      -1.296  12.289  18.629  0.00  0.00    +0.000 A 
BRANCH  17  20
ATOM     20  C   UNL     1      -4.920  11.507  18.099  0.00  0.00    +0.000 A 
ATOM     21  C   UNL     1      -5.769  12.381  17.457  0.00  0.00    +0.000 A 
ATOM     22  N   UNL     1      -7.079  12.065  17.741  0.00  0.00    +0.000 NA
ATOM     23  C   UNL     1      -6.975  11.025  18.536  0.00  0.00    +0.000 A 
ATOM     24  O   UNL     1      -5.704  10.617  18.791  0.00  0.00    +0.000 OA
ENDBRANCH  17  20
ENDBRANCH   4  14
BRANCH   7  25
ATOM     25  C   UNL     1       2.277  13.812  20.591  0.00  0.00    +0.000 A 
ATOM     26  C   UNL     1       3.398  13.682  21.429  0.00  0.00    +0.000 A 
ATOM     27  C   UNL     1       4.058  14.796  21.957  0.00  0.00    +0.000 A 
ATOM     28  C   UNL     1       3.618  16.077  21.647  0.00  0.00    +0.000 A 
ATOM     29  C   UNL     1       2.534  16.240  20.791  0.00  0.00    +0.000 A 
ATOM     30  C   UNL     1       1.867  15.121  20.268  0.00  0.00    +0.000 A 
ENDBRANCH   7  25
BRANCH  10  31
ATOM     31  C   UNL     1      -2.200  13.295  23.323  0.00  0.00    +0.000 C 
ATOM     32  F   UNL     1      -3.192  12.642  23.988  0.00  0.00    +0.000 F 
ATOM     33  F   UNL     1      -1.620  14.119  24.240  0.00  0.00    +0.000 F 
ATOM     34  F   UNL     1      -2.819  14.107  22.425  0.00  0.00    +0.000 F 
ENDBRANCH  10  31
BRANCH   1  36
ATOM     35  C   UNL     1       0.933   7.196  20.873  0.00  0.00    +0.000 C 
ATOM     36  C   UNL     1       1.748   8.463  21.111  0.00  0.00    +0.000 C 
ENDBRANCH   1  36
TORSDOF 5
ENDMDL
MODEL 7
REMARK VINA RESULT:      -7.0      3.271      7.120
REMARK  Name = 
REMARK  6 active torsions:
REMARK  status: ('A' for Active; 'I' for Inactive)
REMARK    1  A    between atoms: C_1  and  C_2
REMARK    2  A    between atoms: C_2  and  N_3
REMARK    3  A    between atoms: C_6  and  C_7
REMARK    4  A    between atoms: C_10  and  C_11
REMARK    5  A    between atoms: N_20  and  C_21
REMARK    6  A    between atoms: C_29  and  C_30
REMARK                            x       y       z     vdW  Elec       q    Type
REMARK                         _______ _______ _______ _____ _____    ______ ____
ROOT
ATOM      1  N   UNL     1      -3.222  14.087  23.416  0.00  0.00    +0.000 N 
ATOM      2  C   UNL     1      -3.733  15.308  22.989  0.00  0.00    +0.000 C 
ATOM      3  O   UNL     1      -4.302  16.081  23.765  0.00  0.00    +0.000 OA
ATOM      4  C   UNL     1      -3.536  15.705  21.538  0.00  0.00    +0.000 C 
ATOM      5  C   UNL     1      -4.449  14.855  20.703  0.00  0.00    +0.000 C 
ATOM      6  O   UNL     1      -5.406  15.412  20.154  0.00  0.00    +0.000 OA
ATOM      7  N   UNL     1      -4.200  13.474  20.624  0.00  0.00    +0.000 N 
ATOM      8  C   UNL     1      -3.043  12.869  21.231  0.00  0.00    +0.000 A 
ATOM      9  C   UNL     1      -2.275  11.996  20.426  0.00  0.00    +0.000 A 
ATOM     10  C   UNL     1      -1.061  11.449  20.863  0.00  0.00    +0.000 A 
ATOM     11  C   UNL     1      -0.651  11.697  22.173  0.00  0.00    +0.000 A 
ATOM     12  C   UNL     1      -1.411  12.524  23.003  0.00  0.00    +0.000 A 
ATOM     13  C   UNL     1      -2.580  13.161  22.539  0.00  0.00    +0.000 A 
ENDROOT
BRANCH   4  14
ATOM     14  C   UNL     1      -2.089  15.921  21.076  0.00  0.00    +0.000 A 
ATOM     15  C   UNL     1      -1.049  16.299  21.944  0.00  0.00    +0.000 A 
ATOM     16  C   UNL     1       0.263  16.467  21.469  0.00  0.00    +0.000 A 
ATOM     17  C   UNL     1       0.565  16.256  20.119  0.00  0.00    +0.000 A 
ATOM     18  C   UNL     1      -0.452  15.804  19.273  0.00  0.00    +0.000 A 
ATOM     19  C   UNL     1      -1.752  15.628  19.745  0.00  0.00    +0.000 A 
BRANCH  17  20
ATOM     20  C   UNL     1       1.877  16.535  19.569  0.00  0.00    +0.000 A 
ATOM     21  C   UNL     1       3.049  17.125  19.988  0.00  0.00    +0.000 A 
ATOM     22  N   UNL     1       3.969  17.133  18.964  0.00  0.00    +0.000 NA
ATOM     23  C   UNL     1       3.327  16.556  17.974  0.00  0.00    +0.000 A 
ATOM     24  O   UNL     1       2.061  16.153  18.263  0.00  0.00    +0.000 OA
ENDBRANCH  17  20
ENDBRANCH   4  14
BRANCH   7  25
ATOM     25  C   UNL     1      -5.071  12.621  19.838  0.00  0.00    +0.000 A 
ATOM     26  C   UNL     1      -6.148  11.937  20.428  0.00  0.00    +0.000 A 
ATOM     27  C   UNL     1      -6.931  11.032  19.705  0.00  0.00    +0.000 A 
ATOM     28  C   UNL     1      -6.664  10.798  18.363  0.00  0.00    +0.000 A 
ATOM     29  C   UNL     1      -5.629  11.487  17.740  0.00  0.00    +0.000 A 
ATOM     30  C   UNL     1      -4.837  12.389  18.468  0.00  0.00    +0.000 A 
ENDBRANCH   7  25
BRANCH  10  31
ATOM     31  C   UNL     1      -0.171  10.682  19.916  0.00  0.00    +0.000 C 
ATOM     32  F   UNL     1      -0.846  10.105  18.885  0.00  0.00    +0.000 F 
ATOM     33  F   UNL     1       0.772  11.480  19.341  0.00  0.00    +0.000 F 
ATOM     34  F   UNL     1       0.510   9.677  20.530  0.00  0.00    +0.000 F 
ENDBRANCH  10  31
BRANCH   1  36
ATOM     35  C   UNL     1      -4.351  12.613  25.119  0.00  0.00    +0.000 C 
ATOM     36  C   UNL     1      -3.368  13.745  24.839  0.00  0.00    +0.000 C 
ENDBRANCH   1  36
TORSDOF 5
ENDMDL
MODEL 8
REMARK VINA RESULT:      -6.9      3.252      7.165
REMARK  Name = 
REMARK  6 active torsions:
REMARK  status: ('A' for Active; 'I' for Inactive)
REMARK    1  A    between atoms: C_1  and  C_2
REMARK    2  A    between atoms: C_2  and  N_3
REMARK    3  A    between atoms: C_6  and  C_7
REMARK    4  A    between atoms: C_10  and  C_11
REMARK    5  A    between atoms: N_20  and  C_21
REMARK    6  A    between atoms: C_29  and  C_30
REMARK                            x       y       z     vdW  Elec       q    Type
REMARK                         _______ _______ _______ _____ _____    ______ ____
ROOT
ATOM      1  N   UNL     1      -3.350  14.028  23.461  0.00  0.00    +0.000 N 
ATOM      2  C   UNL     1      -3.934  15.240  23.104  0.00  0.00    +0.000 C 
ATOM      3  O   UNL     1      -4.524  15.944  23.929  0.00  0.00    +0.000 OA
ATOM      4  C   UNL     1      -3.793  15.714  21.670  0.00  0.00    +0.000 C 
ATOM      5  C   UNL     1      -4.680  14.858  20.815  0.00  0.00    +0.000 C 
ATOM      6  O   UNL     1      -5.678  15.389  20.314  0.00  0.00    +0.000 OA
ATOM      7  N   UNL     1      -4.361  13.497  20.664  0.00  0.00    +0.000 N 
ATOM      8  C   UNL     1      -3.161  12.927  21.216  0.00  0.00    +0.000 A 
ATOM      9  C   UNL     1      -2.369  12.134  20.354  0.00  0.00    +0.000 A 
ATOM     10  C   UNL     1      -1.117  11.632  20.738  0.00  0.00    +0.000 A 
ATOM     11  C   UNL     1      -0.690  11.839  22.049  0.00  0.00    +0.000 A 
ATOM     12  C   UNL     1      -1.472  12.585  22.934  0.00  0.00    +0.000 A 
ATOM     13  C   UNL     1      -2.683  13.180  22.526  0.00  0.00    +0.000 A 
ENDROOT
BRANCH   4  14
ATOM     14  C   UNL     1      -2.370  16.028  21.188  0.00  0.00    +0.000 A 
ATOM     15  C   UNL     1      -1.996  16.033  19.833  0.00  0.00    +0.000 A 
ATOM     16  C   UNL     1      -0.680  16.344  19.447  0.00  0.00    +0.000 A 
ATOM     17  C   UNL     1       0.288  16.660  20.407  0.00  0.00    +0.000 A 
ATOM     18  C   UNL     1      -0.103  16.731  21.748  0.00  0.00    +0.000 A 
ATOM     19  C   UNL     1      -1.411  16.432  22.130  0.00  0.00    +0.000 A 
BRANCH  17  20
ATOM     20  C   UNL     1       1.680  16.867  20.060  0.00  0.00    +0.000 A 
ATOM     21  C   UNL     1       2.671  17.780  20.345  0.00  0.00    +0.000 A 
ATOM     22  N   UNL     1       3.821  17.461  19.658  0.00  0.00    +0.000 NA
ATOM     23  C   UNL     1       3.486  16.380  18.990  0.00  0.00    +0.000 A 
ATOM     24  O   UNL     1       2.213  15.949  19.189  0.00  0.00    +0.000 OA
ENDBRANCH  17  20
ENDBRANCH   4  14
BRANCH   7  25
ATOM     25  C   UNL     1      -5.206  12.637  19.857  0.00  0.00    +0.000 A 
ATOM     26  C   UNL     1      -6.226  11.864  20.437  0.00  0.00    +0.000 A 
ATOM     27  C   UNL     1      -6.979  10.954  19.687  0.00  0.00    +0.000 A 
ATOM     28  C   UNL     1      -6.737  10.805  18.328  0.00  0.00    +0.000 A 
ATOM     29  C   UNL     1      -5.759  11.582  17.716  0.00  0.00    +0.000 A 
ATOM     30  C   UNL     1      -4.998  12.489  18.471  0.00  0.00    +0.000 A 
ENDBRANCH   7  25
BRANCH  10  31
ATOM     31  C   UNL     1      -0.212  10.958  19.736  0.00  0.00    +0.000 C 
ATOM     32  F   UNL     1       0.402  11.828  18.888  0.00  0.00    +0.000 F 
ATOM     33  F   UNL     1       0.790  10.261  20.341  0.00  0.00    +0.000 F 
ATOM     34  F   UNL     1      -0.870  10.065  18.949  0.00  0.00    +0.000 F 
ENDBRANCH  10  31
BRANCH   1  36
ATOM     35  C   UNL     1      -4.488  12.534  25.140  0.00  0.00    +0.000 C 
ATOM     36  C   UNL     1      -3.444  13.613  24.868  0.00  0.00    +0.000 C 
ENDBRANCH   1  36
TORSDOF 5
ENDMDL
MODEL 9
REMARK VINA RESULT:      -6.8      3.378      7.273
REMARK  Name = 
REMARK  6 active torsions:
REMARK  status: ('A' for Active; 'I' for Inactive)
REMARK    1  A    between atoms: C_1  and  C_2
REMARK    2  A    between atoms: C_2  and  N_3
REMARK    3  A    between atoms: C_6  and  C_7
REMARK    4  A    between atoms: C_10  and  C_11
REMARK    5  A    between atoms: N_20  and  C_21
REMARK    6  A    between atoms: C_29  and  C_30
REMARK                            x       y       z     vdW  Elec       q    Type
REMARK                         _______ _______ _______ _____ _____    ______ ____
ROOT
ATOM      1  N   UNL     1      -3.113  14.676  23.485  0.00  0.00    +0.000 N 
ATOM      2  C   UNL     1      -3.663  15.846  22.973  0.00  0.00    +0.000 C 
ATOM      3  O   UNL     1      -4.192  16.689  23.704  0.00  0.00    +0.000 OA
ATOM      4  C   UNL     1      -3.561  16.100  21.481  0.00  0.00    +0.000 C 
ATOM      5  C   UNL     1      -4.513  15.167  20.792  0.00  0.00    +0.000 C 
ATOM      6  O   UNL     1      -5.509  15.662  20.251  0.00  0.00    +0.000 OA
ATOM      7  N   UNL     1      -4.253  13.786  20.833  0.00  0.00    +0.000 N 
ATOM      8  C   UNL     1      -3.054  13.251  21.423  0.00  0.00    +0.000 A 
ATOM      9  C   UNL     1      -2.327  12.307  20.661  0.00  0.00    +0.000 A 
ATOM     10  C   UNL     1      -1.082  11.813  21.072  0.00  0.00    +0.000 A 
ATOM     11  C   UNL     1      -0.595  12.190  22.323  0.00  0.00    +0.000 A 
ATOM     12  C   UNL     1      -1.313  13.091  23.114  0.00  0.00    +0.000 A 
ATOM     13  C   UNL     1      -2.515  13.672  22.664  0.00  0.00    +0.000 A 
ENDROOT
BRANCH   4  14
ATOM     14  C   UNL     1      -2.147  16.277  20.911  0.00  0.00    +0.000 A 
ATOM     15  C   UNL     1      -1.802  15.955  19.586  0.00  0.00    +0.000 A 
ATOM     16  C   UNL     1      -0.493  16.153  19.113  0.00  0.00    +0.000 A 
ATOM     17  C   UNL     1       0.496  16.682  19.950  0.00  0.00    +0.000 A 
ATOM     18  C   UNL     1       0.133  17.075  21.242  0.00  0.00    +0.000 A 
ATOM     19  C   UNL     1      -1.167  16.887  21.710  0.00  0.00    +0.000 A 
BRANCH  17  20
ATOM     20  C   UNL     1       1.881  16.789  19.536  0.00  0.00    +0.000 A 
ATOM     21  C   UNL     1       3.049  17.327  20.030  0.00  0.00    +0.000 A 
ATOM     22  N   UNL     1       4.074  17.143  19.130  0.00  0.00    +0.000 NA
ATOM     23  C   UNL     1       3.495  16.510  18.135  0.00  0.00    +0.000 A 
ATOM     24  O   UNL     1       2.173  16.246  18.309  0.00  0.00    +0.000 OA
ENDBRANCH  17  20
ENDBRANCH   4  14
BRANCH   7  25
ATOM     25  C   UNL     1      -5.161  12.856  20.190  0.00  0.00    +0.000 A 
ATOM     26  C   UNL     1      -6.153  12.180  20.922  0.00  0.00    +0.000 A 
ATOM     27  C   UNL     1      -6.966  11.205  20.337  0.00  0.00    +0.000 A 
ATOM     28  C   UNL     1      -6.815  10.888  18.993  0.00  0.00    +0.000 A 
ATOM     29  C   UNL     1      -5.868  11.564  18.232  0.00  0.00    +0.000 A 
ATOM     30  C   UNL     1      -5.047  12.538  18.822  0.00  0.00    +0.000 A 
ENDBRANCH   7  25
BRANCH  10  31
ATOM     31  C   UNL     1      -0.243  10.961  20.151  0.00  0.00    +0.000 C 
ATOM     32  F   UNL     1       0.634  10.153  20.807  0.00  0.00    +0.000 F 
ATOM     33  F   UNL     1      -1.007  10.132  19.385  0.00  0.00    +0.000 F 
ATOM     34  F   UNL     1       0.499  11.698  19.282  0.00  0.00    +0.000 F 
ENDBRANCH  10  31
BRANCH   1  36
ATOM     35  C   UNL     1      -2.157  15.302  25.730  0.00  0.00    +0.000 C 
ATOM     36  C   UNL     1      -3.166  14.475  24.941  0.00  0.00    +0.000 C 
ENDBRANCH   1  36
TORSDOF 5
ENDMDL
