MODEL 1
REMARK VINA RESULT:      -7.5      0.000      0.000
REMARK  Name = 
REMARK  5 active torsions:
REMARK  status: ('A' for Active; 'I' for Inactive)
REMARK    1  A    between atoms: N_1  and  C_2
REMARK    2  A    between atoms: C_2  and  C_3
REMARK    3  A    between atoms: C_3  and  C_4
REMARK    4  A    between atoms: C_4  and  C_5
REMARK    5  A    between atoms: C_5  and  C_6
REMARK                            x       y       z     vdW  Elec       q    Type
REMARK                         _______ _______ _______ _____ _____    ______ ____
ROOT
ATOM      1  C   UNL     1       5.811   4.997  15.460  0.00  0.00    +0.000 C 
ATOM      2  O   UNL     1       5.705   6.217  15.380  0.00  0.00    +0.000 OA
ATOM      3  N   UNL     1       5.341   4.181  16.471  0.00  0.00    +0.000 N 
ATOM      4  C   UNL     1       4.529   4.604  17.532  0.00  0.00    +0.000 A 
ATOM      5  C   UNL     1       4.309   3.695  18.568  0.00  0.00    +0.000 A 
ATOM      6  C   UNL     1       3.499   4.064  19.646  0.00  0.00    +0.000 A 
ATOM      7  C   UNL     1       2.902   5.328  19.662  0.00  0.00    +0.000 A 
ATOM      8  C   UNL     1       2.066   5.778  20.691  0.00  0.00    +0.000 A 
ATOM      9  C   UNL     1       1.480   7.052  20.634  0.00  0.00    +0.000 A 
ATOM     10  C   UNL     1       1.742   7.888  19.529  0.00  0.00    +0.000 A 
ATOM     11  C   UNL     1       1.323   9.194  19.152  0.00  0.00    +0.000 A 
ATOM     12  C   UNL     1       1.916   9.492  17.945  0.00  0.00    +0.000 A 
ATOM     13  N   UNL     1       2.684   8.419  17.576  0.00  0.00    +0.000 N 
ATOM     14  C   UNL     1       2.588   7.423  18.523  0.00  0.00    +0.000 A 
ATOM     15  C   UNL     1       3.179   6.156  18.562  0.00  0.00    +0.000 A 
ATOM     16  N   UNL     1       3.971   5.827  17.518  0.00  0.00    +0.000 NA
ATOM     17  H   UNL     1       5.635   3.214  16.470  0.00  0.00    +0.000 HD
ATOM     18  H   UNL     1       3.248   8.333  16.739  0.00  0.00    +0.000 HD
ENDROOT
BRANCH   1  19
ATOM     19  C   UNL     1       6.556   4.222  14.386  0.00  0.00    +0.000 C 
BRANCH  19  20
ATOM     20  C   UNL     1       5.642   3.880  13.212  0.00  0.00    +0.000 C 
BRANCH  20  21
ATOM     21  C   UNL     1       6.377   3.170  12.068  0.00  0.00    +0.000 C 
BRANCH  21  22
ATOM     22  C   UNL     1       5.623   1.985  11.462  0.00  0.00    +0.000 C 
BRANCH  22  23
ATOM     23  N   UNL     1       6.524   0.874  11.170  0.00  0.00    +0.000 NA
ATOM     24  H   UNL     1       5.979   0.015  11.095  0.00  0.00    +0.000 HD
ATOM     25  H   UNL     1       7.149   0.735  11.966  0.00  0.00    +0.000 HD
ENDBRANCH  22  23
ENDBRANCH  21  22
ENDBRANCH  20  21
ENDBRANCH  19  20
ENDBRANCH   1  19
TORSDOF 5
ENDMDL
MODEL 2
REMARK VINA RESULT:      -7.3      1.168      1.708
REMARK  Name = 
REMARK  5 active torsions:
REMARK  status: ('A' for Active; 'I' for Inactive)
REMARK    1  A    between atoms: N_1  and  C_2
REMARK    2  A    between atoms: C_2  and  C_3
REMARK    3  A    between atoms: C_3  and  C_4
REMARK    4  A    between atoms: C_4  and  C_5
REMARK    5  A    between atoms: C_5  and  C_6
REMARK                            x       y       z     vdW  Elec       q    Type
REMARK                         _______ _______ _______ _____ _____    ______ ____
ROOT
ATOM      1  C   UNL     1       5.736   5.219  15.512  0.00  0.00    +0.000 C 
ATOM      2  O   UNL     1       5.703   6.282  16.123  0.00  0.00    +0.000 OA
ATOM      3  N   UNL     1       5.164   4.019  15.889  0.00  0.00    +0.000 N 
ATOM      4  C   UNL     1       4.319   3.845  16.993  0.00  0.00    +0.000 A 
ATOM      5  C   UNL     1       3.989   2.535  17.345  0.00  0.00    +0.000 A 
ATOM      6  C   UNL     1       3.142   2.307  18.433  0.00  0.00    +0.000 A 
ATOM      7  C   UNL     1       2.617   3.392  19.140  0.00  0.00    +0.000 A 
ATOM      8  C   UNL     1       1.751   3.261  20.233  0.00  0.00    +0.000 A 
ATOM      9  C   UNL     1       1.242   4.394  20.886  0.00  0.00    +0.000 A 
ATOM     10  C   UNL     1       1.614   5.678  20.438  0.00  0.00    +0.000 A 
ATOM     11  C   UNL     1       1.291   7.003  20.845  0.00  0.00    +0.000 A 
ATOM     12  C   UNL     1       1.967   7.872  20.018  0.00  0.00    +0.000 A 
ATOM     13  N   UNL     1       2.693   7.127  19.126  0.00  0.00    +0.000 N 
ATOM     14  C   UNL     1       2.487   5.785  19.357  0.00  0.00    +0.000 A 
ATOM     15  C   UNL     1       3.002   4.666  18.692  0.00  0.00    +0.000 A 
ATOM     16  N   UNL     1       3.832   4.911  17.654  0.00  0.00    +0.000 NA
ATOM     17  H   UNL     1       5.402   3.195  15.355  0.00  0.00    +0.000 HD
ATOM     18  H   UNL     1       3.298   7.475  18.392  0.00  0.00    +0.000 HD
ENDROOT
BRANCH   1  19
ATOM     19  C   UNL     1       6.495   5.114  14.200  0.00  0.00    +0.000 C 
BRANCH  19  20
ATOM     20  C   UNL     1       6.519   3.678  13.684  0.00  0.00    +0.000 C 
BRANCH  20  21
ATOM     21  C   UNL     1       6.404   3.588  12.157  0.00  0.00    +0.000 C 
BRANCH  21  22
ATOM     22  C   UNL     1       5.419   2.532  11.652  0.00  0.00    +0.000 C 
BRANCH  22  23
ATOM     23  N   UNL     1       6.087   1.259  11.395  0.00  0.00    +0.000 NA
ATOM     24  H   UNL     1       5.451   0.649  10.882  0.00  0.00    +0.000 HD
ATOM     25  H   UNL     1       6.261   0.791  12.285  0.00  0.00    +0.000 HD
ENDBRANCH  22  23
ENDBRANCH  21  22
ENDBRANCH  20  21
ENDBRANCH  19  20
ENDBRANCH   1  19
TORSDOF 5
ENDMDL
MODEL 3
REMARK VINA RESULT:      -7.3      4.354      5.918
REMARK  Name = 
REMARK  5 active torsions:
REMARK  status: ('A' for Active; 'I' for Inactive)
REMARK    1  A    between atoms: N_1  and  C_2
REMARK    2  A    between atoms: C_2  and  C_3
REMARK    3  A    between atoms: C_3  and  C_4
REMARK    4  A    between atoms: C_4  and  C_5
REMARK    5  A    between atoms: C_5  and  C_6
REMARK                            x       y       z     vdW  Elec       q    Type
REMARK                         _______ _______ _______ _____ _____    ______ ____
ROOT
ATOM      1  C   UNL     1       2.957   5.389  19.826  0.00  0.00    +0.000 C 
ATOM      2  O   UNL     1       2.202   5.353  20.793  0.00  0.00    +0.000 OA
ATOM      3  N   UNL     1       3.046   6.382  18.870  0.00  0.00    +0.000 N 
ATOM      4  C   UNL     1       2.365   7.606  18.918  0.00  0.00    +0.000 A 
ATOM      5  C   UNL     1       2.414   8.409  17.778  0.00  0.00    +0.000 A 
ATOM      6  C   UNL     1       1.759   9.644  17.777  0.00  0.00    +0.000 A 
ATOM      7  C   UNL     1       1.085  10.069  18.925  0.00  0.00    +0.000 A 
ATOM      8  C   UNL     1       0.413  11.295  19.021  0.00  0.00    +0.000 A 
ATOM      9  C   UNL     1      -0.227  11.671  20.212  0.00  0.00    +0.000 A 
ATOM     10  C   UNL     1      -0.196  10.801  21.321  0.00  0.00    +0.000 A 
ATOM     11  C   UNL     1      -0.714  10.862  22.645  0.00  0.00    +0.000 A 
ATOM     12  C   UNL     1      -0.362   9.696  23.287  0.00  0.00    +0.000 A 
ATOM     13  N   UNL     1       0.345   8.924  22.403  0.00  0.00    +0.000 N 
ATOM     14  C   UNL     1       0.467   9.581  21.198  0.00  0.00    +0.000 A 
ATOM     15  C   UNL     1       1.112   9.190  20.020  0.00  0.00    +0.000 A 
ATOM     16  N   UNL     1       1.724   7.985  20.038  0.00  0.00    +0.000 NA
ATOM     17  H   UNL     1       3.612   6.200  18.053  0.00  0.00    +0.000 HD
ATOM     18  H   UNL     1       0.736   8.006  22.574  0.00  0.00    +0.000 HD
ENDROOT
BRANCH   1  19
ATOM     19  C   UNL     1       3.913   4.238  19.560  0.00  0.00    +0.000 C 
BRANCH  19  20
ATOM     20  C   UNL     1       3.196   2.892  19.621  0.00  0.00    +0.000 C 
BRANCH  20  21
ATOM     21  C   UNL     1       2.256   2.660  18.431  0.00  0.00    +0.000 C 
BRANCH  21  22
ATOM     22  C   UNL     1       0.789   2.445  18.808  0.00  0.00    +0.000 C 
BRANCH  22  23
ATOM     23  N   UNL     1       0.500   2.962  20.143  0.00  0.00    +0.000 NA
ATOM     24  H   UNL     1      -0.503   2.892  20.316  0.00  0.00    +0.000 HD
ATOM     25  H   UNL     1       0.715   3.960  20.166  0.00  0.00    +0.000 HD
ENDBRANCH  22  23
ENDBRANCH  21  22
ENDBRANCH  20  21
ENDBRANCH  19  20
ENDBRANCH   1  19
TORSDOF 5
ENDMDL
MODEL 4
REMARK VINA RESULT:      -7.2      4.284      7.623
REMARK  Name = 
REMARK  5 active torsions:
REMARK  status: ('A' for Active; 'I' for Inactive)
REMARK    1  A    between atoms: N_1  and  C_2
REMARK    2  A    between atoms: C_2  and  C_3
REMARK    3  A    between atoms: C_3  and  C_4
REMARK    4  A    between atoms: C_4  and  C_5
REMARK    5  A    between atoms: C_5  and  C_6
REMARK                            x       y       z     vdW  Elec       q    Type
REMARK                         _______ _______ _______ _____ _____    ______ ____
ROOT
ATOM      1  C   UNL     1       0.642   9.247  20.310  0.00  0.00    +0.000 C 
ATOM      2  O   UNL     1       0.637   8.513  21.293  0.00  0.00    +0.000 OA
ATOM      3  N   UNL     1       1.401   9.105  19.164  0.00  0.00    +0.000 N 
ATOM      4  C   UNL     1       2.213   8.002  18.871  0.00  0.00    +0.000 A 
ATOM      5  C   UNL     1       3.061   8.108  17.768  0.00  0.00    +0.000 A 
ATOM      6  C   UNL     1       3.886   7.033  17.428  0.00  0.00    +0.000 A 
ATOM      7  C   UNL     1       3.833   5.856  18.180  0.00  0.00    +0.000 A 
ATOM      8  C   UNL     1       4.611   4.724  17.905  0.00  0.00    +0.000 A 
ATOM      9  C   UNL     1       4.494   3.565  18.687  0.00  0.00    +0.000 A 
ATOM     10  C   UNL     1       3.586   3.546  19.766  0.00  0.00    +0.000 A 
ATOM     11  C   UNL     1       3.214   2.569  20.732  0.00  0.00    +0.000 A 
ATOM     12  C   UNL     1       2.259   3.132  21.550  0.00  0.00    +0.000 A 
ATOM     13  N   UNL     1       2.040   4.415  21.122  0.00  0.00    +0.000 N 
ATOM     14  C   UNL     1       2.832   4.688  20.029  0.00  0.00    +0.000 A 
ATOM     15  C   UNL     1       2.935   5.851  19.258  0.00  0.00    +0.000 A 
ATOM     16  N   UNL     1       2.140   6.884  19.616  0.00  0.00    +0.000 NA
ATOM     17  H   UNL     1       1.404   9.870  18.504  0.00  0.00    +0.000 HD
ATOM     18  H   UNL     1       1.399   5.089  21.522  0.00  0.00    +0.000 HD
ENDROOT
BRANCH   1  19
ATOM     19  C   UNL     1      -0.232  10.490  20.279  0.00  0.00    +0.000 C 
BRANCH  19  20
ATOM     20  C   UNL     1      -0.628  10.856  18.851  0.00  0.00    +0.000 C 
BRANCH  20  21
ATOM     21  C   UNL     1      -1.918  10.166  18.391  0.00  0.00    +0.000 C 
BRANCH  21  22
ATOM     22  C   UNL     1      -2.110  10.116  16.874  0.00  0.00    +0.000 C 
BRANCH  22  23
ATOM     23  N   UNL     1      -2.180  11.457  16.301  0.00  0.00    +0.000 NA
ATOM     24  H   UNL     1      -2.758  11.430  15.461  0.00  0.00    +0.000 HD
ATOM     25  H   UNL     1      -1.248  11.731  15.986  0.00  0.00    +0.000 HD
ENDBRANCH  22  23
ENDBRANCH  21  22
ENDBRANCH  20  21
ENDBRANCH  19  20
ENDBRANCH   1  19
TORSDOF 5
ENDMDL
MODEL 5
REMARK VINA RESULT:      -7.2      1.589      3.234
REMARK  Name = 
REMARK  5 active torsions:
REMARK  status: ('A' for Active; 'I' for Inactive)
REMARK    1  A    between atoms: N_1  and  C_2
REMARK    2  A    between atoms: C_2  and  C_3
REMARK    3  A    between atoms: C_3  and  C_4
REMARK    4  A    between atoms: C_4  and  C_5
REMARK    5  A    between atoms: C_5  and  C_6
REMARK                            x       y       z     vdW  Elec       q    Type
REMARK                         _______ _______ _______ _____ _____    ______ ____
ROOT
ATOM      1  C   UNL     1       6.269   4.629  15.212  0.00  0.00    +0.000 C 
ATOM      2  O   UNL     1       5.928   3.523  15.620  0.00  0.00    +0.000 OA
ATOM      3  N   UNL     1       5.761   5.855  15.596  0.00  0.00    +0.000 N 
ATOM      4  C   UNL     1       4.842   6.053  16.636  0.00  0.00    +0.000 A 
ATOM      5  C   UNL     1       4.285   7.326  16.761  0.00  0.00    +0.000 A 
ATOM      6  C   UNL     1       3.370   7.579  17.787  0.00  0.00    +0.000 A 
ATOM      7  C   UNL     1       3.043   6.562  18.688  0.00  0.00    +0.000 A 
ATOM      8  C   UNL     1       2.149   6.727  19.753  0.00  0.00    +0.000 A 
ATOM      9  C   UNL     1       1.881   5.670  20.635  0.00  0.00    +0.000 A 
ATOM     10  C   UNL     1       2.516   4.426  20.441  0.00  0.00    +0.000 A 
ATOM     11  C   UNL     1       2.487   3.179  21.126  0.00  0.00    +0.000 A 
ATOM     12  C   UNL     1       3.330   2.316  20.462  0.00  0.00    +0.000 A 
ATOM     13  N   UNL     1       3.867   2.989  19.395  0.00  0.00    +0.000 N 
ATOM     14  C   UNL     1       3.393   4.281  19.367  0.00  0.00    +0.000 A 
ATOM     15  C   UNL     1       3.673   5.325  18.479  0.00  0.00    +0.000 A 
ATOM     16  N   UNL     1       4.548   5.053  17.485  0.00  0.00    +0.000 NA
ATOM     17  H   UNL     1       6.040   6.668  15.064  0.00  0.00    +0.000 HD
ATOM     18  H   UNL     1       4.520   2.624  18.713  0.00  0.00    +0.000 HD
ENDROOT
BRANCH   1  19
ATOM     19  C   UNL     1       7.342   4.753  14.143  0.00  0.00    +0.000 C 
BRANCH  19  20
ATOM     20  C   UNL     1       6.736   4.746  12.742  0.00  0.00    +0.000 C 
BRANCH  20  21
ATOM     21  C   UNL     1       6.930   3.410  12.014  0.00  0.00    +0.000 C 
BRANCH  21  22
ATOM     22  C   UNL     1       5.649   2.595  11.823  0.00  0.00    +0.000 C 
BRANCH  22  23
ATOM     23  N   UNL     1       5.947   1.210  11.469  0.00  0.00    +0.000 NA
ATOM     24  H   UNL     1       6.325   1.184  10.522  0.00  0.00    +0.000 HD
ATOM     25  H   UNL     1       5.073   0.682  11.432  0.00  0.00    +0.000 HD
ENDBRANCH  22  23
ENDBRANCH  21  22
ENDBRANCH  20  21
ENDBRANCH  19  20
ENDBRANCH   1  19
TORSDOF 5
ENDMDL
MODEL 6
REMARK VINA RESULT:      -7.1      3.516      5.398
REMARK  Name = 
REMARK  5 active torsions:
REMARK  status: ('A' for Active; 'I' for Inactive)
REMARK    1  A    between atoms: N_1  and  C_2
REMARK    2  A    between atoms: C_2  and  C_3
REMARK    3  A    between atoms: C_3  and  C_4
REMARK    4  A    between atoms: C_4  and  C_5
REMARK    5  A    between atoms: C_5  and  C_6
REMARK                            x       y       z     vdW  Elec       q    Type
REMARK                         _______ _______ _______ _____ _____    ______ ____
ROOT
ATOM      1  C   UNL     1       2.893   5.448  19.813  0.00  0.00    +0.000 C 
ATOM      2  O   UNL     1       2.127   5.407  20.770  0.00  0.00    +0.000 OA
ATOM      3  N   UNL     1       3.000   6.452  18.870  0.00  0.00    +0.000 N 
ATOM      4  C   UNL     1       2.329   7.681  18.926  0.00  0.00    +0.000 A 
ATOM      5  C   UNL     1       2.396   8.498  17.797  0.00  0.00    +0.000 A 
ATOM      6  C   UNL     1       1.751   9.737  17.804  0.00  0.00    +0.000 A 
ATOM      7  C   UNL     1       1.068  10.154  18.949  0.00  0.00    +0.000 A 
ATOM      8  C   UNL     1       0.406  11.384  19.054  0.00  0.00    +0.000 A 
ATOM      9  C   UNL     1      -0.244  11.751  20.242  0.00  0.00    +0.000 A 
ATOM     10  C   UNL     1      -0.233  10.867  21.340  0.00  0.00    +0.000 A 
ATOM     11  C   UNL     1      -0.765  10.916  22.659  0.00  0.00    +0.000 A 
ATOM     12  C   UNL     1      -0.429   9.740  23.291  0.00  0.00    +0.000 A 
ATOM     13  N   UNL     1       0.281   8.972  22.404  0.00  0.00    +0.000 N 
ATOM     14  C   UNL     1       0.421   9.643  21.209  0.00  0.00    +0.000 A 
ATOM     15  C   UNL     1       1.076   9.262  20.033  0.00  0.00    +0.000 A 
ATOM     16  N   UNL     1       1.678   8.052  20.043  0.00  0.00    +0.000 NA
ATOM     17  H   UNL     1       3.574   6.275  18.057  0.00  0.00    +0.000 HD
ATOM     18  H   UNL     1       0.663   8.050  22.569  0.00  0.00    +0.000 HD
ENDROOT
BRANCH   1  19
ATOM     19  C   UNL     1       3.843   4.293  19.543  0.00  0.00    +0.000 C 
BRANCH  19  20
ATOM     20  C   UNL     1       4.271   4.255  18.078  0.00  0.00    +0.000 C 
BRANCH  20  21
ATOM     21  C   UNL     1       3.870   2.954  17.371  0.00  0.00    +0.000 C 
BRANCH  21  22
ATOM     22  C   UNL     1       3.218   1.909  18.277  0.00  0.00    +0.000 C 
BRANCH  22  23
ATOM     23  N   UNL     1       4.070   0.733  18.434  0.00  0.00    +0.000 NA
ATOM     24  H   UNL     1       3.841   0.058  17.705  0.00  0.00    +0.000 HD
ATOM     25  H   UNL     1       3.841   0.274  19.317  0.00  0.00    +0.000 HD
ENDBRANCH  22  23
ENDBRANCH  21  22
ENDBRANCH  20  21
ENDBRANCH  19  20
ENDBRANCH   1  19
TORSDOF 5
ENDMDL
MODEL 7
REMARK VINA RESULT:      -7.1      4.135      8.224
REMARK  Name = 
REMARK  5 active torsions:
REMARK  status: ('A' for Active; 'I' for Inactive)
REMARK    1  A    between atoms: N_1  and  C_2
REMARK    2  A    between atoms: C_2  and  C_3
REMARK    3  A    between atoms: C_3  and  C_4
REMARK    4  A    between atoms: C_4  and  C_5
REMARK    5  A    between atoms: C_5  and  C_6
REMARK                            x       y       z     vdW  Elec       q    Type
REMARK                         _______ _______ _______ _____ _____    ______ ____
ROOT
ATOM      1  C   UNL     1       1.142   9.275  19.847  0.00  0.00    +0.000 C 
ATOM      2  O   UNL     1       0.901   8.573  20.823  0.00  0.00    +0.000 OA
ATOM      3  N   UNL     1       1.944   8.960  18.767  0.00  0.00    +0.000 N 
ATOM      4  C   UNL     1       2.524   7.705  18.537  0.00  0.00    +0.000 A 
ATOM      5  C   UNL     1       3.462   7.614  17.508  0.00  0.00    +0.000 A 
ATOM      6  C   UNL     1       4.063   6.383  17.231  0.00  0.00    +0.000 A 
ATOM      7  C   UNL     1       3.700   5.255  17.972  0.00  0.00    +0.000 A 
ATOM      8  C   UNL     1       4.238   3.980  17.757  0.00  0.00    +0.000 A 
ATOM      9  C   UNL     1       3.814   2.883  18.522  0.00  0.00    +0.000 A 
ATOM     10  C   UNL     1       2.839   3.072  19.523  0.00  0.00    +0.000 A 
ATOM     11  C   UNL     1       2.190   2.210  20.451  0.00  0.00    +0.000 A 
ATOM     12  C   UNL     1       1.314   2.973  21.190  0.00  0.00    +0.000 A 
ATOM     13  N   UNL     1       1.409   4.268  20.751  0.00  0.00    +0.000 N 
ATOM     14  C   UNL     1       2.327   4.352  19.728  0.00  0.00    +0.000 A 
ATOM     15  C   UNL     1       2.737   5.456  18.973  0.00  0.00    +0.000 A 
ATOM     16  N   UNL     1       2.154   6.639  19.269  0.00  0.00    +0.000 NA
ATOM     17  H   UNL     1       2.164   9.698  18.113  0.00  0.00    +0.000 HD
ATOM     18  H   UNL     1       0.895   5.068  21.100  0.00  0.00    +0.000 HD
ENDROOT
BRANCH   1  19
ATOM     19  C   UNL     1       0.558  10.675  19.749  0.00  0.00    +0.000 C 
BRANCH  19  20
ATOM     20  C   UNL     1       0.499  11.350  21.116  0.00  0.00    +0.000 C 
BRANCH  20  21
ATOM     21  C   UNL     1      -0.920  11.408  21.695  0.00  0.00    +0.000 C 
BRANCH  21  22
ATOM     22  C   UNL     1      -1.079  10.750  23.066  0.00  0.00    +0.000 C 
BRANCH  22  23
ATOM     23  N   UNL     1       0.105   9.974  23.425  0.00  0.00    +0.000 NA
ATOM     24  H   UNL     1       0.238   9.234  22.735  0.00  0.00    +0.000 HD
ATOM     25  H   UNL     1      -0.068   9.496  24.311  0.00  0.00    +0.000 HD
ENDBRANCH  22  23
ENDBRANCH  21  22
ENDBRANCH  20  21
ENDBRANCH  19  20
ENDBRANCH   1  19
TORSDOF 5
ENDMDL
MODEL 8
REMARK VINA RESULT:      -7.0      3.425      5.437
REMARK  Name = 
REMARK  5 active torsions:
REMARK  status: ('A' for Active; 'I' for Inactive)
REMARK    1  A    between atoms: N_1  and  C_2
REMARK    2  A    between atoms: C_2  and  C_3
REMARK    3  A    between atoms: C_3  and  C_4
REMARK    4  A    between atoms: C_4  and  C_5
REMARK    5  A    between atoms: C_5  and  C_6
REMARK                            x       y       z     vdW  Elec       q    Type
REMARK                         _______ _______ _______ _____ _____    ______ ____
ROOT
ATOM      1  C   UNL     1       2.815   5.430  19.870  0.00  0.00    +0.000 C 
ATOM      2  O   UNL     1       2.047   5.414  20.827  0.00  0.00    +0.000 OA
ATOM      3  N   UNL     1       2.937   6.418  18.912  0.00  0.00    +0.000 N 
ATOM      4  C   UNL     1       2.282   7.657  18.950  0.00  0.00    +0.000 A 
ATOM      5  C   UNL     1       2.362   8.456  17.808  0.00  0.00    +0.000 A 
ATOM      6  C   UNL     1       1.735   9.705  17.797  0.00  0.00    +0.000 A 
ATOM      7  C   UNL     1       1.057  10.148  18.935  0.00  0.00    +0.000 A 
ATOM      8  C   UNL     1       0.411  11.388  19.021  0.00  0.00    +0.000 A 
ATOM      9  C   UNL     1      -0.234  11.782  20.203  0.00  0.00    +0.000 A 
ATOM     10  C   UNL     1      -0.236  10.914  21.314  0.00  0.00    +0.000 A 
ATOM     11  C   UNL     1      -0.768  10.991  22.632  0.00  0.00    +0.000 A 
ATOM     12  C   UNL     1      -0.449   9.819  23.281  0.00  0.00    +0.000 A 
ATOM     13  N   UNL     1       0.251   9.029  22.406  0.00  0.00    +0.000 N 
ATOM     14  C   UNL     1       0.401   9.679  21.202  0.00  0.00    +0.000 A 
ATOM     15  C   UNL     1       1.051   9.272  20.032  0.00  0.00    +0.000 A 
ATOM     16  N   UNL     1       1.636   8.054  20.060  0.00  0.00    +0.000 NA
ATOM     17  H   UNL     1       3.508   6.221  18.102  0.00  0.00    +0.000 HD
ATOM     18  H   UNL     1       0.620   8.103  22.585  0.00  0.00    +0.000 HD
ENDROOT
BRANCH   1  19
ATOM     19  C   UNL     1       3.748   4.258  19.618  0.00  0.00    +0.000 C 
BRANCH  19  20
ATOM     20  C   UNL     1       4.627   4.499  18.393  0.00  0.00    +0.000 C 
BRANCH  20  21
ATOM     21  C   UNL     1       6.106   4.697  18.748  0.00  0.00    +0.000 C 
BRANCH  21  22
ATOM     22  C   UNL     1       6.979   5.192  17.594  0.00  0.00    +0.000 C 
BRANCH  22  23
ATOM     23  N   UNL     1       7.988   4.202  17.226  0.00  0.00    +0.000 NA
ATOM     24  H   UNL     1       8.803   4.319  17.830  0.00  0.00    +0.000 HD
ATOM     25  H   UNL     1       8.316   4.399  16.279  0.00  0.00    +0.000 HD
ENDBRANCH  22  23
ENDBRANCH  21  22
ENDBRANCH  20  21
ENDBRANCH  19  20
ENDBRANCH   1  19
TORSDOF 5
ENDMDL
MODEL 9
REMARK VINA RESULT:      -7.0      2.779      7.307
REMARK  Name = 
REMARK  5 active torsions:
REMARK  status: ('A' for Active; 'I' for Inactive)
REMARK    1  A    between atoms: N_1  and  C_2
REMARK    2  A    between atoms: C_2  and  C_3
REMARK    3  A    between atoms: C_3  and  C_4
REMARK    4  A    between atoms: C_4  and  C_5
REMARK    5  A    between atoms: C_5  and  C_6
REMARK                            x       y       z     vdW  Elec       q    Type
REMARK                         _______ _______ _______ _____ _____    ______ ____
ROOT
ATOM      1  C   UNL     1       1.563   9.630  18.532  0.00  0.00    +0.000 C 
ATOM      2  O   UNL     1       1.995   9.464  17.395  0.00  0.00    +0.000 OA
ATOM      3  N   UNL     1       1.504   8.696  19.549  0.00  0.00    +0.000 N 
ATOM      4  C   UNL     1       2.063   7.413  19.493  0.00  0.00    +0.000 A 
ATOM      5  C   UNL     1       1.743   6.532  20.527  0.00  0.00    +0.000 A 
ATOM      6  C   UNL     1       2.281   5.242  20.524  0.00  0.00    +0.000 A 
ATOM      7  C   UNL     1       3.151   4.859  19.500  0.00  0.00    +0.000 A 
ATOM      8  C   UNL     1       3.749   3.594  19.421  0.00  0.00    +0.000 A 
ATOM      9  C   UNL     1       4.631   3.280  18.376  0.00  0.00    +0.000 A 
ATOM     10  C   UNL     1       4.913   4.249  17.392  0.00  0.00    +0.000 A 
ATOM     11  C   UNL     1       5.740   4.276  16.234  0.00  0.00    +0.000 A 
ATOM     12  C   UNL     1       5.609   5.519  15.655  0.00  0.00    +0.000 A 
ATOM     13  N   UNL     1       4.729   6.247  16.412  0.00  0.00    +0.000 N 
ATOM     14  C   UNL     1       4.297   5.497  17.483  0.00  0.00    +0.000 A 
ATOM     15  C   UNL     1       3.417   5.827  18.518  0.00  0.00    +0.000 A 
ATOM     16  N   UNL     1       2.895   7.074  18.492  0.00  0.00    +0.000 NA
ATOM     17  H   UNL     1       0.987   8.940  20.382  0.00  0.00    +0.000 HD
ATOM     18  H   UNL     1       4.422   7.197  16.242  0.00  0.00    +0.000 HD
ENDROOT
BRANCH   1  19
ATOM     19  C   UNL     1       0.980  10.972  18.940  0.00  0.00    +0.000 C 
BRANCH  19  20
ATOM     20  C   UNL     1      -0.447  10.825  19.460  0.00  0.00    +0.000 C 
BRANCH  20  21
ATOM     21  C   UNL     1      -1.449  10.452  18.361  0.00  0.00    +0.000 C 
BRANCH  21  22
ATOM     22  C   UNL     1      -2.161  11.642  17.714  0.00  0.00    +0.000 C 
BRANCH  22  23
ATOM     23  N   UNL     1      -2.246  11.488  16.264  0.00  0.00    +0.000 NA
ATOM     24  H   UNL     1      -2.744  10.624  16.051  0.00  0.00    +0.000 HD
ATOM     25  H   UNL     1      -1.305  11.364  15.888  0.00  0.00    +0.000 HD
ENDBRANCH  22  23
ENDBRANCH  21  22
ENDBRANCH  20  21
ENDBRANCH  19  20
ENDBRANCH   1  19
TORSDOF 5
ENDMDL
