MODEL 1
REMARK VINA RESULT:      -6.0      0.000      0.000
REMARK  Name = 
REMARK  1 active torsions:
REMARK  status: ('A' for Active; 'I' for Inactive)
REMARK    1  A    between atoms: O_1  and  N_2
REMARK                            x       y       z     vdW  Elec       q    Type
REMARK                         _______ _______ _______ _____ _____    ______ ____
ROOT
ATOM      1  N   UNL     1       7.131   5.359  20.097  0.00  0.00    +0.000 NA
ATOM      2  C   UNL     1       6.368   5.205  19.055  0.00  0.00    +0.000 C 
ATOM      3  C   UNL     1       4.854   5.313  19.257  0.00  0.00    +0.000 C 
ATOM      4  C   UNL     1       4.203   6.091  18.102  0.00  0.00    +0.000 C 
ATOM      5  C   UNL     1       4.450   5.417  16.738  0.00  0.00    +0.000 C 
ATOM      6  C   UNL     1       5.875   5.034  16.609  0.00  0.00    +0.000 A 
ATOM      7  N   UNL     1       6.474   4.724  15.463  0.00  0.00    +0.000 NA
ATOM      8  O   UNL     1       7.789   4.425  15.839  0.00  0.00    +0.000 OA
ATOM      9  N   UNL     1       7.968   4.554  17.219  0.00  0.00    +0.000 NA
ATOM     10  C   UNL     1       6.777   4.935  17.683  0.00  0.00    +0.000 A 
ENDROOT
BRANCH   1  11
ATOM     11  O   UNL     1       8.493   5.294  19.796  0.00  0.00    +0.000 OA
ATOM     12  H   UNL     1       8.770   4.456  20.211  0.00  0.00    +0.000 HD
ENDBRANCH   1  11
TORSDOF 1
ENDMDL
MODEL 2
REMARK VINA RESULT:      -5.9      4.905      5.785
REMARK  Name = 
REMARK  1 active torsions:
REMARK  status: ('A' for Active; 'I' for Inactive)
REMARK    1  A    between atoms: O_1  and  N_2
REMARK                            x       y       z     vdW  Elec       q    Type
REMARK                         _______ _______ _______ _____ _____    ______ ____
ROOT
ATOM      1  N   UNL     1       5.197   1.849  20.096  0.00  0.00    +0.000 NA
ATOM      2  C   UNL     1       4.048   2.334  19.726  0.00  0.00    +0.000 C 
ATOM      3  C   UNL     1       3.882   2.732  18.257  0.00  0.00    +0.000 C 
ATOM      4  C   UNL     1       2.500   2.314  17.730  0.00  0.00    +0.000 C 
ATOM      5  C   UNL     1       1.354   2.968  18.528  0.00  0.00    +0.000 C 
ATOM      6  C   UNL     1       1.615   2.852  19.982  0.00  0.00    +0.000 A 
ATOM      7  N   UNL     1       0.699   3.029  20.930  0.00  0.00    +0.000 NA
ATOM      8  O   UNL     1       1.407   2.833  22.122  0.00  0.00    +0.000 OA
ATOM      9  N   UNL     1       2.751   2.544  21.878  0.00  0.00    +0.000 NA
ATOM     10  C   UNL     1       2.866   2.555  20.549  0.00  0.00    +0.000 A 
ENDROOT
BRANCH   1  11
ATOM     11  O   UNL     1       5.226   1.470  21.440  0.00  0.00    +0.000 OA
ATOM     12  H   UNL     1       5.704   0.621  21.418  0.00  0.00    +0.000 HD
ENDBRANCH   1  11
TORSDOF 1
ENDMDL
MODEL 3
REMARK VINA RESULT:      -5.8      4.226      4.726
REMARK  Name = 
REMARK  1 active torsions:
REMARK  status: ('A' for Active; 'I' for Inactive)
REMARK    1  A    between atoms: O_1  and  N_2
REMARK                            x       y       z     vdW  Elec       q    Type
REMARK                         _______ _______ _______ _____ _____    ______ ____
ROOT
ATOM      1  N   UNL     1       4.982   2.870  20.098  0.00  0.00    +0.000 NA
ATOM      2  C   UNL     1       3.687   2.884  19.985  0.00  0.00    +0.000 C 
ATOM      3  C   UNL     1       2.859   2.536  21.226  0.00  0.00    +0.000 C 
ATOM      4  C   UNL     1       1.639   3.464  21.346  0.00  0.00    +0.000 C 
ATOM      5  C   UNL     1       0.713   3.364  20.118  0.00  0.00    +0.000 C 
ATOM      6  C   UNL     1       1.512   3.415  18.872  0.00  0.00    +0.000 A 
ATOM      7  N   UNL     1       1.013   3.661  17.664  0.00  0.00    +0.000 NA
ATOM      8  O   UNL     1       2.127   3.593  16.819  0.00  0.00    +0.000 OA
ATOM      9  N   UNL     1       3.292   3.299  17.531  0.00  0.00    +0.000 NA
ATOM     10  C   UNL     1       2.898   3.195  18.801  0.00  0.00    +0.000 A 
ENDROOT
BRANCH   1  11
ATOM     11  O   UNL     1       5.641   3.251  18.927  0.00  0.00    +0.000 OA
ATOM     12  H   UNL     1       4.953   3.739  18.438  0.00  0.00    +0.000 HD
ENDBRANCH   1  11
TORSDOF 1
ENDMDL
MODEL 4
REMARK VINA RESULT:      -5.7      4.611      4.896
REMARK  Name = 
REMARK  1 active torsions:
REMARK  status: ('A' for Active; 'I' for Inactive)
REMARK    1  A    between atoms: O_1  and  N_2
REMARK                            x       y       z     vdW  Elec       q    Type
REMARK                         _______ _______ _______ _____ _____    ______ ____
ROOT
ATOM      1  N   UNL     1       4.489   2.004  20.940  0.00  0.00    +0.000 NA
ATOM      2  C   UNL     1       3.371   2.559  20.574  0.00  0.00    +0.000 C 
ATOM      3  C   UNL     1       2.498   3.188  21.663  0.00  0.00    +0.000 C 
ATOM      4  C   UNL     1       1.904   4.523  21.184  0.00  0.00    +0.000 C 
ATOM      5  C   UNL     1       1.033   4.350  19.924  0.00  0.00    +0.000 C 
ATOM      6  C   UNL     1       1.733   3.498  18.934  0.00  0.00    +0.000 A 
ATOM      7  N   UNL     1       1.406   3.409  17.648  0.00  0.00    +0.000 NA
ATOM      8  O   UNL     1       2.326   2.491  17.129  0.00  0.00    +0.000 OA
ATOM      9  N   UNL     1       3.200   2.029  18.116  0.00  0.00    +0.000 NA
ATOM     10  C   UNL     1       2.825   2.662  19.228  0.00  0.00    +0.000 A 
ENDROOT
BRANCH   1  11
ATOM     11  O   UNL     1       5.233   1.507  19.867  0.00  0.00    +0.000 OA
ATOM     12  H   UNL     1       6.105   1.335  20.266  0.00  0.00    +0.000 HD
ENDBRANCH   1  11
TORSDOF 1
ENDMDL
MODEL 5
REMARK VINA RESULT:      -5.6      2.126      3.066
REMARK  Name = 
REMARK  1 active torsions:
REMARK  status: ('A' for Active; 'I' for Inactive)
REMARK    1  A    between atoms: O_1  and  N_2
REMARK                            x       y       z     vdW  Elec       q    Type
REMARK                         _______ _______ _______ _____ _____    ______ ____
ROOT
ATOM      1  N   UNL     1       3.380   4.939  18.832  0.00  0.00    +0.000 NA
ATOM      2  C   UNL     1       4.421   4.592  18.134  0.00  0.00    +0.000 C 
ATOM      3  C   UNL     1       4.180   3.917  16.781  0.00  0.00    +0.000 C 
ATOM      4  C   UNL     1       5.164   4.444  15.724  0.00  0.00    +0.000 C 
ATOM      5  C   UNL     1       6.631   4.189  16.122  0.00  0.00    +0.000 C 
ATOM      6  C   UNL     1       6.849   4.573  17.537  0.00  0.00    +0.000 A 
ATOM      7  N   UNL     1       8.042   4.768  18.091  0.00  0.00    +0.000 NA
ATOM      8  O   UNL     1       7.746   5.095  19.421  0.00  0.00    +0.000 OA
ATOM      9  N   UNL     1       6.370   5.086  19.655  0.00  0.00    +0.000 NA
ATOM     10  C   UNL     1       5.825   4.765  18.481  0.00  0.00    +0.000 A 
ENDROOT
BRANCH   1  11
ATOM     11  O   UNL     1       3.709   5.592  20.022  0.00  0.00    +0.000 OA
ATOM     12  H   UNL     1       2.890   6.073  20.242  0.00  0.00    +0.000 HD
ENDBRANCH   1  11
TORSDOF 1
ENDMDL
MODEL 6
REMARK VINA RESULT:      -5.6      2.217      2.723
REMARK  Name = 
REMARK  1 active torsions:
REMARK  status: ('A' for Active; 'I' for Inactive)
REMARK    1  A    between atoms: O_1  and  N_2
REMARK                            x       y       z     vdW  Elec       q    Type
REMARK                         _______ _______ _______ _____ _____    ______ ____
ROOT
ATOM      1  N   UNL     1       7.940   6.038  19.107  0.00  0.00    +0.000 NA
ATOM      2  C   UNL     1       7.066   5.656  18.224  0.00  0.00    +0.000 C 
ATOM      3  C   UNL     1       7.153   6.268  16.823  0.00  0.00    +0.000 C 
ATOM      4  C   UNL     1       6.902   5.201  15.745  0.00  0.00    +0.000 C 
ATOM      5  C   UNL     1       5.512   4.549  15.888  0.00  0.00    +0.000 C 
ATOM      6  C   UNL     1       5.262   4.188  17.303  0.00  0.00    +0.000 A 
ATOM      7  N   UNL     1       4.316   3.348  17.713  0.00  0.00    +0.000 NA
ATOM      8  O   UNL     1       4.457   3.335  19.106  0.00  0.00    +0.000 OA
ATOM      9  N   UNL     1       5.490   4.178  19.523  0.00  0.00    +0.000 NA
ATOM     10  C   UNL     1       5.983   4.697  18.398  0.00  0.00    +0.000 A 
ENDROOT
BRANCH   1  11
ATOM     11  O   UNL     1       7.805   5.383  20.334  0.00  0.00    +0.000 OA
ATOM     12  H   UNL     1       7.307   4.579  20.099  0.00  0.00    +0.000 HD
ENDBRANCH   1  11
TORSDOF 1
ENDMDL
MODEL 7
REMARK VINA RESULT:      -5.6      3.392      3.918
REMARK  Name = 
REMARK  1 active torsions:
REMARK  status: ('A' for Active; 'I' for Inactive)
REMARK    1  A    between atoms: O_1  and  N_2
REMARK                            x       y       z     vdW  Elec       q    Type
REMARK                         _______ _______ _______ _____ _____    ______ ____
ROOT
ATOM      1  N   UNL     1       3.956   1.282  19.048  0.00  0.00    +0.000 NA
ATOM      2  C   UNL     1       3.576   2.443  18.602  0.00  0.00    +0.000 C 
ATOM      3  C   UNL     1       2.288   2.503  17.775  0.00  0.00    +0.000 C 
ATOM      4  C   UNL     1       1.451   3.735  18.154  0.00  0.00    +0.000 C 
ATOM      5  C   UNL     1       2.221   5.050  17.924  0.00  0.00    +0.000 C 
ATOM      6  C   UNL     1       3.594   4.940  18.470  0.00  0.00    +0.000 A 
ATOM      7  N   UNL     1       4.397   5.973  18.709  0.00  0.00    +0.000 NA
ATOM      8  O   UNL     1       5.569   5.383  19.197  0.00  0.00    +0.000 OA
ATOM      9  N   UNL     1       5.461   3.991  19.240  0.00  0.00    +0.000 NA
ATOM     10  C   UNL     1       4.232   3.730  18.791  0.00  0.00    +0.000 A 
ENDROOT
BRANCH   1  11
ATOM     11  O   UNL     1       5.110   1.346  19.832  0.00  0.00    +0.000 OA
ATOM     12  H   UNL     1       5.631   0.584  19.518  0.00  0.00    +0.000 HD
ENDBRANCH   1  11
TORSDOF 1
ENDMDL
MODEL 8
REMARK VINA RESULT:      -5.5      3.853      5.116
REMARK  Name = 
REMARK  1 active torsions:
REMARK  status: ('A' for Active; 'I' for Inactive)
REMARK    1  A    between atoms: O_1  and  N_2
REMARK                            x       y       z     vdW  Elec       q    Type
REMARK                         _______ _______ _______ _____ _____    ______ ____
ROOT
ATOM      1  N   UNL     1       3.689   3.808  17.272  0.00  0.00    +0.000 NA
ATOM      2  C   UNL     1       3.139   3.681  18.443  0.00  0.00    +0.000 C 
ATOM      3  C   UNL     1       1.775   4.340  18.667  0.00  0.00    +0.000 C 
ATOM      4  C   UNL     1       0.850   3.421  19.481  0.00  0.00    +0.000 C 
ATOM      5  C   UNL     1       1.442   3.082  20.863  0.00  0.00    +0.000 C 
ATOM      6  C   UNL     1       2.867   2.701  20.728  0.00  0.00    +0.000 A 
ATOM      7  N   UNL     1       3.571   2.066  21.661  0.00  0.00    +0.000 NA
ATOM      8  O   UNL     1       4.845   1.940  21.094  0.00  0.00    +0.000 OA
ATOM      9  N   UNL     1       4.897   2.510  19.819  0.00  0.00    +0.000 NA
ATOM     10  C   UNL     1       3.665   2.974  19.603  0.00  0.00    +0.000 A 
ENDROOT
BRANCH   1  11
ATOM     11  O   UNL     1       4.903   3.128  17.157  0.00  0.00    +0.000 OA
ATOM     12  H   UNL     1       5.093   2.862  18.076  0.00  0.00    +0.000 HD
ENDBRANCH   1  11
TORSDOF 1
ENDMDL
MODEL 9
REMARK VINA RESULT:      -5.5      3.987      4.327
REMARK  Name = 
REMARK  1 active torsions:
REMARK  status: ('A' for Active; 'I' for Inactive)
REMARK    1  A    between atoms: O_1  and  N_2
REMARK                            x       y       z     vdW  Elec       q    Type
REMARK                         _______ _______ _______ _____ _____    ______ ____
ROOT
ATOM      1  N   UNL     1       5.227   3.122  19.772  0.00  0.00    +0.000 NA
ATOM      2  C   UNL     1       4.271   3.884  19.330  0.00  0.00    +0.000 C 
ATOM      3  C   UNL     1       4.476   5.400  19.403  0.00  0.00    +0.000 C 
ATOM      4  C   UNL     1       3.959   6.084  18.127  0.00  0.00    +0.000 C 
ATOM      5  C   UNL     1       2.457   5.822  17.899  0.00  0.00    +0.000 C 
ATOM      6  C   UNL     1       2.154   4.386  18.096  0.00  0.00    +0.000 A 
ATOM      7  N   UNL     1       1.042   3.784  17.682  0.00  0.00    +0.000 NA
ATOM      8  O   UNL     1       1.201   2.457  18.101  0.00  0.00    +0.000 OA
ATOM      9  N   UNL     1       2.412   2.275  18.773  0.00  0.00    +0.000 NA
ATOM     10  C   UNL     1       2.994   3.475  18.760  0.00  0.00    +0.000 A 
ENDROOT
BRANCH   1  11
ATOM     11  O   UNL     1       4.962   1.759  19.612  0.00  0.00    +0.000 OA
ATOM     12  H   UNL     1       4.162   1.627  20.153  0.00  0.00    +0.000 HD
ENDBRANCH   1  11
TORSDOF 1
ENDMDL
