MODEL 1
REMARK VINA RESULT:      -8.4      0.000      0.000
REMARK  Name = 
REMARK  7 active torsions:
REMARK  status: ('A' for Active; 'I' for Inactive)
REMARK    1  A    between atoms: C_2  and  C_4
REMARK    2  A    between atoms: C_9  and  N_10
REMARK    3  A    between atoms: N_10  and  C_11
REMARK    4  A    between atoms: C_15  and  O_16
REMARK    5  A    between atoms: O_16  and  C_17
REMARK    6  A    between atoms: C_17  and  C_18
REMARK    7  A    between atoms: C_18  and  C_19
REMARK                            x       y       z     vdW  Elec       q    Type
REMARK                         _______ _______ _______ _____ _____    ______ ____
ROOT
ATOM      1  C   UNL     1       2.512   7.011  19.555  0.00  0.00    +0.000 A 
ATOM      2  C   UNL     1       2.818   7.284  18.216  0.00  0.00    +0.000 A 
ATOM      3  C   UNL     1       2.347   8.449  17.599  0.00  0.00    +0.000 A 
ATOM      4  C   UNL     1       1.572   9.354  18.321  0.00  0.00    +0.000 A 
ATOM      5  C   UNL     1       1.321   9.136  19.675  0.00  0.00    +0.000 A 
ATOM      6  C   UNL     1       1.796   7.972  20.288  0.00  0.00    +0.000 A 
ENDROOT
BRANCH   1   7
ATOM      7  N   UNL     1       2.905   5.772  20.121  0.00  0.00    +0.000 N 
ATOM      8  H   UNL     1       3.787   5.830  20.625  0.00  0.00    +0.000 HD
BRANCH   7  14
ATOM      9  C   UNL     1       3.378   3.572  19.018  0.00  0.00    +0.000 A 
ATOM     10  C   UNL     1       2.901   2.304  18.641  0.00  0.00    +0.000 A 
ATOM     11  C   UNL     1       1.607   1.902  18.958  0.00  0.00    +0.000 A 
ATOM     12  C   UNL     1       0.775   2.756  19.666  0.00  0.00    +0.000 A 
ATOM     13  C   UNL     1       1.237   4.020  20.036  0.00  0.00    +0.000 A 
ATOM     14  C   UNL     1       2.533   4.468  19.718  0.00  0.00    +0.000 A 
BRANCH   9  16
ATOM     15  N   UNL     1       5.147   3.515  17.333  0.00  0.00    +0.000 N 
ATOM     16  C   UNL     1       4.791   3.843  18.607  0.00  0.00    +0.000 C 
ATOM     17  O   UNL     1       5.621   4.268  19.391  0.00  0.00    +0.000 OA
ATOM     18  H   UNL     1       6.152   3.482  17.179  0.00  0.00    +0.000 HD
ATOM     19  H   UNL     1       4.582   2.860  16.799  0.00  0.00    +0.000 HD
ENDBRANCH   9  16
ENDBRANCH   7  14
ENDBRANCH   1   7
BRANCH   5  20
ATOM     20  O   UNL     1       0.555  10.091  20.287  0.00  0.00    +0.000 OA
BRANCH  20  21
ATOM     21  C   UNL     1      -0.834  10.084  19.946  0.00  0.00    +0.000 C 
BRANCH  21  22
ATOM     22  C   UNL     1      -1.185  11.458  19.375  0.00  0.00    +0.000 C 
BRANCH  22  23
ATOM     23  C   UNL     1      -2.379  11.400  18.458  0.00  0.00    +0.000 A 
ATOM     24  C   UNL     1      -3.627  11.876  18.882  0.00  0.00    +0.000 A 
ATOM     25  C   UNL     1      -4.732  11.818  18.031  0.00  0.00    +0.000 A 
ATOM     26  C   UNL     1      -4.600  11.295  16.747  0.00  0.00    +0.000 A 
ATOM     27  C   UNL     1      -3.358  10.839  16.313  0.00  0.00    +0.000 A 
ATOM     28 BR   UNL     1      -3.172  10.141  14.566  0.00  0.00    +0.000 Br
ATOM     29  C   UNL     1      -2.248  10.892  17.157  0.00  0.00    +0.000 A 
ENDBRANCH  22  23
ENDBRANCH  21  22
ENDBRANCH  20  21
ENDBRANCH   5  20
TORSDOF 7
ENDMDL
MODEL 2
REMARK VINA RESULT:      -8.4      5.803      8.529
REMARK  Name = 
REMARK  7 active torsions:
REMARK  status: ('A' for Active; 'I' for Inactive)
REMARK    1  A    between atoms: C_2  and  C_4
REMARK    2  A    between atoms: C_9  and  N_10
REMARK    3  A    between atoms: N_10  and  C_11
REMARK    4  A    between atoms: C_15  and  O_16
REMARK    5  A    between atoms: O_16  and  C_17
REMARK    6  A    between atoms: C_17  and  C_18
REMARK    7  A    between atoms: C_18  and  C_19
REMARK                            x       y       z     vdW  Elec       q    Type
REMARK                         _______ _______ _______ _____ _____    ______ ____
ROOT
ATOM      1  C   UNL     1       4.998   5.793  17.762  0.00  0.00    +0.000 A 
ATOM      2  C   UNL     1       5.761   4.691  18.171  0.00  0.00    +0.000 A 
ATOM      3  C   UNL     1       7.158   4.741  18.143  0.00  0.00    +0.000 A 
ATOM      4  C   UNL     1       7.806   5.897  17.712  0.00  0.00    +0.000 A 
ATOM      5  C   UNL     1       7.065   7.028  17.373  0.00  0.00    +0.000 A 
ATOM      6  C   UNL     1       5.668   6.975  17.405  0.00  0.00    +0.000 A 
ENDROOT
BRANCH   1   7
ATOM      7  N   UNL     1       3.587   5.676  17.692  0.00  0.00    +0.000 N 
ATOM      8  H   UNL     1       3.169   6.333  17.036  0.00  0.00    +0.000 HD
BRANCH   7  14
ATOM      9  C   UNL     1       2.151   3.856  18.642  0.00  0.00    +0.000 A 
ATOM     10  C   UNL     1       1.258   3.450  19.649  0.00  0.00    +0.000 A 
ATOM     11  C   UNL     1       0.911   4.308  20.688  0.00  0.00    +0.000 A 
ATOM     12  C   UNL     1       1.460   5.580  20.742  0.00  0.00    +0.000 A 
ATOM     13  C   UNL     1       2.341   5.995  19.741  0.00  0.00    +0.000 A 
ATOM     14  C   UNL     1       2.701   5.161  18.666  0.00  0.00    +0.000 A 
BRANCH   9  16
ATOM     15  N   UNL     1       2.782   1.572  18.043  0.00  0.00    +0.000 N 
ATOM     16  C   UNL     1       2.423   2.812  17.605  0.00  0.00    +0.000 C 
ATOM     17  O   UNL     1       2.403   3.065  16.413  0.00  0.00    +0.000 OA
ATOM     18  H   UNL     1       3.192   0.981  17.324  0.00  0.00    +0.000 HD
ATOM     19  H   UNL     1       3.133   1.448  18.989  0.00  0.00    +0.000 HD
ENDBRANCH   9  16
ENDBRANCH   7  14
ENDBRANCH   1   7
BRANCH   5  20
ATOM     20  O   UNL     1       7.802   8.108  16.970  0.00  0.00    +0.000 OA
BRANCH  20  21
ATOM     21  C   UNL     1       7.735   9.257  17.819  0.00  0.00    +0.000 C 
BRANCH  21  22
ATOM     22  C   UNL     1       8.878   9.163  18.829  0.00  0.00    +0.000 C 
BRANCH  22  23
ATOM     23  C   UNL     1       9.521  10.502  19.081  0.00  0.00    +0.000 A 
ATOM     24  C   UNL     1       9.601  11.020  20.381  0.00  0.00    +0.000 A 
ATOM     25  C   UNL     1      10.194  12.263  20.611  0.00  0.00    +0.000 A 
ATOM     26  C   UNL     1      10.721  12.996  19.549  0.00  0.00    +0.000 A 
ATOM     27  C   UNL     1      10.661  12.476  18.258  0.00  0.00    +0.000 A 
ATOM     28 BR   UNL     1      11.386  13.460  16.816  0.00  0.00    +0.000 Br
ATOM     29  C   UNL     1      10.069  11.235  18.019  0.00  0.00    +0.000 A 
ENDBRANCH  22  23
ENDBRANCH  21  22
ENDBRANCH  20  21
ENDBRANCH   5  20
TORSDOF 7
ENDMDL
MODEL 3
REMARK VINA RESULT:      -8.3      5.649      8.320
REMARK  Name = 
REMARK  7 active torsions:
REMARK  status: ('A' for Active; 'I' for Inactive)
REMARK    1  A    between atoms: C_2  and  C_4
REMARK    2  A    between atoms: C_9  and  N_10
REMARK    3  A    between atoms: N_10  and  C_11
REMARK    4  A    between atoms: C_15  and  O_16
REMARK    5  A    between atoms: O_16  and  C_17
REMARK    6  A    between atoms: C_17  and  C_18
REMARK    7  A    between atoms: C_18  and  C_19
REMARK                            x       y       z     vdW  Elec       q    Type
REMARK                         _______ _______ _______ _____ _____    ______ ____
ROOT
ATOM      1  C   UNL     1       5.466   4.605  18.051  0.00  0.00    +0.000 A 
ATOM      2  C   UNL     1       5.154   4.015  16.820  0.00  0.00    +0.000 A 
ATOM      3  C   UNL     1       5.704   4.508  15.631  0.00  0.00    +0.000 A 
ATOM      4  C   UNL     1       6.578   5.593  15.667  0.00  0.00    +0.000 A 
ATOM      5  C   UNL     1       6.960   6.144  16.889  0.00  0.00    +0.000 A 
ATOM      6  C   UNL     1       6.410   5.647  18.074  0.00  0.00    +0.000 A 
ENDROOT
BRANCH   1   7
ATOM      7  N   UNL     1       4.808   4.160  19.224  0.00  0.00    +0.000 N 
ATOM      8  H   UNL     1       5.445   3.750  19.903  0.00  0.00    +0.000 HD
BRANCH   7  14
ATOM      9  C   UNL     1       2.394   4.699  19.625  0.00  0.00    +0.000 A 
ATOM     10  C   UNL     1       1.081   4.224  19.791  0.00  0.00    +0.000 A 
ATOM     11  C   UNL     1       0.795   2.865  19.704  0.00  0.00    +0.000 A 
ATOM     12  C   UNL     1       1.813   1.963  19.439  0.00  0.00    +0.000 A 
ATOM     13  C   UNL     1       3.122   2.425  19.283  0.00  0.00    +0.000 A 
ATOM     14  C   UNL     1       3.452   3.790  19.381  0.00  0.00    +0.000 A 
BRANCH   9  16
ATOM     15  N   UNL     1       1.994   6.778  20.847  0.00  0.00    +0.000 N 
ATOM     16  C   UNL     1       2.528   6.185  19.741  0.00  0.00    +0.000 C 
ATOM     17  O   UNL     1       3.023   6.860  18.855  0.00  0.00    +0.000 OA
ATOM     18  H   UNL     1       1.887   7.787  20.765  0.00  0.00    +0.000 HD
ATOM     19  H   UNL     1       1.297   6.290  21.400  0.00  0.00    +0.000 HD
ENDBRANCH   9  16
ENDBRANCH   7  14
ENDBRANCH   1   7
BRANCH   5  20
ATOM     20  O   UNL     1       7.827   7.200  16.807  0.00  0.00    +0.000 OA
BRANCH  20  21
ATOM     21  C   UNL     1       7.450   8.371  17.537  0.00  0.00    +0.000 C 
BRANCH  21  22
ATOM     22  C   UNL     1       8.618   8.755  18.444  0.00  0.00    +0.000 C 
BRANCH  22  23
ATOM     23  C   UNL     1       8.952  10.221  18.345  0.00  0.00    +0.000 A 
ATOM     24  C   UNL     1       8.115  11.096  17.639  0.00  0.00    +0.000 A 
ATOM     25  C   UNL     1       8.428  12.453  17.545  0.00  0.00    +0.000 A 
ATOM     26  C   UNL     1       9.573  12.952  18.164  0.00  0.00    +0.000 A 
ATOM     27  C   UNL     1      10.397  12.090  18.884  0.00  0.00    +0.000 A 
ATOM     28 BR   UNL     1      11.944  12.765  19.736  0.00  0.00    +0.000 Br
ATOM     29  C   UNL     1      10.092  10.732  18.981  0.00  0.00    +0.000 A 
ENDBRANCH  22  23
ENDBRANCH  21  22
ENDBRANCH  20  21
ENDBRANCH   5  20
TORSDOF 7
ENDMDL
MODEL 4
REMARK VINA RESULT:      -8.3      5.962      8.640
REMARK  Name = 
REMARK  7 active torsions:
REMARK  status: ('A' for Active; 'I' for Inactive)
REMARK    1  A    between atoms: C_2  and  C_4
REMARK    2  A    between atoms: C_9  and  N_10
REMARK    3  A    between atoms: N_10  and  C_11
REMARK    4  A    between atoms: C_15  and  O_16
REMARK    5  A    between atoms: O_16  and  C_17
REMARK    6  A    between atoms: C_17  and  C_18
REMARK    7  A    between atoms: C_18  and  C_19
REMARK                            x       y       z     vdW  Elec       q    Type
REMARK                         _______ _______ _______ _____ _____    ______ ____
ROOT
ATOM      1  C   UNL     1       5.384   5.726  17.655  0.00  0.00    +0.000 A 
ATOM      2  C   UNL     1       6.108   4.964  18.582  0.00  0.00    +0.000 A 
ATOM      3  C   UNL     1       7.372   5.380  19.016  0.00  0.00    +0.000 A 
ATOM      4  C   UNL     1       7.919   6.565  18.531  0.00  0.00    +0.000 A 
ATOM      5  C   UNL     1       7.183   7.374  17.667  0.00  0.00    +0.000 A 
ATOM      6  C   UNL     1       5.919   6.957  17.238  0.00  0.00    +0.000 A 
ENDROOT
BRANCH   1   7
ATOM      7  N   UNL     1       4.159   5.226  17.147  0.00  0.00    +0.000 N 
ATOM      8  H   UNL     1       3.825   5.747  16.339  0.00  0.00    +0.000 HD
BRANCH   7  14
ATOM      9  C   UNL     1       2.335   4.994  18.849  0.00  0.00    +0.000 A 
ATOM     10  C   UNL     1       1.397   4.157  19.479  0.00  0.00    +0.000 A 
ATOM     11  C   UNL     1       1.259   2.824  19.104  0.00  0.00    +0.000 A 
ATOM     12  C   UNL     1       2.048   2.311  18.087  0.00  0.00    +0.000 A 
ATOM     13  C   UNL     1       2.990   3.131  17.462  0.00  0.00    +0.000 A 
ATOM     14  C   UNL     1       3.169   4.479  17.826  0.00  0.00    +0.000 A 
BRANCH   9  16
ATOM     15  N   UNL     1       2.128   6.578  20.698  0.00  0.00    +0.000 N 
ATOM     16  C   UNL     1       2.349   6.398  19.364  0.00  0.00    +0.000 C 
ATOM     17  O   UNL     1       2.476   7.357  18.623  0.00  0.00    +0.000 OA
ATOM     18  H   UNL     1       1.901   7.536  20.954  0.00  0.00    +0.000 HD
ATOM     19  H   UNL     1       1.689   5.844  21.245  0.00  0.00    +0.000 HD
ENDBRANCH   9  16
ENDBRANCH   7  14
ENDBRANCH   1   7
BRANCH   5  20
ATOM     20  O   UNL     1       7.814   8.517  17.258  0.00  0.00    +0.000 OA
BRANCH  20  21
ATOM     21  C   UNL     1       8.501   9.246  18.279  0.00  0.00    +0.000 C 
BRANCH  21  22
ATOM     22  C   UNL     1       8.771  10.654  17.751  0.00  0.00    +0.000 C 
BRANCH  22  23
ATOM     23  C   UNL     1       9.385  11.543  18.802  0.00  0.00    +0.000 A 
ATOM     24  C   UNL     1       9.569  11.077  20.111  0.00  0.00    +0.000 A 
ATOM     25  C   UNL     1      10.135  11.903  21.083  0.00  0.00    +0.000 A 
ATOM     26  C   UNL     1      10.532  13.198  20.756  0.00  0.00    +0.000 A 
ATOM     27  C   UNL     1      10.370  13.660  19.452  0.00  0.00    +0.000 A 
ATOM     28 BR   UNL     1      10.920  15.411  19.002  0.00  0.00    +0.000 Br
ATOM     29  C   UNL     1       9.804  12.841  18.475  0.00  0.00    +0.000 A 
ENDBRANCH  22  23
ENDBRANCH  21  22
ENDBRANCH  20  21
ENDBRANCH   5  20
TORSDOF 7
ENDMDL
MODEL 5
REMARK VINA RESULT:      -8.2      1.180      1.503
REMARK  Name = 
REMARK  7 active torsions:
REMARK  status: ('A' for Active; 'I' for Inactive)
REMARK    1  A    between atoms: C_2  and  C_4
REMARK    2  A    between atoms: C_9  and  N_10
REMARK    3  A    between atoms: N_10  and  C_11
REMARK    4  A    between atoms: C_15  and  O_16
REMARK    5  A    between atoms: O_16  and  C_17
REMARK    6  A    between atoms: C_17  and  C_18
REMARK    7  A    between atoms: C_18  and  C_19
REMARK                            x       y       z     vdW  Elec       q    Type
REMARK                         _______ _______ _______ _____ _____    ______ ____
ROOT
ATOM      1  C   UNL     1       2.146   7.353  19.860  0.00  0.00    +0.000 A 
ATOM      2  C   UNL     1       2.351   7.512  18.483  0.00  0.00    +0.000 A 
ATOM      3  C   UNL     1       1.883   8.651  17.819  0.00  0.00    +0.000 A 
ATOM      4  C   UNL     1       1.211   9.644  18.528  0.00  0.00    +0.000 A 
ATOM      5  C   UNL     1       1.064   9.539  19.910  0.00  0.00    +0.000 A 
ATOM      6  C   UNL     1       1.536   8.400  20.571  0.00  0.00    +0.000 A 
ENDROOT
BRANCH   1   7
ATOM      7  N   UNL     1       2.528   6.140  20.486  0.00  0.00    +0.000 N 
ATOM      8  H   UNL     1       3.315   6.255  21.122  0.00  0.00    +0.000 HD
BRANCH   7  14
ATOM      9  C   UNL     1       3.287   4.022  19.384  0.00  0.00    +0.000 A 
ATOM     10  C   UNL     1       2.962   2.724  18.953  0.00  0.00    +0.000 A 
ATOM     11  C   UNL     1       1.695   2.192  19.172  0.00  0.00    +0.000 A 
ATOM     12  C   UNL     1       0.738   2.946  19.833  0.00  0.00    +0.000 A 
ATOM     13  C   UNL     1       1.048   4.240  20.255  0.00  0.00    +0.000 A 
ATOM     14  C   UNL     1       2.314   4.817  20.037  0.00  0.00    +0.000 A 
BRANCH   9  16
ATOM     15  N   UNL     1       5.647   3.463  19.077  0.00  0.00    +0.000 N 
ATOM     16  C   UNL     1       4.692   4.436  19.078  0.00  0.00    +0.000 C 
ATOM     17  O   UNL     1       4.999   5.604  18.910  0.00  0.00    +0.000 OA
ATOM     18  H   UNL     1       6.599   3.817  19.114  0.00  0.00    +0.000 HD
ATOM     19  H   UNL     1       5.472   2.578  19.544  0.00  0.00    +0.000 HD
ENDBRANCH   9  16
ENDBRANCH   7  14
ENDBRANCH   1   7
BRANCH   5  20
ATOM     20  O   UNL     1       0.394  10.573  20.506  0.00  0.00    +0.000 OA
BRANCH  20  21
ATOM     21  C   UNL     1      -1.020  10.601  20.294  0.00  0.00    +0.000 C 
BRANCH  21  22
ATOM     22  C   UNL     1      -1.337  11.798  19.398  0.00  0.00    +0.000 C 
BRANCH  22  23
ATOM     23  C   UNL     1      -2.349  11.455  18.335  0.00  0.00    +0.000 A 
ATOM     24  C   UNL     1      -1.983  10.676  17.229  0.00  0.00    +0.000 A 
ATOM     25  C   UNL     1      -2.921  10.363  16.244  0.00  0.00    +0.000 A 
ATOM     26  C   UNL     1      -4.234  10.816  16.358  0.00  0.00    +0.000 A 
ATOM     27  C   UNL     1      -4.608  11.574  17.465  0.00  0.00    +0.000 A 
ATOM     28 BR   UNL     1      -6.391  12.178  17.630  0.00  0.00    +0.000 Br
ATOM     29  C   UNL     1      -3.676  11.892  18.454  0.00  0.00    +0.000 A 
ENDBRANCH  22  23
ENDBRANCH  21  22
ENDBRANCH  20  21
ENDBRANCH   5  20
TORSDOF 7
ENDMDL
MODEL 6
REMARK VINA RESULT:      -8.2      2.830      4.974
REMARK  Name = 
REMARK  7 active torsions:
REMARK  status: ('A' for Active; 'I' for Inactive)
REMARK    1  A    between atoms: C_2  and  C_4
REMARK    2  A    between atoms: C_9  and  N_10
REMARK    3  A    between atoms: N_10  and  C_11
REMARK    4  A    between atoms: C_15  and  O_16
REMARK    5  A    between atoms: O_16  and  C_17
REMARK    6  A    between atoms: C_17  and  C_18
REMARK    7  A    between atoms: C_18  and  C_19
REMARK                            x       y       z     vdW  Elec       q    Type
REMARK                         _______ _______ _______ _____ _____    ______ ____
ROOT
ATOM      1  C   UNL     1       4.097   3.685  19.805  0.00  0.00    +0.000 A 
ATOM      2  C   UNL     1       3.606   2.501  20.369  0.00  0.00    +0.000 A 
ATOM      3  C   UNL     1       2.408   2.498  21.093  0.00  0.00    +0.000 A 
ATOM      4  C   UNL     1       1.689   3.681  21.253  0.00  0.00    +0.000 A 
ATOM      5  C   UNL     1       2.123   4.852  20.635  0.00  0.00    +0.000 A 
ATOM      6  C   UNL     1       3.318   4.850  19.910  0.00  0.00    +0.000 A 
ENDROOT
BRANCH   1   7
ATOM      7  N   UNL     1       5.367   3.683  19.176  0.00  0.00    +0.000 N 
ATOM      8  H   UNL     1       6.131   3.522  19.829  0.00  0.00    +0.000 HD
BRANCH   7  14
ATOM      9  C   UNL     1       6.686   5.348  17.846  0.00  0.00    +0.000 A 
ATOM     10  C   UNL     1       6.969   5.906  16.587  0.00  0.00    +0.000 A 
ATOM     11  C   UNL     1       6.348   5.433  15.436  0.00  0.00    +0.000 A 
ATOM     12  C   UNL     1       5.442   4.387  15.524  0.00  0.00    +0.000 A 
ATOM     13  C   UNL     1       5.147   3.833  16.770  0.00  0.00    +0.000 A 
ATOM     14  C   UNL     1       5.743   4.297  17.959  0.00  0.00    +0.000 A 
BRANCH   9  16
ATOM     15  N   UNL     1       8.193   7.071  18.700  0.00  0.00    +0.000 N 
ATOM     16  C   UNL     1       7.445   5.966  18.977  0.00  0.00    +0.000 C 
ATOM     17  O   UNL     1       7.464   5.468  20.090  0.00  0.00    +0.000 OA
ATOM     18  H   UNL     1       8.873   7.302  19.421  0.00  0.00    +0.000 HD
ATOM     19  H   UNL     1       8.456   7.281  17.742  0.00  0.00    +0.000 HD
ENDBRANCH   9  16
ENDBRANCH   7  14
ENDBRANCH   1   7
BRANCH   5  20
ATOM     20  O   UNL     1       1.337   5.952  20.853  0.00  0.00    +0.000 OA
BRANCH  20  21
ATOM     21  C   UNL     1       1.840   7.186  20.334  0.00  0.00    +0.000 C 
BRANCH  21  22
ATOM     22  C   UNL     1       1.478   8.294  21.323  0.00  0.00    +0.000 C 
BRANCH  22  23
ATOM     23  C   UNL     1       0.653   9.378  20.678  0.00  0.00    +0.000 A 
ATOM     24  C   UNL     1       0.716   9.595  19.295  0.00  0.00    +0.000 A 
ATOM     25  C   UNL     1      -0.047  10.602  18.701  0.00  0.00    +0.000 A 
ATOM     26  C   UNL     1      -0.887  11.395  19.480  0.00  0.00    +0.000 A 
ATOM     27  C   UNL     1      -0.968  11.171  20.852  0.00  0.00    +0.000 A 
ATOM     28 BR   UNL     1      -2.117  12.237  21.910  0.00  0.00    +0.000 Br
ATOM     29  C   UNL     1      -0.209  10.167  21.454  0.00  0.00    +0.000 A 
ENDBRANCH  22  23
ENDBRANCH  21  22
ENDBRANCH  20  21
ENDBRANCH   5  20
TORSDOF 7
ENDMDL
MODEL 7
REMARK VINA RESULT:      -8.2      3.075      5.061
REMARK  Name = 
REMARK  7 active torsions:
REMARK  status: ('A' for Active; 'I' for Inactive)
REMARK    1  A    between atoms: C_2  and  C_4
REMARK    2  A    between atoms: C_9  and  N_10
REMARK    3  A    between atoms: N_10  and  C_11
REMARK    4  A    between atoms: C_15  and  O_16
REMARK    5  A    between atoms: O_16  and  C_17
REMARK    6  A    between atoms: C_17  and  C_18
REMARK    7  A    between atoms: C_18  and  C_19
REMARK                            x       y       z     vdW  Elec       q    Type
REMARK                         _______ _______ _______ _____ _____    ______ ____
ROOT
ATOM      1  C   UNL     1       3.955   3.891  19.669  0.00  0.00    +0.000 A 
ATOM      2  C   UNL     1       3.368   2.703  20.122  0.00  0.00    +0.000 A 
ATOM      3  C   UNL     1       2.113   2.717  20.741  0.00  0.00    +0.000 A 
ATOM      4  C   UNL     1       1.432   3.921  20.906  0.00  0.00    +0.000 A 
ATOM      5  C   UNL     1       1.966   5.103  20.394  0.00  0.00    +0.000 A 
ATOM      6  C   UNL     1       3.219   5.083  19.773  0.00  0.00    +0.000 A 
ENDROOT
BRANCH   1   7
ATOM      7  N   UNL     1       5.274   3.863  19.150  0.00  0.00    +0.000 N 
ATOM      8  H   UNL     1       5.982   3.789  19.876  0.00  0.00    +0.000 HD
BRANCH   7  14
ATOM      9  C   UNL     1       6.829   5.257  17.766  0.00  0.00    +0.000 A 
ATOM     10  C   UNL     1       7.195   5.717  16.489  0.00  0.00    +0.000 A 
ATOM     11  C   UNL     1       6.510   5.299  15.352  0.00  0.00    +0.000 A 
ATOM     12  C   UNL     1       5.457   4.406  15.474  0.00  0.00    +0.000 A 
ATOM     13  C   UNL     1       5.080   3.951  16.739  0.00  0.00    +0.000 A 
ATOM     14  C   UNL     1       5.739   4.366  17.912  0.00  0.00    +0.000 A 
BRANCH   9  16
ATOM     15  N   UNL     1       8.191   7.048  18.720  0.00  0.00    +0.000 N 
ATOM     16  C   UNL     1       7.672   5.797  18.878  0.00  0.00    +0.000 C 
ATOM     17  O   UNL     1       7.956   5.129  19.856  0.00  0.00    +0.000 OA
ATOM     18  H   UNL     1       8.943   7.269  19.368  0.00  0.00    +0.000 HD
ATOM     19  H   UNL     1       8.251   7.462  17.794  0.00  0.00    +0.000 HD
ENDBRANCH   9  16
ENDBRANCH   7  14
ENDBRANCH   1   7
BRANCH   5  20
ATOM     20  O   UNL     1       1.211   6.224  20.606  0.00  0.00    +0.000 OA
BRANCH  20  21
ATOM     21  C   UNL     1       1.942   7.429  20.846  0.00  0.00    +0.000 C 
BRANCH  21  22
ATOM     22  C   UNL     1       1.250   8.559  20.085  0.00  0.00    +0.000 C 
BRANCH  22  23
ATOM     23  C   UNL     1       0.433   9.437  20.998  0.00  0.00    +0.000 A 
ATOM     24  C   UNL     1       0.339   9.149  22.367  0.00  0.00    +0.000 A 
ATOM     25  C   UNL     1      -0.421   9.962  23.210  0.00  0.00    +0.000 A 
ATOM     26  C   UNL     1      -1.086  11.075  22.697  0.00  0.00    +0.000 A 
ATOM     27  C   UNL     1      -0.979  11.376  21.342  0.00  0.00    +0.000 A 
ATOM     28 BR   UNL     1      -1.868  12.892  20.646  0.00  0.00    +0.000 Br
ATOM     29  C   UNL     1      -0.222  10.569  20.492  0.00  0.00    +0.000 A 
ENDBRANCH  22  23
ENDBRANCH  21  22
ENDBRANCH  20  21
ENDBRANCH   5  20
TORSDOF 7
ENDMDL
MODEL 8
REMARK VINA RESULT:      -8.2      5.819      8.681
REMARK  Name = 
REMARK  7 active torsions:
REMARK  status: ('A' for Active; 'I' for Inactive)
REMARK    1  A    between atoms: C_2  and  C_4
REMARK    2  A    between atoms: C_9  and  N_10
REMARK    3  A    between atoms: N_10  and  C_11
REMARK    4  A    between atoms: C_15  and  O_16
REMARK    5  A    between atoms: O_16  and  C_17
REMARK    6  A    between atoms: C_17  and  C_18
REMARK    7  A    between atoms: C_18  and  C_19
REMARK                            x       y       z     vdW  Elec       q    Type
REMARK                         _______ _______ _______ _____ _____    ______ ____
ROOT
ATOM      1  C   UNL     1       5.993   4.694  18.455  0.00  0.00    +0.000 A 
ATOM      2  C   UNL     1       5.991   4.506  17.067  0.00  0.00    +0.000 A 
ATOM      3  C   UNL     1       6.709   5.366  16.228  0.00  0.00    +0.000 A 
ATOM      4  C   UNL     1       7.440   6.419  16.774  0.00  0.00    +0.000 A 
ATOM      5  C   UNL     1       7.515   6.576  18.157  0.00  0.00    +0.000 A 
ATOM      6  C   UNL     1       6.799   5.713  18.991  0.00  0.00    +0.000 A 
ENDROOT
BRANCH   1   7
ATOM      7  N   UNL     1       5.167   3.879  19.269  0.00  0.00    +0.000 N 
ATOM      8  H   UNL     1       5.699   3.222  19.837  0.00  0.00    +0.000 HD
BRANCH   7  14
ATOM      9  C   UNL     1       2.742   4.468  19.044  0.00  0.00    +0.000 A 
ATOM     10  C   UNL     1       1.422   4.019  18.869  0.00  0.00    +0.000 A 
ATOM     11  C   UNL     1       1.139   2.666  18.709  0.00  0.00    +0.000 A 
ATOM     12  C   UNL     1       2.174   1.743  18.711  0.00  0.00    +0.000 A 
ATOM     13  C   UNL     1       3.488   2.178  18.894  0.00  0.00    +0.000 A 
ATOM     14  C   UNL     1       3.809   3.537  19.075  0.00  0.00    +0.000 A 
BRANCH   9  16
ATOM     15  N   UNL     1       2.554   6.490  20.404  0.00  0.00    +0.000 N 
ATOM     16  C   UNL     1       2.872   5.951  19.192  0.00  0.00    +0.000 C 
ATOM     17  O   UNL     1       3.174   6.670  18.256  0.00  0.00    +0.000 OA
ATOM     18  H   UNL     1       2.417   7.497  20.386  0.00  0.00    +0.000 HD
ATOM     19  H   UNL     1       1.985   5.964  21.061  0.00  0.00    +0.000 HD
ENDBRANCH   9  16
ENDBRANCH   7  14
ENDBRANCH   1   7
BRANCH   5  20
ATOM     20  O   UNL     1       8.265   7.639  18.583  0.00  0.00    +0.000 OA
BRANCH  20  21
ATOM     21  C   UNL     1       8.489   8.669  17.616  0.00  0.00    +0.000 C 
BRANCH  21  22
ATOM     22  C   UNL     1       8.051   9.996  18.234  0.00  0.00    +0.000 C 
BRANCH  22  23
ATOM     23  C   UNL     1       9.226  10.811  18.711  0.00  0.00    +0.000 A 
ATOM     24  C   UNL     1       9.570  10.836  20.070  0.00  0.00    +0.000 A 
ATOM     25  C   UNL     1      10.657  11.594  20.510  0.00  0.00    +0.000 A 
ATOM     26  C   UNL     1      11.415  12.326  19.598  0.00  0.00    +0.000 A 
ATOM     27  C   UNL     1      11.090  12.288  18.244  0.00  0.00    +0.000 A 
ATOM     28 BR   UNL     1      12.125  13.267  17.002  0.00  0.00    +0.000 Br
ATOM     29  C   UNL     1      10.005  11.533  17.796  0.00  0.00    +0.000 A 
ENDBRANCH  22  23
ENDBRANCH  21  22
ENDBRANCH  20  21
ENDBRANCH   5  20
TORSDOF 7
ENDMDL
MODEL 9
REMARK VINA RESULT:      -8.1      5.957      8.302
REMARK  Name = 
REMARK  7 active torsions:
REMARK  status: ('A' for Active; 'I' for Inactive)
REMARK    1  A    between atoms: C_2  and  C_4
REMARK    2  A    between atoms: C_9  and  N_10
REMARK    3  A    between atoms: N_10  and  C_11
REMARK    4  A    between atoms: C_15  and  O_16
REMARK    5  A    between atoms: O_16  and  C_17
REMARK    6  A    between atoms: C_17  and  C_18
REMARK    7  A    between atoms: C_18  and  C_19
REMARK                            x       y       z     vdW  Elec       q    Type
REMARK                         _______ _______ _______ _____ _____    ______ ____
ROOT
ATOM      1  C   UNL     1       5.590   5.041  18.370  0.00  0.00    +0.000 A 
ATOM      2  C   UNL     1       5.285   4.316  17.211  0.00  0.00    +0.000 A 
ATOM      3  C   UNL     1       5.805   4.700  15.970  0.00  0.00    +0.000 A 
ATOM      4  C   UNL     1       6.641   5.812  15.880  0.00  0.00    +0.000 A 
ATOM      5  C   UNL     1       7.015   6.501  17.032  0.00  0.00    +0.000 A 
ATOM      6  C   UNL     1       6.495   6.111  18.271  0.00  0.00    +0.000 A 
ENDROOT
BRANCH   1   7
ATOM      7  N   UNL     1       4.960   4.699  19.592  0.00  0.00    +0.000 N 
ATOM      8  H   UNL     1       5.618   4.380  20.300  0.00  0.00    +0.000 HD
BRANCH   7  14
ATOM      9  C   UNL     1       3.140   2.979  19.680  0.00  0.00    +0.000 A 
ATOM     10  C   UNL     1       1.778   2.699  19.891  0.00  0.00    +0.000 A 
ATOM     11  C   UNL     1       0.884   3.707  20.240  0.00  0.00    +0.000 A 
ATOM     12  C   UNL     1       1.340   5.007  20.394  0.00  0.00    +0.000 A 
ATOM     13  C   UNL     1       2.689   5.296  20.177  0.00  0.00    +0.000 A 
ATOM     14  C   UNL     1       3.618   4.306  19.806  0.00  0.00    +0.000 A 
BRANCH   9  16
ATOM     15  N   UNL     1       5.056   1.519  20.090  0.00  0.00    +0.000 N 
ATOM     16  C   UNL     1       3.963   1.783  19.319  0.00  0.00    +0.000 C 
ATOM     17  O   UNL     1       3.724   1.107  18.334  0.00  0.00    +0.000 OA
ATOM     18  H   UNL     1       5.712   0.865  19.670  0.00  0.00    +0.000 HD
ATOM     19  H   UNL     1       5.453   2.248  20.678  0.00  0.00    +0.000 HD
ENDBRANCH   9  16
ENDBRANCH   7  14
ENDBRANCH   1   7
BRANCH   5  20
ATOM     20  O   UNL     1       7.843   7.572  16.829  0.00  0.00    +0.000 OA
BRANCH  20  21
ATOM     21  C   UNL     1       7.612   8.704  17.672  0.00  0.00    +0.000 C 
BRANCH  21  22
ATOM     22  C   UNL     1       8.775   8.801  18.658  0.00  0.00    +0.000 C 
BRANCH  22  23
ATOM     23  C   UNL     1       9.198  10.228  18.894  0.00  0.00    +0.000 A 
ATOM     24  C   UNL     1       9.665  11.017  17.835  0.00  0.00    +0.000 A 
ATOM     25  C   UNL     1      10.059  12.338  18.058  0.00  0.00    +0.000 A 
ATOM     26  C   UNL     1       9.980  12.886  19.337  0.00  0.00    +0.000 A 
ATOM     27  C   UNL     1       9.497  12.112  20.389  0.00  0.00    +0.000 A 
ATOM     28 BR   UNL     1       9.375  12.856  22.122  0.00  0.00    +0.000 Br
ATOM     29  C   UNL     1       9.102  10.791  20.175  0.00  0.00    +0.000 A 
ENDBRANCH  22  23
ENDBRANCH  21  22
ENDBRANCH  20  21
ENDBRANCH   5  20
TORSDOF 7
ENDMDL
