MODEL 1
REMARK VINA RESULT:      -8.4      0.000      0.000
REMARK  Name = 
REMARK  8 active torsions:
REMARK  status: ('A' for Active; 'I' for Inactive)
REMARK    1  A    between atoms: C_1  and  O_2
REMARK    2  A    between atoms: O_2  and  C_3
REMARK    3  A    between atoms: C_5  and  C_6
REMARK    4  A    between atoms: C_8  and  C_9
REMARK    5  A    between atoms: C_24  and  O_25
REMARK    6  A    between atoms: O_25  and  C_26
REMARK    7  A    between atoms: C_27  and  O_28
REMARK    8  A    between atoms: O_28  and  C_29
REMARK                            x       y       z     vdW  Elec       q    Type
REMARK                         _______ _______ _______ _____ _____    ______ ____
ROOT
ATOM      1  C   UNL     1       1.931   8.180  18.984  0.00  0.00    +0.000 A 
ATOM      2  C   UNL     1       1.384   9.256  18.302  0.00  0.00    +0.000 A 
ATOM      3  C   UNL     1       0.928  10.355  19.031  0.00  0.00    +0.000 A 
ATOM      4  C   UNL     1       0.465  10.089  20.339  0.00  0.00    +0.000 A 
ATOM      5  C   UNL     1      -0.491  10.912  20.966  0.00  0.00    +0.000 A 
ATOM      6  C   UNL     1      -0.806  10.703  22.295  0.00  0.00    +0.000 A 
ATOM      7 BR   UNL     1      -2.083  11.815  23.133  0.00  0.00    +0.000 Br
ATOM      8  C   UNL     1      -0.178   9.696  22.987  0.00  0.00    +0.000 A 
ATOM      9  C   UNL     1       0.727   8.839  22.342  0.00  0.00    +0.000 A 
ATOM     10  C   UNL     1       1.014   8.975  20.982  0.00  0.00    +0.000 A 
ATOM     11  N   UNL     1       1.800   8.085  20.335  0.00  0.00    +0.000 NA
ENDROOT
BRANCH   1  14
ATOM     12  C   UNL     1       3.165   4.812  17.543  0.00  0.00    +0.000 A 
ATOM     13  C   UNL     1       2.366   5.795  18.172  0.00  0.00    +0.000 A 
ATOM     14  C   UNL     1       2.758   7.145  18.294  0.00  0.00    +0.000 A 
ATOM     15  C   UNL     1       3.979   7.477  17.698  0.00  0.00    +0.000 A 
ATOM     16  C   UNL     1       4.796   6.526  17.058  0.00  0.00    +0.000 A 
ATOM     17  C   UNL     1       4.413   5.169  16.998  0.00  0.00    +0.000 A 
BRANCH  12  19
ATOM     18  C   UNL     1       1.770   3.045  18.385  0.00  0.00    +0.000 C 
ATOM     19  O   UNL     1       2.770   3.500  17.477  0.00  0.00    +0.000 OA
ENDBRANCH  12  19
BRANCH  16  20
ATOM     20  O   UNL     1       5.956   7.101  16.590  0.00  0.00    +0.000 OA
ATOM     21  C   UNL     1       7.103   7.100  17.425  0.00  0.00    +0.000 C 
ENDBRANCH  16  20
BRANCH  17  22
ATOM     22  O   UNL     1       5.271   4.335  16.333  0.00  0.00    +0.000 OA
ATOM     23  C   UNL     1       5.393   4.338  14.920  0.00  0.00    +0.000 C 
ENDBRANCH  17  22
ENDBRANCH   1  14
BRANCH   3  24
ATOM     24  C   UNL     1       1.352  11.732  18.605  0.00  0.00    +0.000 A 
ATOM     25  C   UNL     1       2.660  12.028  18.176  0.00  0.00    +0.000 A 
ATOM     26  C   UNL     1       3.106  13.348  18.015  0.00  0.00    +0.000 A 
ATOM     27  C   UNL     1       2.251  14.415  18.256  0.00  0.00    +0.000 A 
ATOM     28  C   UNL     1       0.957  14.170  18.679  0.00  0.00    +0.000 A 
ATOM     29  C   UNL     1       0.526  12.854  18.868  0.00  0.00    +0.000 A 
ENDBRANCH   3  24
TORSDOF 5
ENDMDL
MODEL 2
REMARK VINA RESULT:      -8.4      2.680      3.925
REMARK  Name = 
REMARK  8 active torsions:
REMARK  status: ('A' for Active; 'I' for Inactive)
REMARK    1  A    between atoms: C_1  and  O_2
REMARK    2  A    between atoms: O_2  and  C_3
REMARK    3  A    between atoms: C_5  and  C_6
REMARK    4  A    between atoms: C_8  and  C_9
REMARK    5  A    between atoms: C_24  and  O_25
REMARK    6  A    between atoms: O_25  and  C_26
REMARK    7  A    between atoms: C_27  and  O_28
REMARK    8  A    between atoms: O_28  and  C_29
REMARK                            x       y       z     vdW  Elec       q    Type
REMARK                         _______ _______ _______ _____ _____    ______ ____
ROOT
ATOM      1  C   UNL     1       1.481   9.422  18.810  0.00  0.00    +0.000 A 
ATOM      2  C   UNL     1       0.133   9.541  19.111  0.00  0.00    +0.000 A 
ATOM      3  C   UNL     1      -0.530  10.723  18.780  0.00  0.00    +0.000 A 
ATOM      4  C   UNL     1       0.256  11.897  18.762  0.00  0.00    +0.000 A 
ATOM      5  C   UNL     1      -0.307  13.167  18.994  0.00  0.00    +0.000 A 
ATOM      6  C   UNL     1       0.466  14.300  18.822  0.00  0.00    +0.000 A 
ATOM      7 BR   UNL     1      -0.298  16.000  19.129  0.00  0.00    +0.000 Br
ATOM      8  C   UNL     1       1.774  14.169  18.424  0.00  0.00    +0.000 A 
ATOM      9  C   UNL     1       2.348  12.900  18.254  0.00  0.00    +0.000 A 
ATOM     10  C   UNL     1       1.618  11.734  18.489  0.00  0.00    +0.000 A 
ATOM     11  N   UNL     1       2.199  10.514  18.432  0.00  0.00    +0.000 NA
ENDROOT
BRANCH   1  14
ATOM     12  C   UNL     1       2.623   5.850  19.749  0.00  0.00    +0.000 A 
ATOM     13  C   UNL     1       1.944   7.091  19.753  0.00  0.00    +0.000 A 
ATOM     14  C   UNL     1       2.173   8.099  18.793  0.00  0.00    +0.000 A 
ATOM     15  C   UNL     1       3.085   7.776  17.783  0.00  0.00    +0.000 A 
ATOM     16  C   UNL     1       3.773   6.547  17.744  0.00  0.00    +0.000 A 
ATOM     17  C   UNL     1       3.573   5.576  18.748  0.00  0.00    +0.000 A 
BRANCH  12  19
ATOM     18  C   UNL     1       1.213   4.128  20.657  0.00  0.00    +0.000 C 
ATOM     19  O   UNL     1       2.404   4.909  20.723  0.00  0.00    +0.000 OA
ENDBRANCH  12  19
BRANCH  16  20
ATOM     20  O   UNL     1       4.637   6.496  16.673  0.00  0.00    +0.000 OA
ATOM     21  C   UNL     1       6.002   6.820  16.881  0.00  0.00    +0.000 C 
ENDBRANCH  16  20
BRANCH  17  22
ATOM     22  O   UNL     1       4.277   4.411  18.600  0.00  0.00    +0.000 OA
ATOM     23  C   UNL     1       3.762   3.297  17.889  0.00  0.00    +0.000 C 
ENDBRANCH  17  22
ENDBRANCH   1  14
BRANCH   3  24
ATOM     24  C   UNL     1      -1.842  10.637  18.052  0.00  0.00    +0.000 A 
ATOM     25  C   UNL     1      -1.981  10.002  16.804  0.00  0.00    +0.000 A 
ATOM     26  C   UNL     1      -3.143  10.136  16.029  0.00  0.00    +0.000 A 
ATOM     27  C   UNL     1      -4.212  10.894  16.488  0.00  0.00    +0.000 A 
ATOM     28  C   UNL     1      -4.118  11.536  17.709  0.00  0.00    +0.000 A 
ATOM     29  C   UNL     1      -2.947  11.424  18.464  0.00  0.00    +0.000 A 
ENDBRANCH   3  24
TORSDOF 5
ENDMDL
MODEL 3
REMARK VINA RESULT:      -8.4      2.691      4.460
REMARK  Name = 
REMARK  8 active torsions:
REMARK  status: ('A' for Active; 'I' for Inactive)
REMARK    1  A    between atoms: C_1  and  O_2
REMARK    2  A    between atoms: O_2  and  C_3
REMARK    3  A    between atoms: C_5  and  C_6
REMARK    4  A    between atoms: C_8  and  C_9
REMARK    5  A    between atoms: C_24  and  O_25
REMARK    6  A    between atoms: O_25  and  C_26
REMARK    7  A    between atoms: C_27  and  O_28
REMARK    8  A    between atoms: O_28  and  C_29
REMARK                            x       y       z     vdW  Elec       q    Type
REMARK                         _______ _______ _______ _____ _____    ______ ____
ROOT
ATOM      1  C   UNL     1       1.489   9.503  18.752  0.00  0.00    +0.000 A 
ATOM      2  C   UNL     1       0.141   9.595  19.058  0.00  0.00    +0.000 A 
ATOM      3  C   UNL     1      -0.541  10.773  18.750  0.00  0.00    +0.000 A 
ATOM      4  C   UNL     1       0.226  11.959  18.753  0.00  0.00    +0.000 A 
ATOM      5  C   UNL     1      -0.356  13.216  19.010  0.00  0.00    +0.000 A 
ATOM      6  C   UNL     1       0.399  14.363  18.857  0.00  0.00    +0.000 A 
ATOM      7 BR   UNL     1      -0.389  16.046  19.197  0.00  0.00    +0.000 Br
ATOM      8  C   UNL     1       1.709  14.260  18.453  0.00  0.00    +0.000 A 
ATOM      9  C   UNL     1       2.302  13.004  18.258  0.00  0.00    +0.000 A 
ATOM     10  C   UNL     1       1.590  11.822  18.473  0.00  0.00    +0.000 A 
ATOM     11  N   UNL     1       2.190  10.613  18.393  0.00  0.00    +0.000 NA
ENDROOT
BRANCH   1  14
ATOM     12  C   UNL     1       3.790   6.596  17.657  0.00  0.00    +0.000 A 
ATOM     13  C   UNL     1       3.139   7.850  17.711  0.00  0.00    +0.000 A 
ATOM     14  C   UNL     1       2.202   8.191  18.709  0.00  0.00    +0.000 A 
ATOM     15  C   UNL     1       1.988   7.222  19.695  0.00  0.00    +0.000 A 
ATOM     16  C   UNL     1       2.624   5.965  19.677  0.00  0.00    +0.000 A 
ATOM     17  C   UNL     1       3.515   5.623  18.637  0.00  0.00    +0.000 A 
BRANCH  12  19
ATOM     18  C   UNL     1       6.042   6.614  16.820  0.00  0.00    +0.000 C 
ATOM     19  O   UNL     1       4.667   6.284  16.649  0.00  0.00    +0.000 OA
ENDBRANCH  12  19
BRANCH  16  20
ATOM     20  O   UNL     1       2.215   5.186  20.734  0.00  0.00    +0.000 OA
ATOM     21  C   UNL     1       1.139   4.283  20.540  0.00  0.00    +0.000 C 
ENDBRANCH  16  20
BRANCH  17  22
ATOM     22  O   UNL     1       4.093   4.385  18.730  0.00  0.00    +0.000 OA
ATOM     23  C   UNL     1       3.659   3.283  17.948  0.00  0.00    +0.000 C 
ENDBRANCH  17  22
ENDBRANCH   1  14
BRANCH   3  24
ATOM     24  C   UNL     1      -1.854  10.681  18.024  0.00  0.00    +0.000 A 
ATOM     25  C   UNL     1      -1.989  10.052  16.772  0.00  0.00    +0.000 A 
ATOM     26  C   UNL     1      -3.154  10.182  16.000  0.00  0.00    +0.000 A 
ATOM     27  C   UNL     1      -4.228  10.926  16.466  0.00  0.00    +0.000 A 
ATOM     28  C   UNL     1      -4.138  11.561  17.691  0.00  0.00    +0.000 A 
ATOM     29  C   UNL     1      -2.965  11.454  18.444  0.00  0.00    +0.000 A 
ENDBRANCH   3  24
TORSDOF 5
ENDMDL
MODEL 4
REMARK VINA RESULT:      -8.3      0.244      2.319
REMARK  Name = 
REMARK  8 active torsions:
REMARK  status: ('A' for Active; 'I' for Inactive)
REMARK    1  A    between atoms: C_1  and  O_2
REMARK    2  A    between atoms: O_2  and  C_3
REMARK    3  A    between atoms: C_5  and  C_6
REMARK    4  A    between atoms: C_8  and  C_9
REMARK    5  A    between atoms: C_24  and  O_25
REMARK    6  A    between atoms: O_25  and  C_26
REMARK    7  A    between atoms: C_27  and  O_28
REMARK    8  A    between atoms: O_28  and  C_29
REMARK                            x       y       z     vdW  Elec       q    Type
REMARK                         _______ _______ _______ _____ _____    ______ ____
ROOT
ATOM      1  C   UNL     1       1.921   8.297  19.021  0.00  0.00    +0.000 A 
ATOM      2  C   UNL     1       1.365   9.366  18.337  0.00  0.00    +0.000 A 
ATOM      3  C   UNL     1       0.882  10.454  19.064  0.00  0.00    +0.000 A 
ATOM      4  C   UNL     1       0.408  10.176  20.366  0.00  0.00    +0.000 A 
ATOM      5  C   UNL     1      -0.568  10.981  20.984  0.00  0.00    +0.000 A 
ATOM      6  C   UNL     1      -0.896  10.762  22.309  0.00  0.00    +0.000 A 
ATOM      7 BR   UNL     1      -2.201  11.849  23.135  0.00  0.00    +0.000 Br
ATOM      8  C   UNL     1      -0.260   9.761  23.004  0.00  0.00    +0.000 A 
ATOM      9  C   UNL     1       0.666   8.922  22.366  0.00  0.00    +0.000 A 
ATOM     10  C   UNL     1       0.967   9.069  21.011  0.00  0.00    +0.000 A 
ATOM     11  N   UNL     1       1.776   8.194  20.370  0.00  0.00    +0.000 NA
ENDROOT
BRANCH   1  14
ATOM     12  C   UNL     1       4.815   6.613  17.089  0.00  0.00    +0.000 A 
ATOM     13  C   UNL     1       4.026   7.574  17.760  0.00  0.00    +0.000 A 
ATOM     14  C   UNL     1       2.772   7.278  18.337  0.00  0.00    +0.000 A 
ATOM     15  C   UNL     1       2.371   5.940  18.256  0.00  0.00    +0.000 A 
ATOM     16  C   UNL     1       3.135   4.955  17.602  0.00  0.00    +0.000 A 
ATOM     17  C   UNL     1       4.359   5.286  16.981  0.00  0.00    +0.000 A 
BRANCH  12  19
ATOM     18  C   UNL     1       7.179   6.979  17.321  0.00  0.00    +0.000 C 
ATOM     19  O   UNL     1       6.011   6.946  16.505  0.00  0.00    +0.000 OA
ENDBRANCH  12  19
BRANCH  16  20
ATOM     20  O   UNL     1       2.502   3.733  17.632  0.00  0.00    +0.000 OA
ATOM     21  C   UNL     1       2.697   2.891  18.756  0.00  0.00    +0.000 C 
ENDBRANCH  16  20
BRANCH  17  22
ATOM     22  O   UNL     1       5.029   4.247  16.393  0.00  0.00    +0.000 OA
ATOM     23  C   UNL     1       5.376   4.248  15.018  0.00  0.00    +0.000 C 
ENDBRANCH  17  22
ENDBRANCH   1  14
BRANCH   3  24
ATOM     24  C   UNL     1       1.290  11.841  18.650  0.00  0.00    +0.000 A 
ATOM     25  C   UNL     1       2.598  12.160  18.242  0.00  0.00    +0.000 A 
ATOM     26  C   UNL     1       3.024  13.488  18.091  0.00  0.00    +0.000 A 
ATOM     27  C   UNL     1       2.148  14.539  18.323  0.00  0.00    +0.000 A 
ATOM     28  C   UNL     1       0.852  14.271  18.725  0.00  0.00    +0.000 A 
ATOM     29  C   UNL     1       0.441  12.947  18.903  0.00  0.00    +0.000 A 
ENDBRANCH   3  24
TORSDOF 5
ENDMDL
MODEL 5
REMARK VINA RESULT:      -8.2      1.515      2.776
REMARK  Name = 
REMARK  8 active torsions:
REMARK  status: ('A' for Active; 'I' for Inactive)
REMARK    1  A    between atoms: C_1  and  O_2
REMARK    2  A    between atoms: O_2  and  C_3
REMARK    3  A    between atoms: C_5  and  C_6
REMARK    4  A    between atoms: C_8  and  C_9
REMARK    5  A    between atoms: C_24  and  O_25
REMARK    6  A    between atoms: O_25  and  C_26
REMARK    7  A    between atoms: C_27  and  O_28
REMARK    8  A    between atoms: O_28  and  C_29
REMARK                            x       y       z     vdW  Elec       q    Type
REMARK                         _______ _______ _______ _____ _____    ______ ____
ROOT
ATOM      1  C   UNL     1       1.418   8.605  19.959  0.00  0.00    +0.000 A 
ATOM      2  C   UNL     1       1.270   9.728  19.161  0.00  0.00    +0.000 A 
ATOM      3  C   UNL     1       0.854  10.923  19.749  0.00  0.00    +0.000 A 
ATOM      4  C   UNL     1       0.034  10.806  20.894  0.00  0.00    +0.000 A 
ATOM      5  C   UNL     1      -0.881  11.813  21.254  0.00  0.00    +0.000 A 
ATOM      6  C   UNL     1      -1.556  11.726  22.458  0.00  0.00    +0.000 A 
ATOM      7 BR   UNL     1      -2.777  13.085  22.939  0.00  0.00    +0.000 Br
ATOM      8  C   UNL     1      -1.321  10.655  23.286  0.00  0.00    +0.000 A 
ATOM      9  C   UNL     1      -0.455   9.622  22.894  0.00  0.00    +0.000 A 
ATOM     10  C   UNL     1       0.187   9.642  21.655  0.00  0.00    +0.000 A 
ATOM     11  N   UNL     1       0.934   8.597  21.231  0.00  0.00    +0.000 NA
ENDROOT
BRANCH   1  14
ATOM     12  C   UNL     1       3.688   6.251  17.898  0.00  0.00    +0.000 A 
ATOM     13  C   UNL     1       2.984   7.395  18.340  0.00  0.00    +0.000 A 
ATOM     14  C   UNL     1       2.187   7.409  19.504  0.00  0.00    +0.000 A 
ATOM     15  C   UNL     1       2.175   6.221  20.243  0.00  0.00    +0.000 A 
ATOM     16  C   UNL     1       2.870   5.065  19.837  0.00  0.00    +0.000 A 
ATOM     17  C   UNL     1       3.614   5.055  18.637  0.00  0.00    +0.000 A 
BRANCH  12  19
ATOM     18  C   UNL     1       5.782   6.681  16.800  0.00  0.00    +0.000 C 
ATOM     19  O   UNL     1       4.421   6.262  16.738  0.00  0.00    +0.000 OA
ENDBRANCH  12  19
BRANCH  16  20
ATOM     20  O   UNL     1       2.665   4.027  20.716  0.00  0.00    +0.000 OA
ATOM     21  C   UNL     1       1.348   3.531  20.892  0.00  0.00    +0.000 C 
ENDBRANCH  16  20
BRANCH  17  22
ATOM     22  O   UNL     1       4.266   3.887  18.349  0.00  0.00    +0.000 OA
ATOM     23  C   UNL     1       3.644   2.822  17.649  0.00  0.00    +0.000 C 
ENDBRANCH  17  22
ENDBRANCH   1  14
BRANCH   3  24
ATOM     24  C   UNL     1       1.619  12.182  19.450  0.00  0.00    +0.000 A 
ATOM     25  C   UNL     1       2.188  12.446  18.191  0.00  0.00    +0.000 A 
ATOM     26  C   UNL     1       3.096  13.498  17.993  0.00  0.00    +0.000 A 
ATOM     27  C   UNL     1       3.445  14.334  19.045  0.00  0.00    +0.000 A 
ATOM     28  C   UNL     1       2.908  14.110  20.300  0.00  0.00    +0.000 A 
ATOM     29  C   UNL     1       2.029  13.043  20.499  0.00  0.00    +0.000 A 
ENDBRANCH   3  24
TORSDOF 5
ENDMDL
MODEL 6
REMARK VINA RESULT:      -8.2      4.262      8.467
REMARK  Name = 
REMARK  8 active torsions:
REMARK  status: ('A' for Active; 'I' for Inactive)
REMARK    1  A    between atoms: C_1  and  O_2
REMARK    2  A    between atoms: O_2  and  C_3
REMARK    3  A    between atoms: C_5  and  C_6
REMARK    4  A    between atoms: C_8  and  C_9
REMARK    5  A    between atoms: C_24  and  O_25
REMARK    6  A    between atoms: O_25  and  C_26
REMARK    7  A    between atoms: C_27  and  O_28
REMARK    8  A    between atoms: O_28  and  C_29
REMARK                            x       y       z     vdW  Elec       q    Type
REMARK                         _______ _______ _______ _____ _____    ______ ____
ROOT
ATOM      1  C   UNL     1       1.994   7.950  18.528  0.00  0.00    +0.000 A 
ATOM      2  C   UNL     1       1.470   6.667  18.532  0.00  0.00    +0.000 A 
ATOM      3  C   UNL     1       2.332   5.585  18.346  0.00  0.00    +0.000 A 
ATOM      4  C   UNL     1       3.486   5.832  17.570  0.00  0.00    +0.000 A 
ATOM      5  C   UNL     1       4.128   4.804  16.852  0.00  0.00    +0.000 A 
ATOM      6  C   UNL     1       5.334   5.057  16.227  0.00  0.00    +0.000 A 
ATOM      7 BR   UNL     1       6.193   3.672  15.271  0.00  0.00    +0.000 Br
ATOM      8  C   UNL     1       5.892   6.309  16.319  0.00  0.00    +0.000 A 
ATOM      9  C   UNL     1       5.220   7.346  16.983  0.00  0.00    +0.000 A 
ATOM     10  C   UNL     1       3.966   7.146  17.563  0.00  0.00    +0.000 A 
ATOM     11  N   UNL     1       3.269   8.170  18.107  0.00  0.00    +0.000 NA
ENDROOT
BRANCH   1  14
ATOM     12  C   UNL     1      -0.199  11.124  18.766  0.00  0.00    +0.000 A 
ATOM     13  C   UNL     1       0.497  10.005  18.255  0.00  0.00    +0.000 A 
ATOM     14  C   UNL     1       1.232   9.116  19.067  0.00  0.00    +0.000 A 
ATOM     15  C   UNL     1       1.189   9.375  20.441  0.00  0.00    +0.000 A 
ATOM     16  C   UNL     1       0.500  10.476  20.986  0.00  0.00    +0.000 A 
ATOM     17  C   UNL     1      -0.181  11.387  20.149  0.00  0.00    +0.000 A 
BRANCH  12  19
ATOM     18  C   UNL     1      -2.161  11.614  17.468  0.00  0.00    +0.000 C 
ATOM     19  O   UNL     1      -0.871  11.990  17.942  0.00  0.00    +0.000 OA
ENDBRANCH  12  19
BRANCH  16  20
ATOM     20  O   UNL     1       0.644  10.525  22.354  0.00  0.00    +0.000 OA
ATOM     21  C   UNL     1      -0.201   9.719  23.159  0.00  0.00    +0.000 C 
ENDBRANCH  16  20
BRANCH  17  22
ATOM     22  O   UNL     1      -0.834  12.408  20.785  0.00  0.00    +0.000 OA
ATOM     23  C   UNL     1      -2.186  12.302  21.203  0.00  0.00    +0.000 C 
ENDBRANCH  17  22
ENDBRANCH   1  14
BRANCH   3  24
ATOM     24  C   UNL     1       2.249   4.422  19.295  0.00  0.00    +0.000 A 
ATOM     25  C   UNL     1       1.692   3.182  18.932  0.00  0.00    +0.000 A 
ATOM     26  C   UNL     1       1.401   2.193  19.885  0.00  0.00    +0.000 A 
ATOM     27  C   UNL     1       1.680   2.406  21.228  0.00  0.00    +0.000 A 
ATOM     28  C   UNL     1       2.228   3.610  21.628  0.00  0.00    +0.000 A 
ATOM     29  C   UNL     1       2.487   4.604  20.680  0.00  0.00    +0.000 A 
ENDBRANCH   3  24
TORSDOF 5
ENDMDL
MODEL 7
REMARK VINA RESULT:      -8.1      4.069      8.507
REMARK  Name = 
REMARK  8 active torsions:
REMARK  status: ('A' for Active; 'I' for Inactive)
REMARK    1  A    between atoms: C_1  and  O_2
REMARK    2  A    between atoms: O_2  and  C_3
REMARK    3  A    between atoms: C_5  and  C_6
REMARK    4  A    between atoms: C_8  and  C_9
REMARK    5  A    between atoms: C_24  and  O_25
REMARK    6  A    between atoms: O_25  and  C_26
REMARK    7  A    between atoms: C_27  and  O_28
REMARK    8  A    between atoms: O_28  and  C_29
REMARK                            x       y       z     vdW  Elec       q    Type
REMARK                         _______ _______ _______ _____ _____    ______ ____
ROOT
ATOM      1  C   UNL     1       2.217   8.080  18.425  0.00  0.00    +0.000 A 
ATOM      2  C   UNL     1       1.594   6.842  18.411  0.00  0.00    +0.000 A 
ATOM      3  C   UNL     1       2.373   5.697  18.236  0.00  0.00    +0.000 A 
ATOM      4  C   UNL     1       3.558   5.855  17.485  0.00  0.00    +0.000 A 
ATOM      5  C   UNL     1       4.132   4.784  16.773  0.00  0.00    +0.000 A 
ATOM      6  C   UNL     1       5.367   4.944  16.175  0.00  0.00    +0.000 A 
ATOM      7 BR   UNL     1       6.134   3.500  15.228  0.00  0.00    +0.000 Br
ATOM      8  C   UNL     1       6.020   6.148  16.285  0.00  0.00    +0.000 A 
ATOM      9  C   UNL     1       5.417   7.232  16.942  0.00  0.00    +0.000 A 
ATOM     10  C   UNL     1       4.140   7.128  17.495  0.00  0.00    +0.000 A 
ATOM     11  N   UNL     1       3.514   8.201  18.031  0.00  0.00    +0.000 NA
ENDROOT
BRANCH   1  14
ATOM     12  C   UNL     1       1.039  11.733  18.886  0.00  0.00    +0.000 A 
ATOM     13  C   UNL     1       1.660  10.575  18.364  0.00  0.00    +0.000 A 
ATOM     14  C   UNL     1       1.539   9.300  18.956  0.00  0.00    +0.000 A 
ATOM     15  C   UNL     1       0.708   9.231  20.079  0.00  0.00    +0.000 A 
ATOM     16  C   UNL     1       0.068  10.363  20.622  0.00  0.00    +0.000 A 
ATOM     17  C   UNL     1       0.250  11.639  20.048  0.00  0.00    +0.000 A 
BRANCH  12  19
ATOM     18  C   UNL     1       2.531  13.497  18.226  0.00  0.00    +0.000 C 
ATOM     19  O   UNL     1       1.212  12.964  18.306  0.00  0.00    +0.000 OA
ENDBRANCH  12  19
BRANCH  16  20
ATOM     20  O   UNL     1      -0.659  10.032  21.743  0.00  0.00    +0.000 OA
ATOM     21  C   UNL     1       0.036   9.696  22.932  0.00  0.00    +0.000 C 
ENDBRANCH  16  20
BRANCH  17  22
ATOM     22  O   UNL     1      -0.436  12.664  20.642  0.00  0.00    +0.000 OA
ATOM     23  C   UNL     1       0.145  13.490  21.639  0.00  0.00    +0.000 C 
ENDBRANCH  17  22
ENDBRANCH   1  14
BRANCH   3  24
ATOM     24  C   UNL     1       2.179   4.540  19.176  0.00  0.00    +0.000 A 
ATOM     25  C   UNL     1       1.394   3.418  18.850  0.00  0.00    +0.000 A 
ATOM     26  C   UNL     1       1.026   2.467  19.814  0.00  0.00    +0.000 A 
ATOM     27  C   UNL     1       1.451   2.596  21.129  0.00  0.00    +0.000 A 
ATOM     28  C   UNL     1       2.223   3.684  21.493  0.00  0.00    +0.000 A 
ATOM     29  C   UNL     1       2.562   4.645  20.536  0.00  0.00    +0.000 A 
ENDBRANCH   3  24
TORSDOF 5
ENDMDL
MODEL 8
REMARK VINA RESULT:      -8.1      1.526      1.749
REMARK  Name = 
REMARK  8 active torsions:
REMARK  status: ('A' for Active; 'I' for Inactive)
REMARK    1  A    between atoms: C_1  and  O_2
REMARK    2  A    between atoms: O_2  and  C_3
REMARK    3  A    between atoms: C_5  and  C_6
REMARK    4  A    between atoms: C_8  and  C_9
REMARK    5  A    between atoms: C_24  and  O_25
REMARK    6  A    between atoms: O_25  and  C_26
REMARK    7  A    between atoms: C_27  and  O_28
REMARK    8  A    between atoms: O_28  and  C_29
REMARK                            x       y       z     vdW  Elec       q    Type
REMARK                         _______ _______ _______ _____ _____    ______ ____
ROOT
ATOM      1  C   UNL     1       1.406   8.580  20.015  0.00  0.00    +0.000 A 
ATOM      2  C   UNL     1       1.257   9.685  19.192  0.00  0.00    +0.000 A 
ATOM      3  C   UNL     1       0.846  10.894  19.753  0.00  0.00    +0.000 A 
ATOM      4  C   UNL     1       0.031  10.805  20.903  0.00  0.00    +0.000 A 
ATOM      5  C   UNL     1      -0.880  11.824  21.244  0.00  0.00    +0.000 A 
ATOM      6  C   UNL     1      -1.550  11.766  22.451  0.00  0.00    +0.000 A 
ATOM      7 BR   UNL     1      -2.766  13.139  22.905  0.00  0.00    +0.000 Br
ATOM      8  C   UNL     1      -1.314  10.715  23.304  0.00  0.00    +0.000 A 
ATOM      9  C   UNL     1      -0.453   9.671  22.933  0.00  0.00    +0.000 A 
ATOM     10  C   UNL     1       0.184   9.660  21.691  0.00  0.00    +0.000 A 
ATOM     11  N   UNL     1       0.927   8.603  21.289  0.00  0.00    +0.000 NA
ENDROOT
BRANCH   1  14
ATOM     12  C   UNL     1       2.875   5.007  19.882  0.00  0.00    +0.000 A 
ATOM     13  C   UNL     1       2.128   6.141  20.275  0.00  0.00    +0.000 A 
ATOM     14  C   UNL     1       2.170   7.371  19.586  0.00  0.00    +0.000 A 
ATOM     15  C   UNL     1       2.965   7.392  18.435  0.00  0.00    +0.000 A 
ATOM     16  C   UNL     1       3.717   6.280  18.010  0.00  0.00    +0.000 A 
ATOM     17  C   UNL     1       3.705   5.077  18.747  0.00  0.00    +0.000 A 
BRANCH  12  19
ATOM     18  C   UNL     1       1.626   3.481  21.255  0.00  0.00    +0.000 C 
ATOM     19  O   UNL     1       2.840   3.839  20.599  0.00  0.00    +0.000 OA
ENDBRANCH  12  19
BRANCH  16  20
ATOM     20  O   UNL     1       4.439   6.573  16.875  0.00  0.00    +0.000 OA
ATOM     21  C   UNL     1       5.787   6.991  17.014  0.00  0.00    +0.000 C 
ENDBRANCH  16  20
BRANCH  17  22
ATOM     22  O   UNL     1       4.455   4.053  18.232  0.00  0.00    +0.000 OA
ATOM     23  C   UNL     1       3.901   3.054  17.391  0.00  0.00    +0.000 C 
ENDBRANCH  17  22
ENDBRANCH   1  14
BRANCH   3  24
ATOM     24  C   UNL     1       1.613  12.144  19.421  0.00  0.00    +0.000 A 
ATOM     25  C   UNL     1       2.188  12.371  18.157  0.00  0.00    +0.000 A 
ATOM     26  C   UNL     1       3.096  13.417  17.933  0.00  0.00    +0.000 A 
ATOM     27  C   UNL     1       3.442  14.282  18.962  0.00  0.00    +0.000 A 
ATOM     28  C   UNL     1       2.900  14.095  20.221  0.00  0.00    +0.000 A 
ATOM     29  C   UNL     1       2.019  13.033  20.447  0.00  0.00    +0.000 A 
ENDBRANCH   3  24
TORSDOF 5
ENDMDL
MODEL 9
REMARK VINA RESULT:      -8.0      4.069      8.258
REMARK  Name = 
REMARK  8 active torsions:
REMARK  status: ('A' for Active; 'I' for Inactive)
REMARK    1  A    between atoms: C_1  and  O_2
REMARK    2  A    between atoms: O_2  and  C_3
REMARK    3  A    between atoms: C_5  and  C_6
REMARK    4  A    between atoms: C_8  and  C_9
REMARK    5  A    between atoms: C_24  and  O_25
REMARK    6  A    between atoms: O_25  and  C_26
REMARK    7  A    between atoms: C_27  and  O_28
REMARK    8  A    between atoms: O_28  and  C_29
REMARK                            x       y       z     vdW  Elec       q    Type
REMARK                         _______ _______ _______ _____ _____    ______ ____
ROOT
ATOM      1  C   UNL     1       2.211   8.080  18.493  0.00  0.00    +0.000 A 
ATOM      2  C   UNL     1       1.584   6.845  18.477  0.00  0.00    +0.000 A 
ATOM      3  C   UNL     1       2.356   5.699  18.279  0.00  0.00    +0.000 A 
ATOM      4  C   UNL     1       3.531   5.862  17.511  0.00  0.00    +0.000 A 
ATOM      5  C   UNL     1       4.090   4.796  16.780  0.00  0.00    +0.000 A 
ATOM      6  C   UNL     1       5.316   4.958  16.163  0.00  0.00    +0.000 A 
ATOM      7 BR   UNL     1       6.064   3.521  15.191  0.00  0.00    +0.000 Br
ATOM      8  C   UNL     1       5.974   6.159  16.275  0.00  0.00    +0.000 A 
ATOM      9  C   UNL     1       5.385   7.238  16.952  0.00  0.00    +0.000 A 
ATOM     10  C   UNL     1       4.116   7.133  17.524  0.00  0.00    +0.000 A 
ATOM     11  N   UNL     1       3.501   8.202  18.080  0.00  0.00    +0.000 NA
ENDROOT
BRANCH   1  14
ATOM     12  C   UNL     1       0.099  10.433  20.718  0.00  0.00    +0.000 A 
ATOM     13  C   UNL     1       0.752   9.285  20.214  0.00  0.00    +0.000 A 
ATOM     14  C   UNL     1       1.544   9.297  19.046  0.00  0.00    +0.000 A 
ATOM     15  C   UNL     1       1.698  10.545  18.433  0.00  0.00    +0.000 A 
ATOM     16  C   UNL     1       1.069  11.711  18.912  0.00  0.00    +0.000 A 
ATOM     17  C   UNL     1       0.233  11.664  20.048  0.00  0.00    +0.000 A 
BRANCH  12  19
ATOM     18  C   UNL     1      -0.181   9.747  23.004  0.00  0.00    +0.000 C 
ATOM     19  O   UNL     1      -0.697  10.376  21.834  0.00  0.00    +0.000 OA
ENDBRANCH  12  19
BRANCH  16  20
ATOM     20  O   UNL     1       1.352  12.793  18.110  0.00  0.00    +0.000 OA
ATOM     21  C   UNL     1       2.559  13.505  18.326  0.00  0.00    +0.000 C 
ENDBRANCH  16  20
BRANCH  17  22
ATOM     22  O   UNL     1      -0.310  12.859  20.438  0.00  0.00    +0.000 OA
ATOM     23  C   UNL     1       0.268  13.660  21.456  0.00  0.00    +0.000 C 
ENDBRANCH  17  22
ENDBRANCH   1  14
BRANCH   3  24
ATOM     24  C   UNL     1       2.174   4.533  19.210  0.00  0.00    +0.000 A 
ATOM     25  C   UNL     1       1.407   3.402  18.873  0.00  0.00    +0.000 A 
ATOM     26  C   UNL     1       1.048   2.440  19.829  0.00  0.00    +0.000 A 
ATOM     27  C   UNL     1       1.463   2.567  21.147  0.00  0.00    +0.000 A 
ATOM     28  C   UNL     1       2.219   3.663  21.522  0.00  0.00    +0.000 A 
ATOM     29  C   UNL     1       2.549   4.635  20.573  0.00  0.00    +0.000 A 
ENDBRANCH   3  24
TORSDOF 5
ENDMDL
