MODEL 1
REMARK VINA RESULT:      -8.3      0.000      0.000
REMARK  Name = 
REMARK  8 active torsions:
REMARK  status: ('A' for Active; 'I' for Inactive)
REMARK    1  A    between atoms: C_1  and  C_2
REMARK    2  A    between atoms: C_2  and  N_3
REMARK    3  A    between atoms: N_3  and  C_4
REMARK    4  A    between atoms: N_3  and  C_19
REMARK    5  A    between atoms: C_4  and  C_5
REMARK    6  A    between atoms: C_7  and  C_8
REMARK    7  A    between atoms: C_17  and  C_18
REMARK    8  A    between atoms: C_19  and  C_20
REMARK                            x       y       z     vdW  Elec       q    Type
REMARK                         _______ _______ _______ _____ _____    ______ ____
ROOT
ATOM      1  C   UNL     1       5.741   4.505  18.050  0.00  0.00    +0.000 A 
ATOM      2  N   UNL     1       5.476   4.091  16.758  0.00  0.00    +0.000 NA
ATOM      3  C   UNL     1       6.502   4.528  16.060  0.00  0.00    +0.000 A 
ATOM      4  O   UNL     1       7.471   5.141  16.808  0.00  0.00    +0.000 OA
ATOM      5  C   UNL     1       6.974   5.123  18.082  0.00  0.00    +0.000 A 
ATOM      6  C   UNL     1       7.780   5.780  19.127  0.00  0.00    +0.000 C 
ENDROOT
BRANCH   3   7
ATOM      7  C   UNL     1       6.705   4.485  14.617  0.00  0.00    +0.000 A 
ATOM      8  C   UNL     1       6.050   3.502  13.860  0.00  0.00    +0.000 A 
ATOM      9  C   UNL     1       6.235   3.439  12.483  0.00  0.00    +0.000 A 
ATOM     10  F   UNL     1       5.604   2.495  11.775  0.00  0.00    +0.000 F 
ATOM     11  C   UNL     1       7.065   4.340  11.831  0.00  0.00    +0.000 A 
ATOM     12  C   UNL     1       7.704   5.318  12.578  0.00  0.00    +0.000 A 
ATOM     13  F   UNL     1       8.505   6.197  11.963  0.00  0.00    +0.000 F 
ATOM     14  C   UNL     1       7.532   5.402  13.958  0.00  0.00    +0.000 A 
ENDBRANCH   3   7
BRANCH   1  15
ATOM     15  C   UNL     1       4.734   4.336  19.144  0.00  0.00    +0.000 C 
BRANCH  15  16
ATOM     16  N   UNL     1       3.520   5.168  18.961  0.00  0.00    +0.000 NA
BRANCH  16  18
ATOM     17  C   UNL     1       2.554   7.335  18.063  0.00  0.00    +0.000 C 
ATOM     18  C   UNL     1       3.733   6.367  18.128  0.00  0.00    +0.000 C 
ENDBRANCH  16  18
BRANCH  16  19
ATOM     19  C   UNL     1       2.922   5.511  20.272  0.00  0.00    +0.000 C 
BRANCH  19  20
ATOM     20  C   UNL     1       1.710   4.677  20.734  0.00  0.00    +0.000 C 
ATOM     21  C   UNL     1       1.128   3.768  19.659  0.00  0.00    +0.000 C 
ATOM     22  C   UNL     1       1.701   2.415  20.000  0.00  0.00    +0.000 C 
ATOM     23  C   UNL     1       1.783   2.477  21.506  0.00  0.00    +0.000 C 
ATOM     24  O   UNL     1       2.142   3.825  21.820  0.00  0.00    +0.000 OA
ENDBRANCH  19  20
ENDBRANCH  16  19
ENDBRANCH  15  16
ENDBRANCH   1  15
TORSDOF 6
ENDMDL
MODEL 2
REMARK VINA RESULT:      -8.3      0.229      1.691
REMARK  Name = 
REMARK  8 active torsions:
REMARK  status: ('A' for Active; 'I' for Inactive)
REMARK    1  A    between atoms: C_1  and  C_2
REMARK    2  A    between atoms: C_2  and  N_3
REMARK    3  A    between atoms: N_3  and  C_4
REMARK    4  A    between atoms: N_3  and  C_19
REMARK    5  A    between atoms: C_4  and  C_5
REMARK    6  A    between atoms: C_7  and  C_8
REMARK    7  A    between atoms: C_17  and  C_18
REMARK    8  A    between atoms: C_19  and  C_20
REMARK                            x       y       z     vdW  Elec       q    Type
REMARK                         _______ _______ _______ _____ _____    ______ ____
ROOT
ATOM      1  C   UNL     1       5.714   4.731  18.140  0.00  0.00    +0.000 A 
ATOM      2  N   UNL     1       5.398   4.294  16.867  0.00  0.00    +0.000 NA
ATOM      3  C   UNL     1       6.459   4.592  16.149  0.00  0.00    +0.000 A 
ATOM      4  O   UNL     1       7.492   5.130  16.868  0.00  0.00    +0.000 OA
ATOM      5  C   UNL     1       7.006   5.217  18.142  0.00  0.00    +0.000 A 
ATOM      6  C   UNL     1       7.884   5.829  19.157  0.00  0.00    +0.000 C 
ENDROOT
BRANCH   3   7
ATOM      7  C   UNL     1       6.645   4.468  14.708  0.00  0.00    +0.000 A 
ATOM      8  C   UNL     1       7.508   5.355  14.047  0.00  0.00    +0.000 A 
ATOM      9  C   UNL     1       7.694   5.258  12.672  0.00  0.00    +0.000 A 
ATOM     10  F   UNL     1       8.519   6.113  12.056  0.00  0.00    +0.000 F 
ATOM     11  C   UNL     1       7.034   4.290  11.928  0.00  0.00    +0.000 A 
ATOM     12  C   UNL     1       6.190   3.406  12.583  0.00  0.00    +0.000 A 
ATOM     13  F   UNL     1       5.550   2.464  11.879  0.00  0.00    +0.000 F 
ATOM     14  C   UNL     1       5.990   3.482  13.960  0.00  0.00    +0.000 A 
ENDBRANCH   3   7
BRANCH   1  15
ATOM     15  C   UNL     1       4.704   4.713  19.243  0.00  0.00    +0.000 C 
BRANCH  15  16
ATOM     16  N   UNL     1       3.418   5.355  18.875  0.00  0.00    +0.000 NA
BRANCH  16  18
ATOM     17  C   UNL     1       2.529   7.639  18.220  0.00  0.00    +0.000 C 
ATOM     18  C   UNL     1       3.565   6.537  18.005  0.00  0.00    +0.000 C 
ENDBRANCH  16  18
BRANCH  16  19
ATOM     19  C   UNL     1       2.625   5.663  20.088  0.00  0.00    +0.000 C 
BRANCH  19  20
ATOM     20  C   UNL     1       1.494   4.682  20.457  0.00  0.00    +0.000 C 
ATOM     21  C   UNL     1       1.134   3.695  19.355  0.00  0.00    +0.000 C 
ATOM     22  C   UNL     1       1.844   2.431  19.773  0.00  0.00    +0.000 C 
ATOM     23  C   UNL     1       1.780   2.517  21.279  0.00  0.00    +0.000 C 
ATOM     24  O   UNL     1       1.932   3.903  21.595  0.00  0.00    +0.000 OA
ENDBRANCH  19  20
ENDBRANCH  16  19
ENDBRANCH  15  16
ENDBRANCH   1  15
TORSDOF 6
ENDMDL
MODEL 3
REMARK VINA RESULT:      -8.0      0.967      1.110
REMARK  Name = 
REMARK  8 active torsions:
REMARK  status: ('A' for Active; 'I' for Inactive)
REMARK    1  A    between atoms: C_1  and  C_2
REMARK    2  A    between atoms: C_2  and  N_3
REMARK    3  A    between atoms: N_3  and  C_4
REMARK    4  A    between atoms: N_3  and  C_19
REMARK    5  A    between atoms: C_4  and  C_5
REMARK    6  A    between atoms: C_7  and  C_8
REMARK    7  A    between atoms: C_17  and  C_18
REMARK    8  A    between atoms: C_19  and  C_20
REMARK                            x       y       z     vdW  Elec       q    Type
REMARK                         _______ _______ _______ _____ _____    ______ ____
ROOT
ATOM      1  C   UNL     1       5.709   5.418  18.076  0.00  0.00    +0.000 A 
ATOM      2  N   UNL     1       5.327   5.129  16.780  0.00  0.00    +0.000 NA
ATOM      3  C   UNL     1       6.460   4.948  16.138  0.00  0.00    +0.000 A 
ATOM      4  O   UNL     1       7.573   5.022  16.932  0.00  0.00    +0.000 OA
ATOM      5  C   UNL     1       7.083   5.326  18.171  0.00  0.00    +0.000 A 
ATOM      6  C   UNL     1       8.067   5.537  19.250  0.00  0.00    +0.000 C 
ENDROOT
BRANCH   3   7
ATOM      7  C   UNL     1       6.673   4.733  14.713  0.00  0.00    +0.000 A 
ATOM      8  C   UNL     1       6.010   3.677  14.069  0.00  0.00    +0.000 A 
ATOM      9  C   UNL     1       6.205   3.451  12.711  0.00  0.00    +0.000 A 
ATOM     10  F   UNL     1       5.566   2.438  12.112  0.00  0.00    +0.000 F 
ATOM     11  C   UNL     1       7.053   4.257  11.966  0.00  0.00    +0.000 A 
ATOM     12  C   UNL     1       7.700   5.307  12.599  0.00  0.00    +0.000 A 
ATOM     13  F   UNL     1       8.520   6.096  11.893  0.00  0.00    +0.000 F 
ATOM     14  C   UNL     1       7.519   5.555  13.958  0.00  0.00    +0.000 A 
ENDBRANCH   3   7
BRANCH   1  15
ATOM     15  C   UNL     1       4.712   5.841  19.108  0.00  0.00    +0.000 C 
BRANCH  15  16
ATOM     16  N   UNL     1       3.393   5.179  18.959  0.00  0.00    +0.000 NA
BRANCH  16  18
ATOM     17  C   UNL     1       2.646   7.475  18.184  0.00  0.00    +0.000 C 
ATOM     18  C   UNL     1       2.410   5.967  18.192  0.00  0.00    +0.000 C 
ENDBRANCH  16  18
BRANCH  16  19
ATOM     19  C   UNL     1       2.862   4.776  20.282  0.00  0.00    +0.000 C 
BRANCH  19  20
ATOM     20  C   UNL     1       2.405   3.312  20.441  0.00  0.00    +0.000 C 
ATOM     21  C   UNL     1       0.919   3.086  20.194  0.00  0.00    +0.000 C 
ATOM     22  C   UNL     1       0.879   2.543  18.787  0.00  0.00    +0.000 C 
ATOM     23  C   UNL     1       2.168   1.761  18.713  0.00  0.00    +0.000 C 
ATOM     24  O   UNL     1       3.121   2.513  19.470  0.00  0.00    +0.000 OA
ENDBRANCH  19  20
ENDBRANCH  16  19
ENDBRANCH  15  16
ENDBRANCH   1  15
TORSDOF 6
ENDMDL
MODEL 4
REMARK VINA RESULT:      -7.9      1.268      2.210
REMARK  Name = 
REMARK  8 active torsions:
REMARK  status: ('A' for Active; 'I' for Inactive)
REMARK    1  A    between atoms: C_1  and  C_2
REMARK    2  A    between atoms: C_2  and  N_3
REMARK    3  A    between atoms: N_3  and  C_4
REMARK    4  A    between atoms: N_3  and  C_19
REMARK    5  A    between atoms: C_4  and  C_5
REMARK    6  A    between atoms: C_7  and  C_8
REMARK    7  A    between atoms: C_17  and  C_18
REMARK    8  A    between atoms: C_19  and  C_20
REMARK                            x       y       z     vdW  Elec       q    Type
REMARK                         _______ _______ _______ _____ _____    ______ ____
ROOT
ATOM      1  C   UNL     1       5.808   5.292  18.356  0.00  0.00    +0.000 A 
ATOM      2  N   UNL     1       5.376   4.977  17.082  0.00  0.00    +0.000 NA
ATOM      3  C   UNL     1       6.484   4.852  16.384  0.00  0.00    +0.000 A 
ATOM      4  O   UNL     1       7.630   4.987  17.120  0.00  0.00    +0.000 OA
ATOM      5  C   UNL     1       7.188   5.270  18.382  0.00  0.00    +0.000 A 
ATOM      6  C   UNL     1       8.212   5.537  19.409  0.00  0.00    +0.000 C 
ENDROOT
BRANCH   3   7
ATOM      7  C   UNL     1       6.635   4.641  14.950  0.00  0.00    +0.000 A 
ATOM      8  C   UNL     1       7.543   5.432  14.230  0.00  0.00    +0.000 A 
ATOM      9  C   UNL     1       7.697   5.252  12.860  0.00  0.00    +0.000 A 
ATOM     10  F   UNL     1       8.566   6.016  12.187  0.00  0.00    +0.000 F 
ATOM     11  C   UNL     1       6.962   4.293  12.178  0.00  0.00    +0.000 A 
ATOM     12  C   UNL     1       6.073   3.503  12.890  0.00  0.00    +0.000 A 
ATOM     13  F   UNL     1       5.360   2.571  12.247  0.00  0.00    +0.000 F 
ATOM     14  C   UNL     1       5.903   3.664  14.264  0.00  0.00    +0.000 A 
ENDBRANCH   3   7
BRANCH   1  15
ATOM     15  C   UNL     1       4.844   5.667  19.437  0.00  0.00    +0.000 C 
BRANCH  15  16
ATOM     16  N   UNL     1       3.433   5.358  19.100  0.00  0.00    +0.000 NA
BRANCH  16  18
ATOM     17  C   UNL     1       3.062   7.531  17.847  0.00  0.00    +0.000 C 
ATOM     18  C   UNL     1       2.585   6.551  18.916  0.00  0.00    +0.000 C 
ENDBRANCH  16  18
BRANCH  16  19
ATOM     19  C   UNL     1       2.854   4.423  20.093  0.00  0.00    +0.000 C 
BRANCH  19  20
ATOM     20  C   UNL     1       2.353   3.062  19.571  0.00  0.00    +0.000 C 
ATOM     21  C   UNL     1       1.702   3.118  18.195  0.00  0.00    +0.000 C 
ATOM     22  C   UNL     1       2.794   2.637  17.272  0.00  0.00    +0.000 C 
ATOM     23  C   UNL     1       3.521   1.638  18.138  0.00  0.00    +0.000 C 
ATOM     24  O   UNL     1       3.494   2.178  19.461  0.00  0.00    +0.000 OA
ENDBRANCH  19  20
ENDBRANCH  16  19
ENDBRANCH  15  16
ENDBRANCH   1  15
TORSDOF 6
ENDMDL
MODEL 5
REMARK VINA RESULT:      -7.9      1.368      3.318
REMARK  Name = 
REMARK  8 active torsions:
REMARK  status: ('A' for Active; 'I' for Inactive)
REMARK    1  A    between atoms: C_1  and  C_2
REMARK    2  A    between atoms: C_2  and  N_3
REMARK    3  A    between atoms: N_3  and  C_4
REMARK    4  A    between atoms: N_3  and  C_19
REMARK    5  A    between atoms: C_4  and  C_5
REMARK    6  A    between atoms: C_7  and  C_8
REMARK    7  A    between atoms: C_17  and  C_18
REMARK    8  A    between atoms: C_19  and  C_20
REMARK                            x       y       z     vdW  Elec       q    Type
REMARK                         _______ _______ _______ _____ _____    ______ ____
ROOT
ATOM      1  C   UNL     1       4.761   3.990  17.953  0.00  0.00    +0.000 A 
ATOM      2  N   UNL     1       4.740   3.602  16.626  0.00  0.00    +0.000 NA
ATOM      3  C   UNL     1       5.808   4.166  16.105  0.00  0.00    +0.000 A 
ATOM      4  O   UNL     1       6.582   4.843  17.007  0.00  0.00    +0.000 OA
ATOM      5  C   UNL     1       5.904   4.727  18.188  0.00  0.00    +0.000 A 
ATOM      6  C   UNL     1       6.469   5.421  19.360  0.00  0.00    +0.000 C 
ENDROOT
BRANCH   3   7
ATOM      7  C   UNL     1       6.228   4.198  14.710  0.00  0.00    +0.000 A 
ATOM      8  C   UNL     1       7.278   5.047  14.328  0.00  0.00    +0.000 A 
ATOM      9  C   UNL     1       7.690   5.098  13.000  0.00  0.00    +0.000 A 
ATOM     10  F   UNL     1       8.691   5.914  12.651  0.00  0.00    +0.000 F 
ATOM     11  C   UNL     1       7.077   4.317  12.031  0.00  0.00    +0.000 A 
ATOM     12  C   UNL     1       6.047   3.469  12.411  0.00  0.00    +0.000 A 
ATOM     13  F   UNL     1       5.448   2.707  11.487  0.00  0.00    +0.000 F 
ATOM     14  C   UNL     1       5.619   3.400  13.734  0.00  0.00    +0.000 A 
ENDBRANCH   3   7
BRANCH   1  15
ATOM     15  C   UNL     1       3.625   3.679  18.875  0.00  0.00    +0.000 C 
BRANCH  15  16
ATOM     16  N   UNL     1       3.162   4.851  19.657  0.00  0.00    +0.000 NA
BRANCH  16  18
ATOM     17  C   UNL     1       0.940   3.944  20.476  0.00  0.00    +0.000 C 
ATOM     18  C   UNL     1       2.319   4.504  20.816  0.00  0.00    +0.000 C 
ENDBRANCH  16  18
BRANCH  16  19
ATOM     19  C   UNL     1       2.498   5.837  18.772  0.00  0.00    +0.000 C 
BRANCH  19  20
ATOM     20  C   UNL     1       2.864   7.321  18.971  0.00  0.00    +0.000 C 
ATOM     21  C   UNL     1       2.808   8.159  17.700  0.00  0.00    +0.000 C 
ATOM     22  C   UNL     1       1.481   8.869  17.810  0.00  0.00    +0.000 C 
ATOM     23  C   UNL     1       1.351   9.066  19.301  0.00  0.00    +0.000 C 
ATOM     24  O   UNL     1       1.913   7.895  19.898  0.00  0.00    +0.000 OA
ENDBRANCH  19  20
ENDBRANCH  16  19
ENDBRANCH  15  16
ENDBRANCH   1  15
TORSDOF 6
ENDMDL
MODEL 6
REMARK VINA RESULT:      -7.8      1.146      2.103
REMARK  Name = 
REMARK  8 active torsions:
REMARK  status: ('A' for Active; 'I' for Inactive)
REMARK    1  A    between atoms: C_1  and  C_2
REMARK    2  A    between atoms: C_2  and  N_3
REMARK    3  A    between atoms: N_3  and  C_4
REMARK    4  A    between atoms: N_3  and  C_19
REMARK    5  A    between atoms: C_4  and  C_5
REMARK    6  A    between atoms: C_7  and  C_8
REMARK    7  A    between atoms: C_17  and  C_18
REMARK    8  A    between atoms: C_19  and  C_20
REMARK                            x       y       z     vdW  Elec       q    Type
REMARK                         _______ _______ _______ _____ _____    ______ ____
ROOT
ATOM      1  C   UNL     1       5.460   5.347  17.975  0.00  0.00    +0.000 A 
ATOM      2  N   UNL     1       5.145   5.000  16.675  0.00  0.00    +0.000 NA
ATOM      3  C   UNL     1       6.311   4.892  16.076  0.00  0.00    +0.000 A 
ATOM      4  O   UNL     1       7.387   5.069  16.904  0.00  0.00    +0.000 OA
ATOM      5  C   UNL     1       6.832   5.361  18.118  0.00  0.00    +0.000 A 
ATOM      6  C   UNL     1       7.759   5.671  19.223  0.00  0.00    +0.000 C 
ENDROOT
BRANCH   3   7
ATOM      7  C   UNL     1       6.589   4.662  14.664  0.00  0.00    +0.000 A 
ATOM      8  C   UNL     1       7.501   5.494  13.997  0.00  0.00    +0.000 A 
ATOM      9  C   UNL     1       7.775   5.295  12.648  0.00  0.00    +0.000 A 
ATOM     10  F   UNL     1       8.646   6.099  12.026  0.00  0.00    +0.000 F 
ATOM     11  C   UNL     1       7.157   4.277  11.936  0.00  0.00    +0.000 A 
ATOM     12  C   UNL     1       6.265   3.447  12.597  0.00  0.00    +0.000 A 
ATOM     13  F   UNL     1       5.664   2.459  11.923  0.00  0.00    +0.000 F 
ATOM     14  C   UNL     1       5.976   3.626  13.948  0.00  0.00    +0.000 A 
ENDBRANCH   3   7
BRANCH   1  15
ATOM     15  C   UNL     1       4.398   5.714  18.963  0.00  0.00    +0.000 C 
BRANCH  15  16
ATOM     16  N   UNL     1       3.159   6.232  18.332  0.00  0.00    +0.000 NA
BRANCH  16  18
ATOM     17  C   UNL     1       1.981   8.435  17.891  0.00  0.00    +0.000 C 
ATOM     18  C   UNL     1       2.700   7.522  18.882  0.00  0.00    +0.000 C 
ENDBRANCH  16  18
BRANCH  16  19
ATOM     19  C   UNL     1       2.090   5.208  18.369  0.00  0.00    +0.000 C 
BRANCH  19  20
ATOM     20  C   UNL     1       2.277   4.030  19.346  0.00  0.00    +0.000 C 
ATOM     21  C   UNL     1       0.996   3.574  20.033  0.00  0.00    +0.000 C 
ATOM     22  C   UNL     1       0.592   2.354  19.243  0.00  0.00    +0.000 C 
ATOM     23  C   UNL     1       1.929   1.777  18.848  0.00  0.00    +0.000 C 
ATOM     24  O   UNL     1       2.777   2.901  18.592  0.00  0.00    +0.000 OA
ENDBRANCH  19  20
ENDBRANCH  16  19
ENDBRANCH  15  16
ENDBRANCH   1  15
TORSDOF 6
ENDMDL
MODEL 7
REMARK VINA RESULT:      -7.7      4.624      6.633
REMARK  Name = 
REMARK  8 active torsions:
REMARK  status: ('A' for Active; 'I' for Inactive)
REMARK    1  A    between atoms: C_1  and  C_2
REMARK    2  A    between atoms: C_2  and  N_3
REMARK    3  A    between atoms: N_3  and  C_4
REMARK    4  A    between atoms: N_3  and  C_19
REMARK    5  A    between atoms: C_4  and  C_5
REMARK    6  A    between atoms: C_7  and  C_8
REMARK    7  A    between atoms: C_17  and  C_18
REMARK    8  A    between atoms: C_19  and  C_20
REMARK                            x       y       z     vdW  Elec       q    Type
REMARK                         _______ _______ _______ _____ _____    ______ ____
ROOT
ATOM      1  C   UNL     1       7.068   7.235  17.489  0.00  0.00    +0.000 A 
ATOM      2  N   UNL     1       7.416   8.554  17.269  0.00  0.00    +0.000 NA
ATOM      3  C   UNL     1       8.308   8.814  18.201  0.00  0.00    +0.000 A 
ATOM      4  O   UNL     1       8.635   7.739  18.982  0.00  0.00    +0.000 OA
ATOM      5  C   UNL     1       7.834   6.732  18.521  0.00  0.00    +0.000 A 
ATOM      6  C   UNL     1       7.914   5.436  19.220  0.00  0.00    +0.000 C 
ENDROOT
BRANCH   3   7
ATOM      7  C   UNL     1       8.936  10.088  18.526  0.00  0.00    +0.000 A 
ATOM      8  C   UNL     1       9.408  10.311  19.828  0.00  0.00    +0.000 A 
ATOM      9  C   UNL     1      10.004  11.523  20.160  0.00  0.00    +0.000 A 
ATOM     10  F   UNL     1      10.447  11.720  21.408  0.00  0.00    +0.000 F 
ATOM     11  C   UNL     1      10.146  12.532  19.219  0.00  0.00    +0.000 A 
ATOM     12  C   UNL     1       9.690  12.308  17.928  0.00  0.00    +0.000 A 
ATOM     13  F   UNL     1       9.823  13.271  17.008  0.00  0.00    +0.000 F 
ATOM     14  C   UNL     1       9.091  11.102  17.572  0.00  0.00    +0.000 A 
ENDBRANCH   3   7
BRANCH   1  15
ATOM     15  C   UNL     1       5.956   6.585  16.728  0.00  0.00    +0.000 C 
BRANCH  15  16
ATOM     16  N   UNL     1       6.108   5.114  16.604  0.00  0.00    +0.000 NA
BRANCH  16  18
ATOM     17  C   UNL     1       6.446   4.416  14.189  0.00  0.00    +0.000 C 
ATOM     18  C   UNL     1       7.061   4.696  15.559  0.00  0.00    +0.000 C 
ENDBRANCH  16  18
BRANCH  16  19
ATOM     19  C   UNL     1       4.786   4.468  16.431  0.00  0.00    +0.000 C 
BRANCH  19  20
ATOM     20  C   UNL     1       3.918   4.291  17.693  0.00  0.00    +0.000 C 
ATOM     21  C   UNL     1       2.585   3.598  17.447  0.00  0.00    +0.000 C 
ATOM     22  C   UNL     1       2.842   2.180  17.893  0.00  0.00    +0.000 C 
ATOM     23  C   UNL     1       3.821   2.377  19.024  0.00  0.00    +0.000 C 
ATOM     24  O   UNL     1       4.655   3.470  18.630  0.00  0.00    +0.000 OA
ENDBRANCH  19  20
ENDBRANCH  16  19
ENDBRANCH  15  16
ENDBRANCH   1  15
TORSDOF 6
ENDMDL
MODEL 8
REMARK VINA RESULT:      -7.7      1.247      2.354
REMARK  Name = 
REMARK  8 active torsions:
REMARK  status: ('A' for Active; 'I' for Inactive)
REMARK    1  A    between atoms: C_1  and  C_2
REMARK    2  A    between atoms: C_2  and  N_3
REMARK    3  A    between atoms: N_3  and  C_4
REMARK    4  A    between atoms: N_3  and  C_19
REMARK    5  A    between atoms: C_4  and  C_5
REMARK    6  A    between atoms: C_7  and  C_8
REMARK    7  A    between atoms: C_17  and  C_18
REMARK    8  A    between atoms: C_19  and  C_20
REMARK                            x       y       z     vdW  Elec       q    Type
REMARK                         _______ _______ _______ _____ _____    ______ ____
ROOT
ATOM      1  C   UNL     1       5.653   5.565  18.054  0.00  0.00    +0.000 A 
ATOM      2  N   UNL     1       5.266   5.241  16.768  0.00  0.00    +0.000 NA
ATOM      3  C   UNL     1       6.396   5.005  16.138  0.00  0.00    +0.000 A 
ATOM      4  O   UNL     1       7.508   5.075  16.932  0.00  0.00    +0.000 OA
ATOM      5  C   UNL     1       7.023   5.436  18.159  0.00  0.00    +0.000 A 
ATOM      6  C   UNL     1       8.009   5.657  19.233  0.00  0.00    +0.000 C 
ENDROOT
BRANCH   3   7
ATOM      7  C   UNL     1       6.607   4.734  14.721  0.00  0.00    +0.000 A 
ATOM      8  C   UNL     1       7.515   5.520  13.997  0.00  0.00    +0.000 A 
ATOM      9  C   UNL     1       7.725   5.282  12.643  0.00  0.00    +0.000 A 
ATOM     10  F   UNL     1       8.593   6.044  11.966  0.00  0.00    +0.000 F 
ATOM     11  C   UNL     1       7.047   4.269  11.982  0.00  0.00    +0.000 A 
ATOM     12  C   UNL     1       6.158   3.483  12.700  0.00  0.00    +0.000 A 
ATOM     13  F   UNL     1       5.498   2.499  12.076  0.00  0.00    +0.000 F 
ATOM     14  C   UNL     1       5.932   3.701  14.057  0.00  0.00    +0.000 A 
ENDBRANCH   3   7
BRANCH   1  15
ATOM     15  C   UNL     1       4.666   6.052  19.067  0.00  0.00    +0.000 C 
BRANCH  15  16
ATOM     16  N   UNL     1       3.441   5.218  19.144  0.00  0.00    +0.000 NA
BRANCH  16  18
ATOM     17  C   UNL     1       1.546   5.874  20.697  0.00  0.00    +0.000 C 
ATOM     18  C   UNL     1       2.198   5.993  19.322  0.00  0.00    +0.000 C 
ENDBRANCH  16  18
BRANCH  16  19
ATOM     19  C   UNL     1       3.588   4.173  20.184  0.00  0.00    +0.000 C 
BRANCH  19  20
ATOM     20  C   UNL     1       3.305   2.717  19.763  0.00  0.00    +0.000 C 
ATOM     21  C   UNL     1       1.858   2.278  19.952  0.00  0.00    +0.000 C 
ATOM     22  C   UNL     1       1.278   2.387  18.564  0.00  0.00    +0.000 C 
ATOM     23  C   UNL     1       2.462   2.033  17.698  0.00  0.00    +0.000 C 
ATOM     24  O   UNL     1       3.603   2.593  18.353  0.00  0.00    +0.000 OA
ENDBRANCH  19  20
ENDBRANCH  16  19
ENDBRANCH  15  16
ENDBRANCH   1  15
TORSDOF 6
ENDMDL
MODEL 9
REMARK VINA RESULT:      -7.7      4.579      6.700
REMARK  Name = 
REMARK  8 active torsions:
REMARK  status: ('A' for Active; 'I' for Inactive)
REMARK    1  A    between atoms: C_1  and  C_2
REMARK    2  A    between atoms: C_2  and  N_3
REMARK    3  A    between atoms: N_3  and  C_4
REMARK    4  A    between atoms: N_3  and  C_19
REMARK    5  A    between atoms: C_4  and  C_5
REMARK    6  A    between atoms: C_7  and  C_8
REMARK    7  A    between atoms: C_17  and  C_18
REMARK    8  A    between atoms: C_19  and  C_20
REMARK                            x       y       z     vdW  Elec       q    Type
REMARK                         _______ _______ _______ _____ _____    ______ ____
ROOT
ATOM      1  C   UNL     1       7.136   7.183  17.498  0.00  0.00    +0.000 A 
ATOM      2  N   UNL     1       7.464   8.512  17.309  0.00  0.00    +0.000 NA
ATOM      3  C   UNL     1       8.334   8.771  18.260  0.00  0.00    +0.000 A 
ATOM      4  O   UNL     1       8.668   7.688  19.027  0.00  0.00    +0.000 OA
ATOM      5  C   UNL     1       7.895   6.674  18.533  0.00  0.00    +0.000 A 
ATOM      6  C   UNL     1       7.986   5.367  19.210  0.00  0.00    +0.000 C 
ENDROOT
BRANCH   3   7
ATOM      7  C   UNL     1       8.933  10.050  18.619  0.00  0.00    +0.000 A 
ATOM      8  C   UNL     1       9.115  11.027  17.629  0.00  0.00    +0.000 A 
ATOM      9  C   UNL     1       9.692  12.252  17.950  0.00  0.00    +0.000 A 
ATOM     10  F   UNL     1       9.861  13.172  16.994  0.00  0.00    +0.000 F 
ATOM     11  C   UNL     1      10.097  12.533  19.247  0.00  0.00    +0.000 A 
ATOM     12  C   UNL     1       9.906  11.573  20.228  0.00  0.00    +0.000 A 
ATOM     13  F   UNL     1      10.288  11.831  21.485  0.00  0.00    +0.000 F 
ATOM     14  C   UNL     1       9.329  10.339  19.931  0.00  0.00    +0.000 A 
ENDBRANCH   3   7
BRANCH   1  15
ATOM     15  C   UNL     1       6.050   6.527  16.706  0.00  0.00    +0.000 C 
BRANCH  15  16
ATOM     16  N   UNL     1       6.436   5.202  16.161  0.00  0.00    +0.000 NA
BRANCH  16  18
ATOM     17  C   UNL     1       6.131   3.888  14.013  0.00  0.00    +0.000 C 
ATOM     18  C   UNL     1       6.584   5.178  14.693  0.00  0.00    +0.000 C 
ENDBRANCH  16  18
BRANCH  16  19
ATOM     19  C   UNL     1       5.503   4.153  16.635  0.00  0.00    +0.000 C 
BRANCH  19  20
ATOM     20  C   UNL     1       4.545   4.529  17.783  0.00  0.00    +0.000 C 
ATOM     21  C   UNL     1       3.072   4.294  17.475  0.00  0.00    +0.000 C 
ATOM     22  C   UNL     1       2.775   2.988  18.169  0.00  0.00    +0.000 C 
ATOM     23  C   UNL     1       3.680   3.059  19.374  0.00  0.00    +0.000 C 
ATOM     24  O   UNL     1       4.874   3.706  18.926  0.00  0.00    +0.000 OA
ENDBRANCH  19  20
ENDBRANCH  16  19
ENDBRANCH  15  16
ENDBRANCH   1  15
TORSDOF 6
ENDMDL
