MODEL 1
REMARK VINA RESULT:      -7.8      0.000      0.000
REMARK  Name = 
REMARK  5 active torsions:
REMARK  status: ('A' for Active; 'I' for Inactive)
REMARK    1  A    between atoms: C_1  and  C_2
REMARK    2  A    between atoms: C_2  and  C_3
REMARK    3  A    between atoms: N_7  and  C_8
REMARK    4  A    between atoms: C_8  and  C_9
REMARK    5  A    between atoms: C_9  and  C_10
REMARK                            x       y       z     vdW  Elec       q    Type
REMARK                         _______ _______ _______ _____ _____    ______ ____
ROOT
ATOM      1  C   UNL     1       2.987   5.224  18.106  0.00  0.00    +0.000 C 
ATOM      2  O   UNL     1       2.764   6.010  19.020  0.00  0.00    +0.000 OA
ATOM      3  N   UNL     1       4.194   5.186  17.390  0.00  0.00    +0.000 N 
ATOM      4  C   UNL     1       4.372   4.410  16.159  0.00  0.00    +0.000 C 
ATOM      5  C   UNL     1       5.748   3.770  16.094  0.00  0.00    +0.000 C 
ATOM      6  C   UNL     1       6.847   4.816  16.234  0.00  0.00    +0.000 C 
ATOM      7  C   UNL     1       6.670   5.655  17.505  0.00  0.00    +0.000 C 
ATOM      8  C   UNL     1       7.722   6.755  17.581  0.00  0.00    +0.000 C 
ATOM      9  N   UNL     1       8.048   6.768  18.963  0.00  0.00    +0.000 N 
ATOM     10  C   UNL     1       7.724   5.565  19.527  0.00  0.00    +0.000 C 
ATOM     11  O   UNL     1       8.098   5.183  20.624  0.00  0.00    +0.000 OA
ATOM     12  O   UNL     1       6.972   4.831  18.656  0.00  0.00    +0.000 OA
ATOM     13  C   UNL     1       5.228   6.204  17.647  0.00  0.00    +0.000 C 
ATOM     14  H   UNL     1       8.778   7.319  19.397  0.00  0.00    +0.000 HD
ENDROOT
BRANCH   1  15
ATOM     15  C   UNL     1       1.942   4.223  17.646  0.00  0.00    +0.000 C 
BRANCH  15  16
ATOM     16  C   UNL     1       2.060   2.803  18.174  0.00  0.00    +0.000 C 
BRANCH  16  21
ATOM     17  C   UNL     1       3.147   2.576  20.491  0.00  0.00    +0.000 A 
ATOM     18  N   UNL     1       2.737   2.618  21.747  0.00  0.00    +0.000 NA
ATOM     19  C   UNL     1       1.405   2.919  21.708  0.00  0.00    +0.000 A 
ATOM     20  C   UNL     1       0.978   3.044  20.411  0.00  0.00    +0.000 A 
ATOM     21  N   UNL     1       2.092   2.832  19.636  0.00  0.00    +0.000 N 
BRANCH  17  23
ATOM     22  C   UNL     1       5.245   1.260  20.937  0.00  0.00    +0.000 C 
ATOM     23  C   UNL     1       4.566   2.327  20.089  0.00  0.00    +0.000 C 
ENDBRANCH  17  23
ENDBRANCH  16  21
ENDBRANCH  15  16
ENDBRANCH   1  15
TORSDOF 4
ENDMDL
MODEL 2
REMARK VINA RESULT:      -7.7      0.778      1.703
REMARK  Name = 
REMARK  5 active torsions:
REMARK  status: ('A' for Active; 'I' for Inactive)
REMARK    1  A    between atoms: C_1  and  C_2
REMARK    2  A    between atoms: C_2  and  C_3
REMARK    3  A    between atoms: N_7  and  C_8
REMARK    4  A    between atoms: C_8  and  C_9
REMARK    5  A    between atoms: C_9  and  C_10
REMARK                            x       y       z     vdW  Elec       q    Type
REMARK                         _______ _______ _______ _____ _____    ______ ____
ROOT
ATOM      1  C   UNL     1       3.002   5.145  17.938  0.00  0.00    +0.000 C 
ATOM      2  O   UNL     1       2.740   5.911  18.859  0.00  0.00    +0.000 OA
ATOM      3  N   UNL     1       4.224   5.147  17.248  0.00  0.00    +0.000 N 
ATOM      4  C   UNL     1       4.448   4.394  16.011  0.00  0.00    +0.000 C 
ATOM      5  C   UNL     1       5.841   3.788  15.967  0.00  0.00    +0.000 C 
ATOM      6  C   UNL     1       6.911   4.858  16.146  0.00  0.00    +0.000 C 
ATOM      7  C   UNL     1       6.686   5.673  17.425  0.00  0.00    +0.000 C 
ATOM      8  C   UNL     1       7.709   6.798  17.540  0.00  0.00    +0.000 C 
ATOM      9  N   UNL     1       8.004   6.797  18.929  0.00  0.00    +0.000 N 
ATOM     10  C   UNL     1       7.697   5.578  19.468  0.00  0.00    +0.000 C 
ATOM     11  O   UNL     1       8.056   5.189  20.567  0.00  0.00    +0.000 OA
ATOM     12  O   UNL     1       6.983   4.840  18.570  0.00  0.00    +0.000 OA
ATOM     13  C   UNL     1       5.228   6.185  17.543  0.00  0.00    +0.000 C 
ATOM     14  H   UNL     1       8.711   7.359  19.387  0.00  0.00    +0.000 HD
ENDROOT
BRANCH   1  15
ATOM     15  C   UNL     1       1.991   4.126  17.440  0.00  0.00    +0.000 C 
BRANCH  15  16
ATOM     16  C   UNL     1       1.574   3.032  18.408  0.00  0.00    +0.000 C 
BRANCH  16  21
ATOM     17  C   UNL     1       3.240   2.673  20.332  0.00  0.00    +0.000 A 
ATOM     18  N   UNL     1       4.398   2.056  20.490  0.00  0.00    +0.000 NA
ATOM     19  C   UNL     1       4.671   1.437  19.303  0.00  0.00    +0.000 A 
ATOM     20  C   UNL     1       3.679   1.690  18.390  0.00  0.00    +0.000 A 
ATOM     21  N   UNL     1       2.764   2.473  19.050  0.00  0.00    +0.000 N 
BRANCH  17  23
ATOM     22  C   UNL     1       1.304   2.730  21.939  0.00  0.00    +0.000 C 
ATOM     23  C   UNL     1       2.550   3.434  21.419  0.00  0.00    +0.000 C 
ENDBRANCH  17  23
ENDBRANCH  16  21
ENDBRANCH  15  16
ENDBRANCH   1  15
TORSDOF 4
ENDMDL
MODEL 3
REMARK VINA RESULT:      -7.2      1.983      6.045
REMARK  Name = 
REMARK  5 active torsions:
REMARK  status: ('A' for Active; 'I' for Inactive)
REMARK    1  A    between atoms: C_1  and  C_2
REMARK    2  A    between atoms: C_2  and  C_3
REMARK    3  A    between atoms: N_7  and  C_8
REMARK    4  A    between atoms: C_8  and  C_9
REMARK    5  A    between atoms: C_9  and  C_10
REMARK                            x       y       z     vdW  Elec       q    Type
REMARK                         _______ _______ _______ _____ _____    ______ ____
ROOT
ATOM      1  C   UNL     1       4.158   4.967  16.870  0.00  0.00    +0.000 C 
ATOM      2  O   UNL     1       4.302   3.824  16.448  0.00  0.00    +0.000 OA
ATOM      3  N   UNL     1       3.216   5.323  17.847  0.00  0.00    +0.000 N 
ATOM      4  C   UNL     1       2.892   6.713  18.179  0.00  0.00    +0.000 C 
ATOM      5  C   UNL     1       2.671   6.896  19.671  0.00  0.00    +0.000 C 
ATOM      6  C   UNL     1       1.590   5.954  20.186  0.00  0.00    +0.000 C 
ATOM      7  C   UNL     1       1.898   4.494  19.833  0.00  0.00    +0.000 C 
ATOM      8  C   UNL     1       0.763   3.577  20.273  0.00  0.00    +0.000 C 
ATOM      9  N   UNL     1       1.463   2.437  20.751  0.00  0.00    +0.000 N 
ATOM     10  C   UNL     1       2.741   2.786  21.090  0.00  0.00    +0.000 C 
ATOM     11  O   UNL     1       3.503   2.097  21.748  0.00  0.00    +0.000 OA
ATOM     12  O   UNL     1       3.015   4.043  20.635  0.00  0.00    +0.000 OA
ATOM     13  C   UNL     1       2.255   4.318  18.335  0.00  0.00    +0.000 C 
ATOM     14  H   UNL     1       1.049   1.634  21.207  0.00  0.00    +0.000 HD
ENDROOT
BRANCH   1  15
ATOM     15  C   UNL     1       4.989   6.121  16.335  0.00  0.00    +0.000 C 
BRANCH  15  16
ATOM     16  C   UNL     1       6.477   5.877  16.149  0.00  0.00    +0.000 C 
BRANCH  16  21
ATOM     17  C   UNL     1       7.757   7.103  18.011  0.00  0.00    +0.000 A 
ATOM     18  N   UNL     1       8.334   6.770  19.151  0.00  0.00    +0.000 NA
ATOM     19  C   UNL     1       8.091   5.438  19.333  0.00  0.00    +0.000 A 
ATOM     20  C   UNL     1       7.371   4.934  18.280  0.00  0.00    +0.000 A 
ATOM     21  N   UNL     1       7.153   5.998  17.441  0.00  0.00    +0.000 N 
BRANCH  17  23
ATOM     22  C   UNL     1       8.529   9.478  18.318  0.00  0.00    +0.000 C 
ATOM     23  C   UNL     1       7.741   8.495  17.464  0.00  0.00    +0.000 C 
ENDBRANCH  17  23
ENDBRANCH  16  21
ENDBRANCH  15  16
ENDBRANCH   1  15
TORSDOF 4
ENDMDL
MODEL 4
REMARK VINA RESULT:      -7.2      2.417      5.925
REMARK  Name = 
REMARK  5 active torsions:
REMARK  status: ('A' for Active; 'I' for Inactive)
REMARK    1  A    between atoms: C_1  and  C_2
REMARK    2  A    between atoms: C_2  and  C_3
REMARK    3  A    between atoms: N_7  and  C_8
REMARK    4  A    between atoms: C_8  and  C_9
REMARK    5  A    between atoms: C_9  and  C_10
REMARK                            x       y       z     vdW  Elec       q    Type
REMARK                         _______ _______ _______ _____ _____    ______ ____
ROOT
ATOM      1  C   UNL     1       3.208   6.811  18.210  0.00  0.00    +0.000 C 
ATOM      2  O   UNL     1       2.088   7.305  18.127  0.00  0.00    +0.000 OA
ATOM      3  N   UNL     1       3.511   5.703  19.016  0.00  0.00    +0.000 N 
ATOM      4  C   UNL     1       4.881   5.261  19.290  0.00  0.00    +0.000 C 
ATOM      5  C   UNL     1       4.987   3.746  19.314  0.00  0.00    +0.000 C 
ATOM      6  C   UNL     1       4.018   3.144  20.322  0.00  0.00    +0.000 C 
ATOM      7  C   UNL     1       2.579   3.608  20.068  0.00  0.00    +0.000 C 
ATOM      8  C   UNL     1       1.637   3.071  21.141  0.00  0.00    +0.000 C 
ATOM      9  N   UNL     1       0.476   2.746  20.389  0.00  0.00    +0.000 N 
ATOM     10  C   UNL     1       0.811   2.559  19.077  0.00  0.00    +0.000 C 
ATOM     11  O   UNL     1       0.092   2.042  18.238  0.00  0.00    +0.000 OA
ATOM     12  O   UNL     1       2.090   2.982  18.859  0.00  0.00    +0.000 OA
ATOM     13  C   UNL     1       2.480   5.146  19.910  0.00  0.00    +0.000 C 
ATOM     14  H   UNL     1      -0.351   2.282  20.744  0.00  0.00    +0.000 HD
ENDROOT
BRANCH   1  15
ATOM     15  C   UNL     1       4.390   7.390  17.451  0.00  0.00    +0.000 C 
BRANCH  15  16
ATOM     16  C   UNL     1       4.627   6.878  16.041  0.00  0.00    +0.000 C 
BRANCH  16  21
ATOM     17  C   UNL     1       6.945   5.891  16.546  0.00  0.00    +0.000 A 
ATOM     18  N   UNL     1       7.573   4.754  16.303  0.00  0.00    +0.000 NA
ATOM     19  C   UNL     1       6.671   3.941  15.676  0.00  0.00    +0.000 A 
ATOM     20  C   UNL     1       5.475   4.591  15.509  0.00  0.00    +0.000 A 
ATOM     21  N   UNL     1       5.650   5.832  16.071  0.00  0.00    +0.000 N 
BRANCH  17  23
ATOM     22  C   UNL     1       8.064   6.669  18.662  0.00  0.00    +0.000 C 
ATOM     23  C   UNL     1       7.565   7.042  17.272  0.00  0.00    +0.000 C 
ENDBRANCH  17  23
ENDBRANCH  16  21
ENDBRANCH  15  16
ENDBRANCH   1  15
TORSDOF 4
ENDMDL
MODEL 5
REMARK VINA RESULT:      -7.1      5.145      7.265
REMARK  Name = 
REMARK  5 active torsions:
REMARK  status: ('A' for Active; 'I' for Inactive)
REMARK    1  A    between atoms: C_1  and  C_2
REMARK    2  A    between atoms: C_2  and  C_3
REMARK    3  A    between atoms: N_7  and  C_8
REMARK    4  A    between atoms: C_8  and  C_9
REMARK    5  A    between atoms: C_9  and  C_10
REMARK                            x       y       z     vdW  Elec       q    Type
REMARK                         _______ _______ _______ _____ _____    ______ ____
ROOT
ATOM      1  C   UNL     1       2.090   8.499  18.372  0.00  0.00    +0.000 C 
ATOM      2  O   UNL     1       2.452   8.794  17.238  0.00  0.00    +0.000 OA
ATOM      3  N   UNL     1       1.301   9.332  19.179  0.00  0.00    +0.000 N 
ATOM      4  C   UNL     1       1.064   9.080  20.603  0.00  0.00    +0.000 C 
ATOM      5  C   UNL     1      -0.362   9.419  21.003  0.00  0.00    +0.000 C 
ATOM      6  C   UNL     1      -0.704  10.860  20.650  0.00  0.00    +0.000 C 
ATOM      7  C   UNL     1      -0.445  11.154  19.167  0.00  0.00    +0.000 C 
ATOM      8  C   UNL     1      -0.703  12.623  18.851  0.00  0.00    +0.000 C 
ATOM      9  N   UNL     1      -1.324  12.554  17.575  0.00  0.00    +0.000 N 
ATOM     10  C   UNL     1      -1.871  11.314  17.393  0.00  0.00    +0.000 C 
ATOM     11  O   UNL     1      -2.668  11.023  16.516  0.00  0.00    +0.000 OA
ATOM     12  O   UNL     1      -1.440  10.467  18.372  0.00  0.00    +0.000 OA
ATOM     13  C   UNL     1       0.963  10.691  18.716  0.00  0.00    +0.000 C 
ATOM     14  H   UNL     1      -1.720  13.332  17.064  0.00  0.00    +0.000 HD
ENDROOT
BRANCH   1  15
ATOM     15  C   UNL     1       2.500   7.187  19.020  0.00  0.00    +0.000 C 
BRANCH  15  16
ATOM     16  C   UNL     1       2.238   5.914  18.235  0.00  0.00    +0.000 C 
BRANCH  16  21
ATOM     17  C   UNL     1       2.743   3.974  19.844  0.00  0.00    +0.000 A 
ATOM     18  N   UNL     1       3.774   3.187  20.097  0.00  0.00    +0.000 NA
ATOM     19  C   UNL     1       4.745   3.521  19.195  0.00  0.00    +0.000 A 
ATOM     20  C   UNL     1       4.318   4.542  18.386  0.00  0.00    +0.000 A 
ATOM     21  N   UNL     1       3.039   4.825  18.796  0.00  0.00    +0.000 N 
BRANCH  17  23
ATOM     22  C   UNL     1       1.346   2.687  21.494  0.00  0.00    +0.000 C 
ATOM     23  C   UNL     1       1.442   3.899  20.577  0.00  0.00    +0.000 C 
ENDBRANCH  17  23
ENDBRANCH  16  21
ENDBRANCH  15  16
ENDBRANCH   1  15
TORSDOF 4
ENDMDL
MODEL 6
REMARK VINA RESULT:      -7.0      5.132      7.150
REMARK  Name = 
REMARK  5 active torsions:
REMARK  status: ('A' for Active; 'I' for Inactive)
REMARK    1  A    between atoms: C_1  and  C_2
REMARK    2  A    between atoms: C_2  and  C_3
REMARK    3  A    between atoms: N_7  and  C_8
REMARK    4  A    between atoms: C_8  and  C_9
REMARK    5  A    between atoms: C_9  and  C_10
REMARK                            x       y       z     vdW  Elec       q    Type
REMARK                         _______ _______ _______ _____ _____    ______ ____
ROOT
ATOM      1  C   UNL     1       2.034   8.424  18.428  0.00  0.00    +0.000 C 
ATOM      2  O   UNL     1       2.371   8.653  17.271  0.00  0.00    +0.000 OA
ATOM      3  N   UNL     1       1.275   9.311  19.207  0.00  0.00    +0.000 N 
ATOM      4  C   UNL     1       1.072   9.139  20.648  0.00  0.00    +0.000 C 
ATOM      5  C   UNL     1      -0.339   9.518  21.064  0.00  0.00    +0.000 C 
ATOM      6  C   UNL     1      -0.673  10.943  20.641  0.00  0.00    +0.000 C 
ATOM      7  C   UNL     1      -0.449  11.153  19.139  0.00  0.00    +0.000 C 
ATOM      8  C   UNL     1      -0.697  12.606  18.749  0.00  0.00    +0.000 C 
ATOM      9  N   UNL     1      -1.350  12.475  17.495  0.00  0.00    +0.000 N 
ATOM     10  C   UNL     1      -1.917  11.235  17.394  0.00  0.00    +0.000 C 
ATOM     11  O   UNL     1      -2.739  10.908  16.554  0.00  0.00    +0.000 OA
ATOM     12  O   UNL     1      -1.471  10.437  18.407  0.00  0.00    +0.000 OA
ATOM     13  C   UNL     1       0.943  10.646  18.679  0.00  0.00    +0.000 C 
ATOM     14  H   UNL     1      -1.750  13.230  16.952  0.00  0.00    +0.000 HD
ENDROOT
BRANCH   1  15
ATOM     15  C   UNL     1       2.444   7.145  19.136  0.00  0.00    +0.000 C 
BRANCH  15  16
ATOM     16  C   UNL     1       2.372   5.855  18.336  0.00  0.00    +0.000 C 
BRANCH  16  21
ATOM     17  C   UNL     1       1.963   3.396  18.963  0.00  0.00    +0.000 A 
ATOM     18  N   UNL     1       1.508   2.742  20.017  0.00  0.00    +0.000 NA
ATOM     19  C   UNL     1       1.278   3.680  20.983  0.00  0.00    +0.000 A 
ATOM     20  C   UNL     1       1.574   4.934  20.515  0.00  0.00    +0.000 A 
ATOM     21  N   UNL     1       2.017   4.751  19.229  0.00  0.00    +0.000 N 
BRANCH  17  23
ATOM     22  C   UNL     1       3.558   1.774  17.888  0.00  0.00    +0.000 C 
ATOM     23  C   UNL     1       2.390   2.731  17.693  0.00  0.00    +0.000 C 
ENDBRANCH  17  23
ENDBRANCH  16  21
ENDBRANCH  15  16
ENDBRANCH   1  15
TORSDOF 4
ENDMDL
MODEL 7
REMARK VINA RESULT:      -7.0      5.159      7.364
REMARK  Name = 
REMARK  5 active torsions:
REMARK  status: ('A' for Active; 'I' for Inactive)
REMARK    1  A    between atoms: C_1  and  C_2
REMARK    2  A    between atoms: C_2  and  C_3
REMARK    3  A    between atoms: N_7  and  C_8
REMARK    4  A    between atoms: C_8  and  C_9
REMARK    5  A    between atoms: C_9  and  C_10
REMARK                            x       y       z     vdW  Elec       q    Type
REMARK                         _______ _______ _______ _____ _____    ______ ____
ROOT
ATOM      1  C   UNL     1       2.043   8.455  18.432  0.00  0.00    +0.000 C 
ATOM      2  O   UNL     1       2.387   8.701  17.281  0.00  0.00    +0.000 OA
ATOM      3  N   UNL     1       1.275   9.328  19.218  0.00  0.00    +0.000 N 
ATOM      4  C   UNL     1       1.061   9.136  20.655  0.00  0.00    +0.000 C 
ATOM      5  C   UNL     1      -0.354   9.504  21.065  0.00  0.00    +0.000 C 
ATOM      6  C   UNL     1      -0.690  10.933  20.659  0.00  0.00    +0.000 C 
ATOM      7  C   UNL     1      -0.455  11.164  19.162  0.00  0.00    +0.000 C 
ATOM      8  C   UNL     1      -0.706  12.622  18.791  0.00  0.00    +0.000 C 
ATOM      9  N   UNL     1      -1.349  12.507  17.530  0.00  0.00    +0.000 N 
ATOM     10  C   UNL     1      -1.910  11.265  17.407  0.00  0.00    +0.000 C 
ATOM     11  O   UNL     1      -2.726  10.947  16.557  0.00  0.00    +0.000 OA
ATOM     12  O   UNL     1      -1.470  10.455  18.413  0.00  0.00    +0.000 OA
ATOM     13  C   UNL     1       0.941  10.670  18.706  0.00  0.00    +0.000 C 
ATOM     14  H   UNL     1      -1.748  13.267  16.994  0.00  0.00    +0.000 HD
ENDROOT
BRANCH   1  15
ATOM     15  C   UNL     1       2.452   7.167  19.125  0.00  0.00    +0.000 C 
BRANCH  15  16
ATOM     16  C   UNL     1       2.491   5.906  18.280  0.00  0.00    +0.000 C 
BRANCH  16  21
ATOM     17  C   UNL     1       3.937   3.997  19.212  0.00  0.00    +0.000 A 
ATOM     18  N   UNL     1       5.229   3.736  19.306  0.00  0.00    +0.000 NA
ATOM     19  C   UNL     1       5.877   4.760  18.675  0.00  0.00    +0.000 A 
ATOM     20  C   UNL     1       4.976   5.679  18.201  0.00  0.00    +0.000 A 
ATOM     21  N   UNL     1       3.739   5.187  18.539  0.00  0.00    +0.000 N 
BRANCH  17  23
ATOM     22  C   UNL     1       2.292   2.174  18.663  0.00  0.00    +0.000 C 
ATOM     23  C   UNL     1       2.868   3.091  19.733  0.00  0.00    +0.000 C 
ENDBRANCH  17  23
ENDBRANCH  16  21
ENDBRANCH  15  16
ENDBRANCH   1  15
TORSDOF 4
ENDMDL
MODEL 8
REMARK VINA RESULT:      -7.0      5.141      7.288
REMARK  Name = 
REMARK  5 active torsions:
REMARK  status: ('A' for Active; 'I' for Inactive)
REMARK    1  A    between atoms: C_1  and  C_2
REMARK    2  A    between atoms: C_2  and  C_3
REMARK    3  A    between atoms: N_7  and  C_8
REMARK    4  A    between atoms: C_8  and  C_9
REMARK    5  A    between atoms: C_9  and  C_10
REMARK                            x       y       z     vdW  Elec       q    Type
REMARK                         _______ _______ _______ _____ _____    ______ ____
ROOT
ATOM      1  C   UNL     1       2.136   8.520  18.174  0.00  0.00    +0.000 C 
ATOM      2  O   UNL     1       2.457   8.897  17.052  0.00  0.00    +0.000 OA
ATOM      3  N   UNL     1       1.372   9.290  19.064  0.00  0.00    +0.000 N 
ATOM      4  C   UNL     1       1.187   8.937  20.474  0.00  0.00    +0.000 C 
ATOM      5  C   UNL     1      -0.226   9.237  20.947  0.00  0.00    +0.000 C 
ATOM      6  C   UNL     1      -0.587  10.697  20.707  0.00  0.00    +0.000 C 
ATOM      7  C   UNL     1      -0.382  11.096  19.241  0.00  0.00    +0.000 C 
ATOM      8  C   UNL     1      -0.657  12.581  19.037  0.00  0.00    +0.000 C 
ATOM      9  N   UNL     1      -1.322  12.597  17.782  0.00  0.00    +0.000 N 
ATOM     10  C   UNL     1      -1.870  11.369  17.532  0.00  0.00    +0.000 C 
ATOM     11  O   UNL     1      -2.696  11.135  16.665  0.00  0.00    +0.000 OA
ATOM     12  O   UNL     1      -1.401  10.459  18.434  0.00  0.00    +0.000 OA
ATOM     13  C   UNL     1       1.012  10.675  18.710  0.00  0.00    +0.000 C 
ATOM     14  H   UNL     1      -1.740  13.406  17.340  0.00  0.00    +0.000 HD
ENDROOT
BRANCH   1  15
ATOM     15  C   UNL     1       2.575   7.170  18.714  0.00  0.00    +0.000 C 
BRANCH  15  16
ATOM     16  C   UNL     1       3.729   6.481  18.006  0.00  0.00    +0.000 C 
BRANCH  16  21
ATOM     17  C   UNL     1       5.267   4.688  19.019  0.00  0.00    +0.000 A 
ATOM     18  N   UNL     1       5.114   3.489  19.552  0.00  0.00    +0.000 NA
ATOM     19  C   UNL     1       3.769   3.250  19.585  0.00  0.00    +0.000 A 
ATOM     20  C   UNL     1       3.080   4.306  19.046  0.00  0.00    +0.000 A 
ATOM     21  N   UNL     1       4.037   5.225  18.691  0.00  0.00    +0.000 N 
BRANCH  17  23
ATOM     22  C   UNL     1       7.448   4.713  17.763  0.00  0.00    +0.000 C 
ATOM     23  C   UNL     1       6.594   5.357  18.847  0.00  0.00    +0.000 C 
ENDBRANCH  17  23
ENDBRANCH  16  21
ENDBRANCH  15  16
ENDBRANCH   1  15
TORSDOF 4
ENDMDL
MODEL 9
REMARK VINA RESULT:      -6.9      5.198      7.707
REMARK  Name = 
REMARK  5 active torsions:
REMARK  status: ('A' for Active; 'I' for Inactive)
REMARK    1  A    between atoms: C_1  and  C_2
REMARK    2  A    between atoms: C_2  and  C_3
REMARK    3  A    between atoms: N_7  and  C_8
REMARK    4  A    between atoms: C_8  and  C_9
REMARK    5  A    between atoms: C_9  and  C_10
REMARK                            x       y       z     vdW  Elec       q    Type
REMARK                         _______ _______ _______ _____ _____    ______ ____
ROOT
ATOM      1  C   UNL     1       2.055   8.516  18.353  0.00  0.00    +0.000 C 
ATOM      2  O   UNL     1       2.404   8.800  17.212  0.00  0.00    +0.000 OA
ATOM      3  N   UNL     1       1.298   9.369  19.171  0.00  0.00    +0.000 N 
ATOM      4  C   UNL     1       1.080   9.126  20.599  0.00  0.00    +0.000 C 
ATOM      5  C   UNL     1      -0.331   9.497  21.022  0.00  0.00    +0.000 C 
ATOM      6  C   UNL     1      -0.648  10.944  20.670  0.00  0.00    +0.000 C 
ATOM      7  C   UNL     1      -0.408  11.228  19.182  0.00  0.00    +0.000 C 
ATOM      8  C   UNL     1      -0.639  12.702  18.866  0.00  0.00    +0.000 C 
ATOM      9  N   UNL     1      -1.283  12.642  17.601  0.00  0.00    +0.000 N 
ATOM     10  C   UNL     1      -1.860  11.414  17.431  0.00  0.00    +0.000 C 
ATOM     11  O   UNL     1      -2.678  11.138  16.569  0.00  0.00    +0.000 OA
ATOM     12  O   UNL     1      -1.431  10.561  18.406  0.00  0.00    +0.000 OA
ATOM     13  C   UNL     1       0.982  10.733  18.709  0.00  0.00    +0.000 C 
ATOM     14  H   UNL     1      -1.671  13.428  17.094  0.00  0.00    +0.000 HD
ENDROOT
BRANCH   1  15
ATOM     15  C   UNL     1       2.447   7.198  18.998  0.00  0.00    +0.000 C 
BRANCH  15  16
ATOM     16  C   UNL     1       2.845   6.063  18.071  0.00  0.00    +0.000 C 
BRANCH  16  21
ATOM     17  C   UNL     1       5.284   5.775  17.311  0.00  0.00    +0.000 A 
ATOM     18  N   UNL     1       6.412   5.361  17.860  0.00  0.00    +0.000 NA
ATOM     19  C   UNL     1       6.131   5.097  19.170  0.00  0.00    +0.000 A 
ATOM     20  C   UNL     1       4.805   5.330  19.433  0.00  0.00    +0.000 A 
ATOM     21  N   UNL     1       4.268   5.769  18.247  0.00  0.00    +0.000 N 
BRANCH  17  23
ATOM     22  C   UNL     1       5.787   5.235  14.905  0.00  0.00    +0.000 C 
ATOM     23  C   UNL     1       5.166   6.219  15.888  0.00  0.00    +0.000 C 
ENDBRANCH  17  23
ENDBRANCH  16  21
ENDBRANCH  15  16
ENDBRANCH   1  15
TORSDOF 4
ENDMDL
