MODEL 1
REMARK VINA RESULT:      -7.8      0.000      0.000
REMARK  Name = 
REMARK  5 active torsions:
REMARK  status: ('A' for Active; 'I' for Inactive)
REMARK    1  A    between atoms: C_1  and  C_2
REMARK    2  A    between atoms: C_2  and  C_3
REMARK    3  A    between atoms: C_6  and  C_7
REMARK    4  A    between atoms: C_8  and  C_9
REMARK    5  A    between atoms: C_16  and  C_18
REMARK                            x       y       z     vdW  Elec       q    Type
REMARK                         _______ _______ _______ _____ _____    ______ ____
ROOT
ATOM      1  C   UNL     1       0.310  10.286  20.835  0.00  0.00    +0.000 C 
ATOM      2  C   UNL     1       1.101   9.262  21.158  0.00  0.00    +0.000 C 
ATOM      3  C   UNL     1       1.813   9.011  22.433  0.00  0.00    +0.000 C 
ATOM      4  C   UNL     1       1.289   8.475  19.908  0.00  0.00    +0.000 C 
ATOM      5  N   UNL     1       2.107   7.371  19.809  0.00  0.00    +0.000 N 
ATOM      6  C   UNL     1       1.941   6.147  20.587  0.00  0.00    +0.000 C 
ATOM      7  C   UNL     1       1.056   5.122  19.889  0.00  0.00    +0.000 C 
ATOM      8  C   UNL     1       1.504   4.618  18.514  0.00  0.00    +0.000 C 
ATOM      9  N   UNL     1       2.860   4.992  18.110  0.00  0.00    +0.000 N 
ATOM     10  C   UNL     1       3.854   4.000  18.111  0.00  0.00    +0.000 C 
ATOM     11  O   UNL     1       3.605   2.846  18.464  0.00  0.00    +0.000 OA
ATOM     12  C   UNL     1       2.987   6.388  17.664  0.00  0.00    +0.000 C 
ATOM     13  C   UNL     1       3.189   7.380  18.821  0.00  0.00    +0.000 C 
ATOM     14  N   UNL     1       0.702   8.943  18.843  0.00  0.00    +0.000 NA
ATOM     15  S   UNL     1      -0.164  10.286  19.184  0.00  0.00    +0.000 S 
ATOM     16  O   UNL     1      -1.577   9.980  19.066  0.00  0.00    +0.000 OA
ATOM     17  O   UNL     1       0.436  11.405  18.489  0.00  0.00    +0.000 OA
ENDROOT
BRANCH   1  21
ATOM     18  C   UNL     1      -1.050  13.660  23.069  0.00  0.00    +0.000 A 
ATOM     19  C   UNL     1      -1.641  12.405  23.253  0.00  0.00    +0.000 A 
ATOM     20  C   UNL     1      -1.209  11.302  22.512  0.00  0.00    +0.000 A 
ATOM     21  C   UNL     1      -0.167  11.434  21.585  0.00  0.00    +0.000 A 
ATOM     22  C   UNL     1       0.404  12.694  21.380  0.00  0.00    +0.000 A 
ATOM     23  C   UNL     1      -0.029  13.796  22.120  0.00  0.00    +0.000 A 
BRANCH  18  25
ATOM     24  C   UNL     1      -2.776  14.564  24.640  0.00  0.00    +0.000 C 
ATOM     25  C   UNL     1      -1.459  14.831  23.926  0.00  0.00    +0.000 C 
ENDBRANCH  18  25
ENDBRANCH   1  21
BRANCH  10  26
ATOM     26  C   UNL     1       5.256   4.258  17.658  0.00  0.00    +0.000 A 
ATOM     27  C   UNL     1       6.291   4.647  18.503  0.00  0.00    +0.000 A 
ATOM     28  C   UNL     1       7.548   4.878  17.975  0.00  0.00    +0.000 A 
ATOM     29  N   UNL     1       7.858   4.686  16.682  0.00  0.00    +0.000 NA
ATOM     30  C   UNL     1       6.868   4.232  15.885  0.00  0.00    +0.000 A 
ATOM     31  C   UNL     1       5.569   4.011  16.317  0.00  0.00    +0.000 A 
ENDBRANCH  10  26
TORSDOF 3
ENDMDL
MODEL 2
REMARK VINA RESULT:      -6.9      3.529     10.830
REMARK  Name = 
REMARK  5 active torsions:
REMARK  status: ('A' for Active; 'I' for Inactive)
REMARK    1  A    between atoms: C_1  and  C_2
REMARK    2  A    between atoms: C_2  and  C_3
REMARK    3  A    between atoms: C_6  and  C_7
REMARK    4  A    between atoms: C_8  and  C_9
REMARK    5  A    between atoms: C_16  and  C_18
REMARK                            x       y       z     vdW  Elec       q    Type
REMARK                         _______ _______ _______ _____ _____    ______ ____
ROOT
ATOM      1  C   UNL     1       0.678   9.661  19.892  0.00  0.00    +0.000 C 
ATOM      2  C   UNL     1       0.174  10.039  21.067  0.00  0.00    +0.000 C 
ATOM      3  C   UNL     1       0.271   9.354  22.377  0.00  0.00    +0.000 C 
ATOM      4  C   UNL     1      -0.679  11.227  20.788  0.00  0.00    +0.000 C 
ATOM      5  N   UNL     1      -1.437  11.872  21.740  0.00  0.00    +0.000 N 
ATOM      6  C   UNL     1      -0.893  12.510  22.935  0.00  0.00    +0.000 C 
ATOM      7  C   UNL     1      -0.551  13.978  22.715  0.00  0.00    +0.000 C 
ATOM      8  C   UNL     1      -1.686  14.914  22.289  0.00  0.00    +0.000 C 
ATOM      9  N   UNL     1      -3.036  14.354  22.368  0.00  0.00    +0.000 N 
ATOM     10  C   UNL     1      -3.883  14.799  23.395  0.00  0.00    +0.000 C 
ATOM     11  O   UNL     1      -3.502  15.624  24.228  0.00  0.00    +0.000 OA
ATOM     12  C   UNL     1      -3.362  13.426  21.275  0.00  0.00    +0.000 C 
ATOM     13  C   UNL     1      -2.882  11.989  21.533  0.00  0.00    +0.000 C 
ATOM     14  N   UNL     1      -0.762  11.591  19.539  0.00  0.00    +0.000 NA
ATOM     15  S   UNL     1       0.172  10.652  18.583  0.00  0.00    +0.000 S 
ATOM     16  O   UNL     1       1.285  11.439  18.089  0.00  0.00    +0.000 OA
ATOM     17  O   UNL     1      -0.691   9.906  17.692  0.00  0.00    +0.000 OA
ENDROOT
BRANCH   1  21
ATOM     18  C   UNL     1       3.151   6.373  18.751  0.00  0.00    +0.000 A 
ATOM     19  C   UNL     1       2.971   7.457  17.884  0.00  0.00    +0.000 A 
ATOM     20  C   UNL     1       2.149   8.527  18.249  0.00  0.00    +0.000 A 
ATOM     21  C   UNL     1       1.506   8.537  19.493  0.00  0.00    +0.000 A 
ATOM     22  C   UNL     1       1.662   7.440  20.347  0.00  0.00    +0.000 A 
ATOM     23  C   UNL     1       2.483   6.371  19.982  0.00  0.00    +0.000 A 
BRANCH  18  25
ATOM     24  C   UNL     1       4.565   5.364  16.949  0.00  0.00    +0.000 C 
ATOM     25  C   UNL     1       4.101   5.257  18.395  0.00  0.00    +0.000 C 
ENDBRANCH  18  25
ENDBRANCH   1  21
BRANCH  10  26
ATOM     26  C   UNL     1      -5.301  14.340  23.531  0.00  0.00    +0.000 A 
ATOM     27  C   UNL     1      -6.403  15.067  23.093  0.00  0.00    +0.000 A 
ATOM     28  C   UNL     1      -7.674  14.558  23.287  0.00  0.00    +0.000 A 
ATOM     29  N   UNL     1      -7.916  13.351  23.824  0.00  0.00    +0.000 NA
ATOM     30  C   UNL     1      -6.838  12.617  24.173  0.00  0.00    +0.000 A 
ATOM     31  C   UNL     1      -5.531  13.063  24.053  0.00  0.00    +0.000 A 
ENDBRANCH  10  26
TORSDOF 3
ENDMDL
MODEL 3
REMARK VINA RESULT:      -6.8      3.517     10.798
REMARK  Name = 
REMARK  5 active torsions:
REMARK  status: ('A' for Active; 'I' for Inactive)
REMARK    1  A    between atoms: C_1  and  C_2
REMARK    2  A    between atoms: C_2  and  C_3
REMARK    3  A    between atoms: C_6  and  C_7
REMARK    4  A    between atoms: C_8  and  C_9
REMARK    5  A    between atoms: C_16  and  C_18
REMARK                            x       y       z     vdW  Elec       q    Type
REMARK                         _______ _______ _______ _____ _____    ______ ____
ROOT
ATOM      1  C   UNL     1       0.783   9.736  19.856  0.00  0.00    +0.000 C 
ATOM      2  C   UNL     1       0.295  10.106  21.040  0.00  0.00    +0.000 C 
ATOM      3  C   UNL     1       0.429   9.423  22.349  0.00  0.00    +0.000 C 
ATOM      4  C   UNL     1      -0.584  11.279  20.777  0.00  0.00    +0.000 C 
ATOM      5  N   UNL     1      -1.336  11.910  21.744  0.00  0.00    +0.000 N 
ATOM      6  C   UNL     1      -0.782  12.558  22.928  0.00  0.00    +0.000 C 
ATOM      7  C   UNL     1      -0.469  14.032  22.701  0.00  0.00    +0.000 C 
ATOM      8  C   UNL     1      -1.629  14.948  22.297  0.00  0.00    +0.000 C 
ATOM      9  N   UNL     1      -2.967  14.364  22.401  0.00  0.00    +0.000 N 
ATOM     10  C   UNL     1      -3.803  14.794  23.444  0.00  0.00    +0.000 C 
ATOM     11  O   UNL     1      -3.421  15.625  24.269  0.00  0.00    +0.000 OA
ATOM     12  C   UNL     1      -3.297  13.429  21.314  0.00  0.00    +0.000 C 
ATOM     13  C   UNL     1      -2.787  12.001  21.563  0.00  0.00    +0.000 C 
ATOM     14  N   UNL     1      -0.697  11.641  19.530  0.00  0.00    +0.000 NA
ATOM     15  S   UNL     1       0.235  10.718  18.557  0.00  0.00    +0.000 S 
ATOM     16  O   UNL     1       1.325  11.525  18.042  0.00  0.00    +0.000 OA
ATOM     17  O   UNL     1      -0.631   9.957  17.683  0.00  0.00    +0.000 OA
ENDROOT
BRANCH   1  21
ATOM     18  C   UNL     1       3.218   6.461  18.604  0.00  0.00    +0.000 A 
ATOM     19  C   UNL     1       2.537   6.410  19.825  0.00  0.00    +0.000 A 
ATOM     20  C   UNL     1       1.752   7.487  20.245  0.00  0.00    +0.000 A 
ATOM     21  C   UNL     1       1.624   8.628  19.442  0.00  0.00    +0.000 A 
ATOM     22  C   UNL     1       2.328   8.691  18.235  0.00  0.00    +0.000 A 
ATOM     23  C   UNL     1       3.113   7.614  17.816  0.00  0.00    +0.000 A 
BRANCH  18  25
ATOM     24  C   UNL     1       5.087   4.871  19.099  0.00  0.00    +0.000 C 
ATOM     25  C   UNL     1       3.999   5.268  18.112  0.00  0.00    +0.000 C 
ENDBRANCH  18  25
ENDBRANCH   1  21
BRANCH  10  26
ATOM     26  C   UNL     1      -5.209  14.309  23.606  0.00  0.00    +0.000 A 
ATOM     27  C   UNL     1      -5.551  13.035  24.048  0.00  0.00    +0.000 A 
ATOM     28  C   UNL     1      -6.885  12.684  24.143  0.00  0.00    +0.000 A 
ATOM     29  N   UNL     1      -7.896  13.532  23.893  0.00  0.00    +0.000 NA
ATOM     30  C   UNL     1      -7.557  14.790  23.542  0.00  0.00    +0.000 A 
ATOM     31  C   UNL     1      -6.248  15.220  23.383  0.00  0.00    +0.000 A 
ENDBRANCH  10  26
TORSDOF 3
ENDMDL
MODEL 4
REMARK VINA RESULT:      -6.8      3.744     10.815
REMARK  Name = 
REMARK  5 active torsions:
REMARK  status: ('A' for Active; 'I' for Inactive)
REMARK    1  A    between atoms: C_1  and  C_2
REMARK    2  A    between atoms: C_2  and  C_3
REMARK    3  A    between atoms: C_6  and  C_7
REMARK    4  A    between atoms: C_8  and  C_9
REMARK    5  A    between atoms: C_16  and  C_18
REMARK                            x       y       z     vdW  Elec       q    Type
REMARK                         _______ _______ _______ _____ _____    ______ ____
ROOT
ATOM      1  C   UNL     1       0.529   9.724  20.309  0.00  0.00    +0.000 C 
ATOM      2  C   UNL     1       0.007  10.919  20.030  0.00  0.00    +0.000 C 
ATOM      3  C   UNL     1       0.239  11.775  18.843  0.00  0.00    +0.000 C 
ATOM      4  C   UNL     1      -0.746  11.335  21.246  0.00  0.00    +0.000 C 
ATOM      5  N   UNL     1      -1.373  12.554  21.384  0.00  0.00    +0.000 N 
ATOM      6  C   UNL     1      -2.450  13.030  20.522  0.00  0.00    +0.000 C 
ATOM      7  C   UNL     1      -3.831  12.651  21.041  0.00  0.00    +0.000 C 
ATOM      8  C   UNL     1      -4.230  13.157  22.430  0.00  0.00    +0.000 C 
ATOM      9  N   UNL     1      -3.338  14.155  23.024  0.00  0.00    +0.000 N 
ATOM     10  C   UNL     1      -3.777  15.487  23.090  0.00  0.00    +0.000 C 
ATOM     11  O   UNL     1      -4.875  15.822  22.642  0.00  0.00    +0.000 OA
ATOM     12  C   UNL     1      -2.088  13.595  23.562  0.00  0.00    +0.000 C 
ATOM     13  C   UNL     1      -0.991  13.423  22.499  0.00  0.00    +0.000 C 
ATOM     14  N   UNL     1      -0.706  10.510  22.254  0.00  0.00    +0.000 NA
ATOM     15  S   UNL     1       0.139   9.161  21.884  0.00  0.00    +0.000 S 
ATOM     16  O   UNL     1      -0.774   8.038  21.804  0.00  0.00    +0.000 OA
ATOM     17  O   UNL     1       1.325   9.125  22.712  0.00  0.00    +0.000 OA
ENDROOT
BRANCH   1  21
ATOM     18  C   UNL     1       3.106   7.121  18.116  0.00  0.00    +0.000 A 
ATOM     19  C   UNL     1       2.705   6.790  19.415  0.00  0.00    +0.000 A 
ATOM     20  C   UNL     1       1.874   7.648  20.141  0.00  0.00    +0.000 A 
ATOM     21  C   UNL     1       1.419   8.845  19.573  0.00  0.00    +0.000 A 
ATOM     22  C   UNL     1       1.843   9.190  18.285  0.00  0.00    +0.000 A 
ATOM     23  C   UNL     1       2.674   8.333  17.560  0.00  0.00    +0.000 A 
BRANCH  18  25
ATOM     24  C   UNL     1       5.362   6.658  17.136  0.00  0.00    +0.000 C 
ATOM     25  C   UNL     1       3.934   6.159  17.301  0.00  0.00    +0.000 C 
ENDBRANCH  18  25
ENDBRANCH   1  21
BRANCH  10  26
ATOM     26  C   UNL     1      -2.973  16.574  23.731  0.00  0.00    +0.000 A 
ATOM     27  C   UNL     1      -2.989  16.858  25.093  0.00  0.00    +0.000 A 
ATOM     28  C   UNL     1      -2.220  17.900  25.579  0.00  0.00    +0.000 A 
ATOM     29  N   UNL     1      -1.392  18.631  24.814  0.00  0.00    +0.000 NA
ATOM     30  C   UNL     1      -1.322  18.297  23.508  0.00  0.00    +0.000 A 
ATOM     31  C   UNL     1      -2.084  17.295  22.927  0.00  0.00    +0.000 A 
ENDBRANCH  10  26
TORSDOF 3
ENDMDL
MODEL 5
REMARK VINA RESULT:      -6.8      3.716     10.855
REMARK  Name = 
REMARK  5 active torsions:
REMARK  status: ('A' for Active; 'I' for Inactive)
REMARK    1  A    between atoms: C_1  and  C_2
REMARK    2  A    between atoms: C_2  and  C_3
REMARK    3  A    between atoms: C_6  and  C_7
REMARK    4  A    between atoms: C_8  and  C_9
REMARK    5  A    between atoms: C_16  and  C_18
REMARK                            x       y       z     vdW  Elec       q    Type
REMARK                         _______ _______ _______ _____ _____    ______ ____
ROOT
ATOM      1  C   UNL     1       0.568   9.664  20.280  0.00  0.00    +0.000 C 
ATOM      2  C   UNL     1       0.034  10.853  20.000  0.00  0.00    +0.000 C 
ATOM      3  C   UNL     1       0.220  11.688  18.790  0.00  0.00    +0.000 C 
ATOM      4  C   UNL     1      -0.673  11.290  21.236  0.00  0.00    +0.000 C 
ATOM      5  N   UNL     1      -1.297  12.510  21.376  0.00  0.00    +0.000 N 
ATOM      6  C   UNL     1      -2.406  12.970  20.547  0.00  0.00    +0.000 C 
ATOM      7  C   UNL     1      -3.766  12.599  21.124  0.00  0.00    +0.000 C 
ATOM      8  C   UNL     1      -4.113  13.130  22.519  0.00  0.00    +0.000 C 
ATOM      9  N   UNL     1      -3.200  14.138  23.061  0.00  0.00    +0.000 N 
ATOM     10  C   UNL     1      -3.639  15.471  23.120  0.00  0.00    +0.000 C 
ATOM     11  O   UNL     1      -4.753  15.797  22.708  0.00  0.00    +0.000 OA
ATOM     12  C   UNL     1      -1.931  13.589  23.561  0.00  0.00    +0.000 C 
ATOM     13  C   UNL     1      -0.874  13.399  22.461  0.00  0.00    +0.000 C 
ATOM     14  N   UNL     1      -0.594  10.482  22.256  0.00  0.00    +0.000 NA
ATOM     15  S   UNL     1       0.239   9.128  21.879  0.00  0.00    +0.000 S 
ATOM     16  O   UNL     1      -0.675   8.003  21.853  0.00  0.00    +0.000 OA
ATOM     17  O   UNL     1       1.455   9.107  22.662  0.00  0.00    +0.000 OA
ENDROOT
BRANCH   1  21
ATOM     18  C   UNL     1       3.147   7.059  18.092  0.00  0.00    +0.000 A 
ATOM     19  C   UNL     1       2.657   8.229  17.501  0.00  0.00    +0.000 A 
ATOM     20  C   UNL     1       1.800   9.076  18.209  0.00  0.00    +0.000 A 
ATOM     21  C   UNL     1       1.431   8.772  19.526  0.00  0.00    +0.000 A 
ATOM     22  C   UNL     1       1.897   7.588  20.107  0.00  0.00    +0.000 A 
ATOM     23  C   UNL     1       2.753   6.742  19.398  0.00  0.00    +0.000 A 
BRANCH  18  25
ATOM     24  C   UNL     1       4.459   4.928  18.149  0.00  0.00    +0.000 C 
ATOM     25  C   UNL     1       4.136   6.188  17.358  0.00  0.00    +0.000 C 
ENDBRANCH  18  25
ENDBRANCH   1  21
BRANCH  10  26
ATOM     26  C   UNL     1      -2.813  16.569  23.711  0.00  0.00    +0.000 A 
ATOM     27  C   UNL     1      -1.861  17.298  23.005  0.00  0.00    +0.000 A 
ATOM     28  C   UNL     1      -1.138  18.281  23.655  0.00  0.00    +0.000 A 
ATOM     29  N   UNL     1      -1.344  18.630  24.936  0.00  0.00    +0.000 NA
ATOM     30  C   UNL     1      -2.324  17.973  25.591  0.00  0.00    +0.000 A 
ATOM     31  C   UNL     1      -3.072  16.948  25.033  0.00  0.00    +0.000 A 
ENDBRANCH  10  26
TORSDOF 3
ENDMDL
MODEL 6
REMARK VINA RESULT:      -6.7      3.614     11.008
REMARK  Name = 
REMARK  5 active torsions:
REMARK  status: ('A' for Active; 'I' for Inactive)
REMARK    1  A    between atoms: C_1  and  C_2
REMARK    2  A    between atoms: C_2  and  C_3
REMARK    3  A    between atoms: C_6  and  C_7
REMARK    4  A    between atoms: C_8  and  C_9
REMARK    5  A    between atoms: C_16  and  C_18
REMARK                            x       y       z     vdW  Elec       q    Type
REMARK                         _______ _______ _______ _____ _____    ______ ____
ROOT
ATOM      1  C   UNL     1       0.552   9.844  20.113  0.00  0.00    +0.000 C 
ATOM      2  C   UNL     1       0.055  10.286  21.269  0.00  0.00    +0.000 C 
ATOM      3  C   UNL     1       0.086   9.632  22.598  0.00  0.00    +0.000 C 
ATOM      4  C   UNL     1      -0.714  11.519  20.943  0.00  0.00    +0.000 C 
ATOM      5  N   UNL     1      -1.444  12.237  21.865  0.00  0.00    +0.000 N 
ATOM      6  C   UNL     1      -0.879  12.871  23.052  0.00  0.00    +0.000 C 
ATOM      7  C   UNL     1      -0.438  14.307  22.800  0.00  0.00    +0.000 C 
ATOM      8  C   UNL     1      -1.503  15.303  22.330  0.00  0.00    +0.000 C 
ATOM      9  N   UNL     1      -2.887  14.834  22.399  0.00  0.00    +0.000 N 
ATOM     10  C   UNL     1      -3.721  15.361  23.399  0.00  0.00    +0.000 C 
ATOM     11  O   UNL     1      -3.300  16.181  24.216  0.00  0.00    +0.000 OA
ATOM     12  C   UNL     1      -3.256  13.899  21.325  0.00  0.00    +0.000 C 
ATOM     13  C   UNL     1      -2.875  12.442  21.629  0.00  0.00    +0.000 C 
ATOM     14  N   UNL     1      -0.754  11.854  19.684  0.00  0.00    +0.000 NA
ATOM     15  S   UNL     1       0.132  10.830  18.770  0.00  0.00    +0.000 S 
ATOM     16  O   UNL     1       1.302  11.530  18.275  0.00  0.00    +0.000 OA
ATOM     17  O   UNL     1      -0.763  10.118  17.884  0.00  0.00    +0.000 OA
ENDROOT
BRANCH   1  21
ATOM     18  C   UNL     1       2.824   6.375  19.102  0.00  0.00    +0.000 A 
ATOM     19  C   UNL     1       2.691   7.425  18.187  0.00  0.00    +0.000 A 
ATOM     20  C   UNL     1       1.935   8.555  18.509  0.00  0.00    +0.000 A 
ATOM     21  C   UNL     1       1.311   8.659  19.759  0.00  0.00    +0.000 A 
ATOM     22  C   UNL     1       1.419   7.597  20.663  0.00  0.00    +0.000 A 
ATOM     23  C   UNL     1       2.175   6.467  20.340  0.00  0.00    +0.000 A 
BRANCH  18  25
ATOM     24  C   UNL     1       3.291   4.519  17.488  0.00  0.00    +0.000 C 
ATOM     25  C   UNL     1       3.706   5.192  18.788  0.00  0.00    +0.000 C 
ENDBRANCH  18  25
ENDBRANCH   1  21
BRANCH  10  26
ATOM     26  C   UNL     1      -5.167  14.999  23.522  0.00  0.00    +0.000 A 
ATOM     27  C   UNL     1      -5.630  13.720  23.812  0.00  0.00    +0.000 A 
ATOM     28  C   UNL     1      -6.992  13.490  23.884  0.00  0.00    +0.000 A 
ATOM     29  N   UNL     1      -7.916  14.455  23.750  0.00  0.00    +0.000 NA
ATOM     30  C   UNL     1      -7.456  15.708  23.548  0.00  0.00    +0.000 A 
ATOM     31  C   UNL     1      -6.112  16.025  23.423  0.00  0.00    +0.000 A 
ENDBRANCH  10  26
TORSDOF 3
ENDMDL
MODEL 7
REMARK VINA RESULT:      -6.6      3.605     10.872
REMARK  Name = 
REMARK  5 active torsions:
REMARK  status: ('A' for Active; 'I' for Inactive)
REMARK    1  A    between atoms: C_1  and  C_2
REMARK    2  A    between atoms: C_2  and  C_3
REMARK    3  A    between atoms: C_6  and  C_7
REMARK    4  A    between atoms: C_8  and  C_9
REMARK    5  A    between atoms: C_16  and  C_18
REMARK                            x       y       z     vdW  Elec       q    Type
REMARK                         _______ _______ _______ _____ _____    ______ ____
ROOT
ATOM      1  C   UNL     1       0.659   9.710  20.115  0.00  0.00    +0.000 C 
ATOM      2  C   UNL     1       0.065  10.159  21.222  0.00  0.00    +0.000 C 
ATOM      3  C   UNL     1      -0.058   9.493  22.539  0.00  0.00    +0.000 C 
ATOM      4  C   UNL     1      -0.626  11.421  20.837  0.00  0.00    +0.000 C 
ATOM      5  N   UNL     1      -1.418  12.156  21.691  0.00  0.00    +0.000 N 
ATOM      6  C   UNL     1      -0.952  12.759  22.936  0.00  0.00    +0.000 C 
ATOM      7  C   UNL     1      -0.440  14.181  22.745  0.00  0.00    +0.000 C 
ATOM      8  C   UNL     1      -1.418  15.218  22.185  0.00  0.00    +0.000 C 
ATOM      9  N   UNL     1      -2.818  14.797  22.111  0.00  0.00    +0.000 N 
ATOM     10  C   UNL     1      -3.728  15.344  23.030  0.00  0.00    +0.000 C 
ATOM     11  O   UNL     1      -3.362  16.142  23.895  0.00  0.00    +0.000 OA
ATOM     12  C   UNL     1      -3.110  13.885  20.995  0.00  0.00    +0.000 C 
ATOM     13  C   UNL     1      -2.811  12.412  21.317  0.00  0.00    +0.000 C 
ATOM     14  N   UNL     1      -0.529  11.768  19.584  0.00  0.00    +0.000 NA
ATOM     15  S   UNL     1       0.408  10.722  18.749  0.00  0.00    +0.000 S 
ATOM     16  O   UNL     1       1.645  11.384  18.381  0.00  0.00    +0.000 OA
ATOM     17  O   UNL     1      -0.419  10.049  17.771  0.00  0.00    +0.000 OA
ENDROOT
BRANCH   1  21
ATOM     18  C   UNL     1       2.827   6.143  19.222  0.00  0.00    +0.000 A 
ATOM     19  C   UNL     1       2.121   6.259  20.425  0.00  0.00    +0.000 A 
ATOM     20  C   UNL     1       1.423   7.431  20.727  0.00  0.00    +0.000 A 
ATOM     21  C   UNL     1       1.409   8.502  19.823  0.00  0.00    +0.000 A 
ATOM     22  C   UNL     1       2.138   8.397  18.634  0.00  0.00    +0.000 A 
ATOM     23  C   UNL     1       2.836   7.225  18.333  0.00  0.00    +0.000 A 
BRANCH  18  25
ATOM     24  C   UNL     1       4.911   4.776  19.450  0.00  0.00    +0.000 C 
ATOM     25  C   UNL     1       3.511   4.849  18.858  0.00  0.00    +0.000 C 
ENDBRANCH  18  25
ENDBRANCH   1  21
BRANCH  10  26
ATOM     26  C   UNL     1      -5.191  15.032  23.005  0.00  0.00    +0.000 A 
ATOM     27  C   UNL     1      -6.123  15.716  22.233  0.00  0.00    +0.000 A 
ATOM     28  C   UNL     1      -7.457  15.357  22.300  0.00  0.00    +0.000 A 
ATOM     29  N   UNL     1      -7.912  14.326  23.031  0.00  0.00    +0.000 NA
ATOM     30  C   UNL     1      -6.990  13.617  23.715  0.00  0.00    +0.000 A 
ATOM     31  C   UNL     1      -5.639  13.927  23.738  0.00  0.00    +0.000 A 
ENDBRANCH  10  26
TORSDOF 3
ENDMDL
MODEL 8
REMARK VINA RESULT:      -6.4      3.788      9.596
REMARK  Name = 
REMARK  5 active torsions:
REMARK  status: ('A' for Active; 'I' for Inactive)
REMARK    1  A    between atoms: C_1  and  C_2
REMARK    2  A    between atoms: C_2  and  C_3
REMARK    3  A    between atoms: C_6  and  C_7
REMARK    4  A    between atoms: C_8  and  C_9
REMARK    5  A    between atoms: C_16  and  C_18
REMARK                            x       y       z     vdW  Elec       q    Type
REMARK                         _______ _______ _______ _____ _____    ______ ____
ROOT
ATOM      1  C   UNL     1       1.380   8.299  20.135  0.00  0.00    +0.000 C 
ATOM      2  C   UNL     1       1.428   9.340  19.303  0.00  0.00    +0.000 C 
ATOM      3  C   UNL     1       1.974   9.398  17.926  0.00  0.00    +0.000 C 
ATOM      4  C   UNL     1       0.974  10.520  20.090  0.00  0.00    +0.000 C 
ATOM      5  N   UNL     1       0.952  11.808  19.603  0.00  0.00    +0.000 N 
ATOM      6  C   UNL     1       0.166  12.242  18.451  0.00  0.00    +0.000 C 
ATOM      7  C   UNL     1      -1.223  12.733  18.838  0.00  0.00    +0.000 C 
ATOM      8  C   UNL     1      -1.313  13.918  19.803  0.00  0.00    +0.000 C 
ATOM      9  N   UNL     1      -0.055  14.615  20.074  0.00  0.00    +0.000 N 
ATOM     10  C   UNL     1       0.139  15.885  19.508  0.00  0.00    +0.000 C 
ATOM     11  O   UNL     1      -0.714  16.399  18.782  0.00  0.00    +0.000 OA
ATOM     12  C   UNL     1       0.838  13.900  20.999  0.00  0.00    +0.000 C 
ATOM     13  C   UNL     1       1.713  12.843  20.306  0.00  0.00    +0.000 C 
ATOM     14  N   UNL     1       0.680  10.295  21.340  0.00  0.00    +0.000 NA
ATOM     15  S   UNL     1       0.834   8.711  21.711  0.00  0.00    +0.000 S 
ATOM     16  O   UNL     1      -0.483   8.151  21.948  0.00  0.00    +0.000 OA
ATOM     17  O   UNL     1       1.909   8.569  22.668  0.00  0.00    +0.000 OA
ENDROOT
BRANCH   1  21
ATOM     18  C   UNL     1       2.497   4.205  19.668  0.00  0.00    +0.000 A 
ATOM     19  C   UNL     1       1.475   4.563  20.555  0.00  0.00    +0.000 A 
ATOM     20  C   UNL     1       1.118   5.904  20.721  0.00  0.00    +0.000 A 
ATOM     21  C   UNL     1       1.769   6.908  19.991  0.00  0.00    +0.000 A 
ATOM     22  C   UNL     1       2.809   6.553  19.127  0.00  0.00    +0.000 A 
ATOM     23  C   UNL     1       3.166   5.213  18.961  0.00  0.00    +0.000 A 
BRANCH  18  25
ATOM     24  C   UNL     1       2.449   2.326  18.016  0.00  0.00    +0.000 C 
ATOM     25  C   UNL     1       2.827   2.754  19.426  0.00  0.00    +0.000 C 
ENDBRANCH  18  25
ENDBRANCH   1  21
BRANCH  10  26
ATOM     26  C   UNL     1       1.359  16.711  19.769  0.00  0.00    +0.000 A 
ATOM     27  C   UNL     1       1.429  17.724  20.720  0.00  0.00    +0.000 A 
ATOM     28  C   UNL     1       2.603  18.440  20.866  0.00  0.00    +0.000 A 
ATOM     29  N   UNL     1       3.726  18.172  20.178  0.00  0.00    +0.000 NA
ATOM     30  C   UNL     1       3.674  17.136  19.315  0.00  0.00    +0.000 A 
ATOM     31  C   UNL     1       2.531  16.389  19.075  0.00  0.00    +0.000 A 
ENDBRANCH  10  26
TORSDOF 3
ENDMDL
MODEL 9
REMARK VINA RESULT:      -6.3      3.763      9.707
REMARK  Name = 
REMARK  5 active torsions:
REMARK  status: ('A' for Active; 'I' for Inactive)
REMARK    1  A    between atoms: C_1  and  C_2
REMARK    2  A    between atoms: C_2  and  C_3
REMARK    3  A    between atoms: C_6  and  C_7
REMARK    4  A    between atoms: C_8  and  C_9
REMARK    5  A    between atoms: C_16  and  C_18
REMARK                            x       y       z     vdW  Elec       q    Type
REMARK                         _______ _______ _______ _____ _____    ______ ____
ROOT
ATOM      1  C   UNL     1       1.432   8.262  20.106  0.00  0.00    +0.000 C 
ATOM      2  C   UNL     1       1.480   9.306  19.278  0.00  0.00    +0.000 C 
ATOM      3  C   UNL     1       2.056   9.378  17.914  0.00  0.00    +0.000 C 
ATOM      4  C   UNL     1       0.986  10.475  20.057  0.00  0.00    +0.000 C 
ATOM      5  N   UNL     1       0.951  11.764  19.572  0.00  0.00    +0.000 N 
ATOM      6  C   UNL     1       0.184  12.185  18.403  0.00  0.00    +0.000 C 
ATOM      7  C   UNL     1      -1.223  12.650  18.759  0.00  0.00    +0.000 C 
ATOM      8  C   UNL     1      -1.357  13.831  19.724  0.00  0.00    +0.000 C 
ATOM      9  N   UNL     1      -0.118  14.550  20.025  0.00  0.00    +0.000 N 
ATOM     10  C   UNL     1       0.065  15.826  19.466  0.00  0.00    +0.000 C 
ATOM     11  O   UNL     1      -0.780  16.326  18.722  0.00  0.00    +0.000 OA
ATOM     12  C   UNL     1       0.766  13.850  20.969  0.00  0.00    +0.000 C 
ATOM     13  C   UNL     1       1.676  12.811  20.294  0.00  0.00    +0.000 C 
ATOM     14  N   UNL     1       0.668  10.242  21.299  0.00  0.00    +0.000 NA
ATOM     15  S   UNL     1       0.842   8.660  21.670  0.00  0.00    +0.000 S 
ATOM     16  O   UNL     1      -0.469   8.075  21.876  0.00  0.00    +0.000 OA
ATOM     17  O   UNL     1       1.898   8.536  22.652  0.00  0.00    +0.000 OA
ENDROOT
BRANCH   1  21
ATOM     18  C   UNL     1       2.681   4.195  19.751  0.00  0.00    +0.000 A 
ATOM     19  C   UNL     1       3.354   5.205  19.054  0.00  0.00    +0.000 A 
ATOM     20  C   UNL     1       2.937   6.535  19.156  0.00  0.00    +0.000 A 
ATOM     21  C   UNL     1       1.850   6.879  19.969  0.00  0.00    +0.000 A 
ATOM     22  C   UNL     1       1.159   5.866  20.644  0.00  0.00    +0.000 A 
ATOM     23  C   UNL     1       1.575   4.537  20.541  0.00  0.00    +0.000 A 
BRANCH  18  25
ATOM     24  C   UNL     1       2.961   2.150  18.336  0.00  0.00    +0.000 C 
ATOM     25  C   UNL     1       3.179   2.773  19.707  0.00  0.00    +0.000 C 
ENDBRANCH  18  25
ENDBRANCH   1  21
BRANCH  10  26
ATOM     26  C   UNL     1       1.264  16.673  19.757  0.00  0.00    +0.000 A 
ATOM     27  C   UNL     1       2.533  16.433  19.241  0.00  0.00    +0.000 A 
ATOM     28  C   UNL     1       3.578  17.270  19.591  0.00  0.00    +0.000 A 
ATOM     29  N   UNL     1       3.429  18.360  20.361  0.00  0.00    +0.000 NA
ATOM     30  C   UNL     1       2.179  18.631  20.792  0.00  0.00    +0.000 A 
ATOM     31  C   UNL     1       1.081  17.828  20.525  0.00  0.00    +0.000 A 
ENDBRANCH  10  26
TORSDOF 3
ENDMDL
