MODEL 1
REMARK VINA RESULT:      -8.0      0.000      0.000
REMARK  Name = 
REMARK  8 active torsions:
REMARK  status: ('A' for Active; 'I' for Inactive)
REMARK    1  A    between atoms: C_1  and  O_2
REMARK    2  A    between atoms: O_2  and  C_3
REMARK    3  A    between atoms: C_9  and  C_10
REMARK    4  A    between atoms: C_15  and  C_16
REMARK    5  A    between atoms: N_17  and  C_18
REMARK    6  A    between atoms: N_21  and  C_22
REMARK    7  A    between atoms: C_22  and  C_23
REMARK    8  A    between atoms: C_22  and  C_24
REMARK                            x       y       z     vdW  Elec       q    Type
REMARK                         _______ _______ _______ _____ _____    ______ ____
ROOT
ATOM      1  C   UNL     1       6.355   6.316  17.172  0.00  0.00    +0.000 A 
ATOM      2  C   UNL     1       6.453   4.941  17.352  0.00  0.00    +0.000 A 
ATOM      3  C   UNL     1       5.389   4.206  17.893  0.00  0.00    +0.000 A 
ATOM      4  C   UNL     1       4.212   4.885  18.252  0.00  0.00    +0.000 A 
ATOM      5  C   UNL     1       4.086   6.267  18.078  0.00  0.00    +0.000 A 
ATOM      6  C   UNL     1       5.187   6.982  17.551  0.00  0.00    +0.000 A 
ATOM      7  C   UNL     1       2.767   6.654  18.493  0.00  0.00    +0.000 A 
ATOM      8  C   UNL     1       2.155   5.500  18.957  0.00  0.00    +0.000 A 
ATOM      9  N   UNL     1       3.019   4.440  18.792  0.00  0.00    +0.000 N 
ENDROOT
BRANCH   7  10
ATOM     10  C   UNL     1       2.187   7.995  18.373  0.00  0.00    +0.000 C 
ATOM     11  O   UNL     1       2.333   8.654  17.348  0.00  0.00    +0.000 OA
ATOM     12  N   UNL     1       1.530   8.458  19.495  0.00  0.00    +0.000 N 
ATOM     13  C   UNL     1       0.956   9.711  19.509  0.00  0.00    +0.000 A 
ATOM     14  C   UNL     1       0.255  10.360  18.467  0.00  0.00    +0.000 A 
ATOM     15  C   UNL     1      -0.054  11.614  18.947  0.00  0.00    +0.000 A 
ATOM     16  C   UNL     1      -0.787  12.737  18.319  0.00  0.00    +0.000 C 
ATOM     17  N   UNL     1       0.535  11.666  20.185  0.00  0.00    +0.000 N 
ATOM     18  C   UNL     1       0.790  12.834  20.993  0.00  0.00    +0.000 C 
ATOM     19  N   UNL     1       1.003  10.466  20.603  0.00  0.00    +0.000 NA
ATOM     20  H   UNL     1       1.791   8.098  20.398  0.00  0.00    +0.000 HD
ENDBRANCH   7  10
BRANCH   9  21
ATOM     21  C   UNL     1       2.696   3.047  19.111  0.00  0.00    +0.000 C 
ATOM     22  C   UNL     1       1.648   2.945  20.220  0.00  0.00    +0.000 C 
ATOM     23  C   UNL     1       2.267   2.260  17.871  0.00  0.00    +0.000 C 
ENDBRANCH   9  21
BRANCH   1  25
ATOM     24  C   UNL     1       7.791   8.154  17.557  0.00  0.00    +0.000 C 
ATOM     25  O   UNL     1       7.349   7.121  16.685  0.00  0.00    +0.000 OA
ENDBRANCH   1  25
TORSDOF 3
ENDMDL
MODEL 2
REMARK VINA RESULT:      -8.0      1.264      1.347
REMARK  Name = 
REMARK  8 active torsions:
REMARK  status: ('A' for Active; 'I' for Inactive)
REMARK    1  A    between atoms: C_1  and  O_2
REMARK    2  A    between atoms: O_2  and  C_3
REMARK    3  A    between atoms: C_9  and  C_10
REMARK    4  A    between atoms: C_15  and  C_16
REMARK    5  A    between atoms: N_17  and  C_18
REMARK    6  A    between atoms: N_21  and  C_22
REMARK    7  A    between atoms: C_22  and  C_23
REMARK    8  A    between atoms: C_22  and  C_24
REMARK                            x       y       z     vdW  Elec       q    Type
REMARK                         _______ _______ _______ _____ _____    ______ ____
ROOT
ATOM      1  C   UNL     1       5.167   5.438  16.154  0.00  0.00    +0.000 A 
ATOM      2  C   UNL     1       5.214   4.121  16.597  0.00  0.00    +0.000 A 
ATOM      3  C   UNL     1       4.445   3.700  17.692  0.00  0.00    +0.000 A 
ATOM      4  C   UNL     1       3.621   4.636  18.338  0.00  0.00    +0.000 A 
ATOM      5  C   UNL     1       3.553   5.966  17.911  0.00  0.00    +0.000 A 
ATOM      6  C   UNL     1       4.357   6.363  16.818  0.00  0.00    +0.000 A 
ATOM      7  C   UNL     1       2.602   6.656  18.736  0.00  0.00    +0.000 A 
ATOM      8  C   UNL     1       2.164   5.733  19.673  0.00  0.00    +0.000 A 
ATOM      9  N   UNL     1       2.764   4.519  19.418  0.00  0.00    +0.000 N 
ENDROOT
BRANCH   7  10
ATOM     10  C   UNL     1       2.151   8.039  18.556  0.00  0.00    +0.000 C 
ATOM     11  O   UNL     1       2.418   8.659  17.531  0.00  0.00    +0.000 OA
ATOM     12  N   UNL     1       1.466   8.582  19.625  0.00  0.00    +0.000 N 
ATOM     13  C   UNL     1       1.005   9.879  19.581  0.00  0.00    +0.000 A 
ATOM     14  C   UNL     1       0.432  10.563  18.484  0.00  0.00    +0.000 A 
ATOM     15  C   UNL     1       0.204  11.850  18.922  0.00  0.00    +0.000 A 
ATOM     16  C   UNL     1      -0.387  13.018  18.228  0.00  0.00    +0.000 C 
ATOM     17  N   UNL     1       0.716  11.879  20.194  0.00  0.00    +0.000 N 
ATOM     18  C   UNL     1       1.021  13.038  20.998  0.00  0.00    +0.000 C 
ATOM     19  N   UNL     1       1.049  10.652  20.662  0.00  0.00    +0.000 NA
ATOM     20  H   UNL     1       1.638   8.221  20.549  0.00  0.00    +0.000 HD
ENDBRANCH   7  10
BRANCH   9  21
ATOM     21  C   UNL     1       2.497   3.286  20.164  0.00  0.00    +0.000 C 
ATOM     22  C   UNL     1       2.124   3.571  21.619  0.00  0.00    +0.000 C 
ATOM     23  C   UNL     1       1.436   2.421  19.480  0.00  0.00    +0.000 C 
ENDBRANCH   9  21
BRANCH   1  25
ATOM     24  C   UNL     1       6.905   5.090  14.591  0.00  0.00    +0.000 C 
ATOM     25  O   UNL     1       5.902   5.949  15.118  0.00  0.00    +0.000 OA
ENDBRANCH   1  25
TORSDOF 3
ENDMDL
MODEL 3
REMARK VINA RESULT:      -7.9      1.664      3.901
REMARK  Name = 
REMARK  8 active torsions:
REMARK  status: ('A' for Active; 'I' for Inactive)
REMARK    1  A    between atoms: C_1  and  O_2
REMARK    2  A    between atoms: O_2  and  C_3
REMARK    3  A    between atoms: C_9  and  C_10
REMARK    4  A    between atoms: C_15  and  C_16
REMARK    5  A    between atoms: N_17  and  C_18
REMARK    6  A    between atoms: N_21  and  C_22
REMARK    7  A    between atoms: C_22  and  C_23
REMARK    8  A    between atoms: C_22  and  C_24
REMARK                            x       y       z     vdW  Elec       q    Type
REMARK                         _______ _______ _______ _____ _____    ______ ____
ROOT
ATOM      1  C   UNL     1       2.261   4.130  20.102  0.00  0.00    +0.000 A 
ATOM      2  C   UNL     1       3.419   3.416  19.816  0.00  0.00    +0.000 A 
ATOM      3  C   UNL     1       4.411   3.955  18.984  0.00  0.00    +0.000 A 
ATOM      4  C   UNL     1       4.216   5.237  18.442  0.00  0.00    +0.000 A 
ATOM      5  C   UNL     1       3.062   5.976  18.717  0.00  0.00    +0.000 A 
ATOM      6  C   UNL     1       2.070   5.395  19.541  0.00  0.00    +0.000 A 
ATOM      7  C   UNL     1       3.175   7.248  18.060  0.00  0.00    +0.000 A 
ATOM      8  C   UNL     1       4.372   7.216  17.362  0.00  0.00    +0.000 A 
ATOM      9  N   UNL     1       5.001   6.015  17.611  0.00  0.00    +0.000 N 
ENDROOT
BRANCH   7  10
ATOM     10  C   UNL     1       2.232   8.364  18.179  0.00  0.00    +0.000 C 
ATOM     11  O   UNL     1       1.984   9.084  17.216  0.00  0.00    +0.000 OA
ATOM     12  N   UNL     1       1.703   8.559  19.439  0.00  0.00    +0.000 N 
ATOM     13  C   UNL     1       0.816   9.586  19.680  0.00  0.00    +0.000 A 
ATOM     14  C   UNL     1      -0.227  10.050  18.846  0.00  0.00    +0.000 A 
ATOM     15  C   UNL     1      -0.775  11.133  19.499  0.00  0.00    +0.000 A 
ATOM     16  C   UNL     1      -1.901  12.019  19.125  0.00  0.00    +0.000 C 
ATOM     17  N   UNL     1       0.007  11.297  20.614  0.00  0.00    +0.000 N 
ATOM     18  C   UNL     1       0.078  12.449  21.481  0.00  0.00    +0.000 C 
ATOM     19  N   UNL     1       0.864  10.269  20.820  0.00  0.00    +0.000 NA
ATOM     20  H   UNL     1       2.227   8.250  20.242  0.00  0.00    +0.000 HD
ENDBRANCH   7  10
BRANCH   9  21
ATOM     21  C   UNL     1       6.321   5.646  17.094  0.00  0.00    +0.000 C 
ATOM     22  C   UNL     1       6.255   5.194  15.634  0.00  0.00    +0.000 C 
ATOM     23  C   UNL     1       7.344   6.769  17.280  0.00  0.00    +0.000 C 
ENDBRANCH   9  21
BRANCH   1  25
ATOM     24  C   UNL     1       1.525   2.576  21.724  0.00  0.00    +0.000 C 
ATOM     25  O   UNL     1       1.225   3.676  20.874  0.00  0.00    +0.000 OA
ENDBRANCH   1  25
TORSDOF 3
ENDMDL
MODEL 4
REMARK VINA RESULT:      -7.9      2.086      4.031
REMARK  Name = 
REMARK  8 active torsions:
REMARK  status: ('A' for Active; 'I' for Inactive)
REMARK    1  A    between atoms: C_1  and  O_2
REMARK    2  A    between atoms: O_2  and  C_3
REMARK    3  A    between atoms: C_9  and  C_10
REMARK    4  A    between atoms: C_15  and  C_16
REMARK    5  A    between atoms: N_17  and  C_18
REMARK    6  A    between atoms: N_21  and  C_22
REMARK    7  A    between atoms: C_22  and  C_23
REMARK    8  A    between atoms: C_22  and  C_24
REMARK                            x       y       z     vdW  Elec       q    Type
REMARK                         _______ _______ _______ _____ _____    ______ ____
ROOT
ATOM      1  C   UNL     1       2.228   3.186  19.102  0.00  0.00    +0.000 A 
ATOM      2  C   UNL     1       3.278   2.598  18.406  0.00  0.00    +0.000 A 
ATOM      3  C   UNL     1       4.173   3.375  17.658  0.00  0.00    +0.000 A 
ATOM      4  C   UNL     1       3.993   4.768  17.623  0.00  0.00    +0.000 A 
ATOM      5  C   UNL     1       2.947   5.386  18.317  0.00  0.00    +0.000 A 
ATOM      6  C   UNL     1       2.048   4.570  19.044  0.00  0.00    +0.000 A 
ATOM      7  C   UNL     1       3.054   6.804  18.123  0.00  0.00    +0.000 A 
ATOM      8  C   UNL     1       4.130   6.996  17.272  0.00  0.00    +0.000 A 
ATOM      9  N   UNL     1       4.701   5.774  16.991  0.00  0.00    +0.000 N 
ENDROOT
BRANCH   7  10
ATOM     10  C   UNL     1       2.221   7.825  18.766  0.00  0.00    +0.000 C 
ATOM     11  O   UNL     1       2.075   7.842  19.985  0.00  0.00    +0.000 OA
ATOM     12  N   UNL     1       1.594   8.704  17.906  0.00  0.00    +0.000 N 
ATOM     13  C   UNL     1       0.772   9.699  18.391  0.00  0.00    +0.000 A 
ATOM     14  C   UNL     1       0.954  10.493  19.546  0.00  0.00    +0.000 A 
ATOM     15  C   UNL     1      -0.170  11.285  19.637  0.00  0.00    +0.000 A 
ATOM     16  C   UNL     1      -0.545  12.322  20.626  0.00  0.00    +0.000 C 
ATOM     17  N   UNL     1      -0.971  10.870  18.604  0.00  0.00    +0.000 N 
ATOM     18  C   UNL     1      -2.377  11.137  18.414  0.00  0.00    +0.000 C 
ATOM     19  N   UNL     1      -0.342  10.031  17.746  0.00  0.00    +0.000 NA
ATOM     20  H   UNL     1       1.398   8.410  16.964  0.00  0.00    +0.000 HD
ENDBRANCH   7  10
BRANCH   9  21
ATOM     21  C   UNL     1       5.901   5.585  16.172  0.00  0.00    +0.000 C 
ATOM     22  C   UNL     1       7.040   4.947  16.969  0.00  0.00    +0.000 C 
ATOM     23  C   UNL     1       5.605   4.792  14.897  0.00  0.00    +0.000 C 
ENDBRANCH   9  21
BRANCH   1  25
ATOM     24  C   UNL     1       1.321   2.726  21.236  0.00  0.00    +0.000 C 
ATOM     25  O   UNL     1       1.287   2.510  19.831  0.00  0.00    +0.000 OA
ENDBRANCH   1  25
TORSDOF 3
ENDMDL
MODEL 5
REMARK VINA RESULT:      -7.9      1.709      3.956
REMARK  Name = 
REMARK  8 active torsions:
REMARK  status: ('A' for Active; 'I' for Inactive)
REMARK    1  A    between atoms: C_1  and  O_2
REMARK    2  A    between atoms: O_2  and  C_3
REMARK    3  A    between atoms: C_9  and  C_10
REMARK    4  A    between atoms: C_15  and  C_16
REMARK    5  A    between atoms: N_17  and  C_18
REMARK    6  A    between atoms: N_21  and  C_22
REMARK    7  A    between atoms: C_22  and  C_23
REMARK    8  A    between atoms: C_22  and  C_24
REMARK                            x       y       z     vdW  Elec       q    Type
REMARK                         _______ _______ _______ _____ _____    ______ ____
ROOT
ATOM      1  C   UNL     1       1.994   3.696  17.948  0.00  0.00    +0.000 A 
ATOM      2  C   UNL     1       3.211   3.041  17.800  0.00  0.00    +0.000 A 
ATOM      3  C   UNL     1       4.403   3.761  17.633  0.00  0.00    +0.000 A 
ATOM      4  C   UNL     1       4.348   5.164  17.619  0.00  0.00    +0.000 A 
ATOM      5  C   UNL     1       3.138   5.848  17.770  0.00  0.00    +0.000 A 
ATOM      6  C   UNL     1       1.951   5.092  17.914  0.00  0.00    +0.000 A 
ATOM      7  C   UNL     1       3.412   7.258  17.756  0.00  0.00    +0.000 A 
ATOM      8  C   UNL     1       4.776   7.382  17.542  0.00  0.00    +0.000 A 
ATOM      9  N   UNL     1       5.334   6.124  17.481  0.00  0.00    +0.000 N 
ENDROOT
BRANCH   7  10
ATOM     10  C   UNL     1       2.436   8.326  17.994  0.00  0.00    +0.000 C 
ATOM     11  O   UNL     1       2.221   9.183  17.143  0.00  0.00    +0.000 OA
ATOM     12  N   UNL     1       1.838   8.313  19.238  0.00  0.00    +0.000 N 
ATOM     13  C   UNL     1       0.915   9.275  19.586  0.00  0.00    +0.000 A 
ATOM     14  C   UNL     1      -0.095   9.846  18.777  0.00  0.00    +0.000 A 
ATOM     15  C   UNL     1      -0.703  10.805  19.558  0.00  0.00    +0.000 A 
ATOM     16  C   UNL     1      -1.830  11.720  19.264  0.00  0.00    +0.000 C 
ATOM     17  N   UNL     1       0.015  10.806  20.727  0.00  0.00    +0.000 N 
ATOM     18  C   UNL     1       0.012  11.810  21.765  0.00  0.00    +0.000 C 
ATOM     19  N   UNL     1       0.885   9.772  20.819  0.00  0.00    +0.000 NA
ATOM     20  H   UNL     1       2.326   7.891  20.011  0.00  0.00    +0.000 HD
ENDBRANCH   7  10
BRANCH   9  21
ATOM     21  C   UNL     1       6.767   5.857  17.326  0.00  0.00    +0.000 C 
ATOM     22  C   UNL     1       7.100   5.328  15.931  0.00  0.00    +0.000 C 
ATOM     23  C   UNL     1       7.618   7.081  17.672  0.00  0.00    +0.000 C 
ENDBRANCH   9  21
BRANCH   1  25
ATOM     24  C   UNL     1       0.652   2.202  19.194  0.00  0.00    +0.000 C 
ATOM     25  O   UNL     1       0.778   3.082  18.084  0.00  0.00    +0.000 OA
ENDBRANCH   1  25
TORSDOF 3
ENDMDL
MODEL 6
REMARK VINA RESULT:      -7.9      2.081      4.242
REMARK  Name = 
REMARK  8 active torsions:
REMARK  status: ('A' for Active; 'I' for Inactive)
REMARK    1  A    between atoms: C_1  and  O_2
REMARK    2  A    between atoms: O_2  and  C_3
REMARK    3  A    between atoms: C_9  and  C_10
REMARK    4  A    between atoms: C_15  and  C_16
REMARK    5  A    between atoms: N_17  and  C_18
REMARK    6  A    between atoms: N_21  and  C_22
REMARK    7  A    between atoms: C_22  and  C_23
REMARK    8  A    between atoms: C_22  and  C_24
REMARK                            x       y       z     vdW  Elec       q    Type
REMARK                         _______ _______ _______ _____ _____    ______ ____
ROOT
ATOM      1  C   UNL     1       1.919   3.233  17.985  0.00  0.00    +0.000 A 
ATOM      2  C   UNL     1       3.074   2.666  17.458  0.00  0.00    +0.000 A 
ATOM      3  C   UNL     1       4.190   3.457  17.149  0.00  0.00    +0.000 A 
ATOM      4  C   UNL     1       4.124   4.841  17.382  0.00  0.00    +0.000 A 
ATOM      5  C   UNL     1       2.975   5.436  17.914  0.00  0.00    +0.000 A 
ATOM      6  C   UNL     1       1.859   4.613  18.194  0.00  0.00    +0.000 A 
ATOM      7  C   UNL     1       3.229   6.840  18.073  0.00  0.00    +0.000 A 
ATOM      8  C   UNL     1       4.506   7.059  17.581  0.00  0.00    +0.000 A 
ATOM      9  N   UNL     1       5.044   5.854  17.186  0.00  0.00    +0.000 N 
ENDROOT
BRANCH   7  10
ATOM     10  C   UNL     1       2.326   7.811  18.700  0.00  0.00    +0.000 C 
ATOM     11  O   UNL     1       2.140   7.805  19.913  0.00  0.00    +0.000 OA
ATOM     12  N   UNL     1       1.686   8.670  17.830  0.00  0.00    +0.000 N 
ATOM     13  C   UNL     1       0.801   9.617  18.298  0.00  0.00    +0.000 A 
ATOM     14  C   UNL     1       0.906  10.404  19.467  0.00  0.00    +0.000 A 
ATOM     15  C   UNL     1      -0.258  11.140  19.530  0.00  0.00    +0.000 A 
ATOM     16  C   UNL     1      -0.716  12.144  20.517  0.00  0.00    +0.000 C 
ATOM     17  N   UNL     1      -1.004  10.699  18.466  0.00  0.00    +0.000 N 
ATOM     18  C   UNL     1      -2.414  10.900  18.232  0.00  0.00    +0.000 C 
ATOM     19  N   UNL     1      -0.307   9.903  17.620  0.00  0.00    +0.000 NA
ATOM     20  H   UNL     1       1.535   8.378  16.878  0.00  0.00    +0.000 HD
ENDBRANCH   7  10
BRANCH   9  21
ATOM     21  C   UNL     1       6.405   5.680  16.670  0.00  0.00    +0.000 C 
ATOM     22  C   UNL     1       6.416   5.471  15.155  0.00  0.00    +0.000 C 
ATOM     23  C   UNL     1       7.323   6.836  17.076  0.00  0.00    +0.000 C 
ENDBRANCH   9  21
BRANCH   1  25
ATOM     24  C   UNL     1       0.522   2.345  19.672  0.00  0.00    +0.000 C 
ATOM     25  O   UNL     1       0.772   2.550  18.287  0.00  0.00    +0.000 OA
ENDBRANCH   1  25
TORSDOF 3
ENDMDL
MODEL 7
REMARK VINA RESULT:      -7.6      1.326      1.685
REMARK  Name = 
REMARK  8 active torsions:
REMARK  status: ('A' for Active; 'I' for Inactive)
REMARK    1  A    between atoms: C_1  and  O_2
REMARK    2  A    between atoms: O_2  and  C_3
REMARK    3  A    between atoms: C_9  and  C_10
REMARK    4  A    between atoms: C_15  and  C_16
REMARK    5  A    between atoms: N_17  and  C_18
REMARK    6  A    between atoms: N_21  and  C_22
REMARK    7  A    between atoms: C_22  and  C_23
REMARK    8  A    between atoms: C_22  and  C_24
REMARK                            x       y       z     vdW  Elec       q    Type
REMARK                         _______ _______ _______ _____ _____    ______ ____
ROOT
ATOM      1  C   UNL     1       6.021   6.105  16.771  0.00  0.00    +0.000 A 
ATOM      2  C   UNL     1       6.019   4.747  16.469  0.00  0.00    +0.000 A 
ATOM      3  C   UNL     1       4.953   3.923  16.857  0.00  0.00    +0.000 A 
ATOM      4  C   UNL     1       3.878   4.494  17.559  0.00  0.00    +0.000 A 
ATOM      5  C   UNL     1       3.853   5.857  17.872  0.00  0.00    +0.000 A 
ATOM      6  C   UNL     1       4.955   6.656  17.486  0.00  0.00    +0.000 A 
ATOM      7  C   UNL     1       2.618   6.141  18.546  0.00  0.00    +0.000 A 
ATOM      8  C   UNL     1       1.958   4.928  18.668  0.00  0.00    +0.000 A 
ATOM      9  N   UNL     1       2.709   3.948  18.057  0.00  0.00    +0.000 N 
ENDROOT
BRANCH   7  10
ATOM     10  C   UNL     1       2.145   7.469  18.949  0.00  0.00    +0.000 C 
ATOM     11  O   UNL     1       2.268   7.856  20.108  0.00  0.00    +0.000 OA
ATOM     12  N   UNL     1       1.523   8.201  17.958  0.00  0.00    +0.000 N 
ATOM     13  C   UNL     1       1.023   9.458  18.218  0.00  0.00    +0.000 A 
ATOM     14  C   UNL     1       1.590  10.472  19.024  0.00  0.00    +0.000 A 
ATOM     15  C   UNL     1       0.678  11.505  19.024  0.00  0.00    +0.000 A 
ATOM     16  C   UNL     1       0.720  12.833  19.679  0.00  0.00    +0.000 C 
ATOM     17  N   UNL     1      -0.388  11.026  18.305  0.00  0.00    +0.000 N 
ATOM     18  C   UNL     1      -1.727  11.561  18.249  0.00  0.00    +0.000 C 
ATOM     19  N   UNL     1      -0.123   9.858  17.673  0.00  0.00    +0.000 NA
ATOM     20  H   UNL     1       1.080   7.714  17.196  0.00  0.00    +0.000 HD
ENDBRANCH   7  10
BRANCH   9  21
ATOM     21  C   UNL     1       2.302   2.547  17.931  0.00  0.00    +0.000 C 
ATOM     22  C   UNL     1       3.373   1.592  18.462  0.00  0.00    +0.000 C 
ATOM     23  C   UNL     1       0.947   2.282  18.592  0.00  0.00    +0.000 C 
ENDBRANCH   9  21
BRANCH   1  25
ATOM     24  C   UNL     1       7.521   7.757  17.549  0.00  0.00    +0.000 C 
ATOM     25  O   UNL     1       7.028   6.980  16.465  0.00  0.00    +0.000 OA
ENDBRANCH   1  25
TORSDOF 3
ENDMDL
MODEL 8
REMARK VINA RESULT:      -7.5      2.181      8.173
REMARK  Name = 
REMARK  8 active torsions:
REMARK  status: ('A' for Active; 'I' for Inactive)
REMARK    1  A    between atoms: C_1  and  O_2
REMARK    2  A    between atoms: O_2  and  C_3
REMARK    3  A    between atoms: C_9  and  C_10
REMARK    4  A    between atoms: C_15  and  C_16
REMARK    5  A    between atoms: N_17  and  C_18
REMARK    6  A    between atoms: N_21  and  C_22
REMARK    7  A    between atoms: C_22  and  C_23
REMARK    8  A    between atoms: C_22  and  C_24
REMARK                            x       y       z     vdW  Elec       q    Type
REMARK                         _______ _______ _______ _____ _____    ______ ____
ROOT
ATOM      1  C   UNL     1      -2.747  10.391  17.081  0.00  0.00    +0.000 A 
ATOM      2  C   UNL     1      -3.271  11.377  17.911  0.00  0.00    +0.000 A 
ATOM      3  C   UNL     1      -2.540  11.863  19.005  0.00  0.00    +0.000 A 
ATOM      4  C   UNL     1      -1.261  11.336  19.250  0.00  0.00    +0.000 A 
ATOM      5  C   UNL     1      -0.709  10.347  18.429  0.00  0.00    +0.000 A 
ATOM      6  C   UNL     1      -1.482   9.863  17.348  0.00  0.00    +0.000 A 
ATOM      7  C   UNL     1       0.611  10.050  18.908  0.00  0.00    +0.000 A 
ATOM      8  C   UNL     1       0.796  10.831  20.038  0.00  0.00    +0.000 A 
ATOM      9  N   UNL     1      -0.321  11.614  20.227  0.00  0.00    +0.000 N 
ENDROOT
BRANCH   7  10
ATOM     10  C   UNL     1       1.575   9.149  18.268  0.00  0.00    +0.000 C 
ATOM     11  O   UNL     1       2.082   9.434  17.187  0.00  0.00    +0.000 OA
ATOM     12  N   UNL     1       1.814   7.966  18.939  0.00  0.00    +0.000 N 
ATOM     13  C   UNL     1       2.689   7.032  18.429  0.00  0.00    +0.000 A 
ATOM     14  C   UNL     1       3.923   7.257  17.777  0.00  0.00    +0.000 A 
ATOM     15  C   UNL     1       4.379   6.014  17.395  0.00  0.00    +0.000 A 
ATOM     16  C   UNL     1       5.616   5.613  16.688  0.00  0.00    +0.000 C 
ATOM     17  N   UNL     1       3.377   5.151  17.760  0.00  0.00    +0.000 N 
ATOM     18  C   UNL     1       3.187   3.786  17.331  0.00  0.00    +0.000 C 
ATOM     19  N   UNL     1       2.429   5.732  18.535  0.00  0.00    +0.000 NA
ATOM     20  H   UNL     1       1.103   7.597  19.549  0.00  0.00    +0.000 HD
ENDBRANCH   7  10
BRANCH   9  21
ATOM     21  C   UNL     1      -0.466  12.614  21.288  0.00  0.00    +0.000 C 
ATOM     22  C   UNL     1      -0.831  11.973  22.628  0.00  0.00    +0.000 C 
ATOM     23  C   UNL     1       0.778  13.496  21.417  0.00  0.00    +0.000 C 
ENDBRANCH   9  21
BRANCH   1  25
ATOM     24  C   UNL     1      -3.083  10.388  14.742  0.00  0.00    +0.000 C 
ATOM     25  O   UNL     1      -3.396   9.833  16.013  0.00  0.00    +0.000 OA
ENDBRANCH   1  25
TORSDOF 3
ENDMDL
MODEL 9
REMARK VINA RESULT:      -7.5      1.461      1.755
REMARK  Name = 
REMARK  8 active torsions:
REMARK  status: ('A' for Active; 'I' for Inactive)
REMARK    1  A    between atoms: C_1  and  O_2
REMARK    2  A    between atoms: O_2  and  C_3
REMARK    3  A    between atoms: C_9  and  C_10
REMARK    4  A    between atoms: C_15  and  C_16
REMARK    5  A    between atoms: N_17  and  C_18
REMARK    6  A    between atoms: N_21  and  C_22
REMARK    7  A    between atoms: C_22  and  C_23
REMARK    8  A    between atoms: C_22  and  C_24
REMARK                            x       y       z     vdW  Elec       q    Type
REMARK                         _______ _______ _______ _____ _____    ______ ____
ROOT
ATOM      1  C   UNL     1       5.185   6.098  17.264  0.00  0.00    +0.000 A 
ATOM      2  C   UNL     1       5.234   4.709  17.310  0.00  0.00    +0.000 A 
ATOM      3  C   UNL     1       4.357   3.983  18.128  0.00  0.00    +0.000 A 
ATOM      4  C   UNL     1       3.420   4.684  18.905  0.00  0.00    +0.000 A 
ATOM      5  C   UNL     1       3.347   6.081  18.875  0.00  0.00    +0.000 A 
ATOM      6  C   UNL     1       4.261   6.785  18.056  0.00  0.00    +0.000 A 
ATOM      7  C   UNL     1       2.274   6.494  19.735  0.00  0.00    +0.000 A 
ATOM      8  C   UNL     1       1.766   5.336  20.300  0.00  0.00    +0.000 A 
ATOM      9  N   UNL     1       2.444   4.253  19.785  0.00  0.00    +0.000 N 
ENDROOT
BRANCH   7  10
ATOM     10  C   UNL     1       1.789   7.867  19.904  0.00  0.00    +0.000 C 
ATOM     11  O   UNL     1       1.753   8.390  21.014  0.00  0.00    +0.000 OA
ATOM     12  N   UNL     1       1.344   8.483  18.752  0.00  0.00    +0.000 N 
ATOM     13  C   UNL     1       0.850   9.770  18.786  0.00  0.00    +0.000 A 
ATOM     14  C   UNL     1       1.325  10.865  19.542  0.00  0.00    +0.000 A 
ATOM     15  C   UNL     1       0.456  11.903  19.285  0.00  0.00    +0.000 A 
ATOM     16  C   UNL     1       0.444  13.300  19.779  0.00  0.00    +0.000 C 
ATOM     17  N   UNL     1      -0.507  11.357  18.476  0.00  0.00    +0.000 N 
ATOM     18  C   UNL     1      -1.806  11.900  18.158  0.00  0.00    +0.000 C 
ATOM     19  N   UNL     1      -0.189  10.117  18.032  0.00  0.00    +0.000 NA
ATOM     20  H   UNL     1       1.002   7.915  17.994  0.00  0.00    +0.000 HD
ENDBRANCH   7  10
BRANCH   9  21
ATOM     21  C   UNL     1       2.142   2.855  20.103  0.00  0.00    +0.000 C 
ATOM     22  C   UNL     1       1.626   2.695  21.534  0.00  0.00    +0.000 C 
ATOM     23  C   UNL     1       1.174   2.234  19.093  0.00  0.00    +0.000 C 
ENDBRANCH   9  21
BRANCH   1  25
ATOM     24  C   UNL     1       7.200   7.331  17.183  0.00  0.00    +0.000 C 
ATOM     25  O   UNL     1       6.018   6.893  16.524  0.00  0.00    +0.000 OA
ENDBRANCH   1  25
TORSDOF 3
ENDMDL
