MODEL 1
REMARK VINA RESULT:      -7.4      0.000      0.000
REMARK  Name = 
REMARK  4 active torsions:
REMARK  status: ('A' for Active; 'I' for Inactive)
REMARK    1  A    between atoms: C_2  and  C_3
REMARK    2  A    between atoms: C_6  and  C_7
REMARK    3  A    between atoms: C_13  and  C_14
REMARK    4  A    between atoms: C_14  and  O_16
REMARK                            x       y       z     vdW  Elec       q    Type
REMARK                         _______ _______ _______ _____ _____    ______ ____
ROOT
ATOM      1  C   UNL     1       2.902   5.851  18.516  0.00  0.00    +0.000 C 
ATOM      2  C   UNL     1       2.697   4.886  19.702  0.00  0.00    +0.000 C 
ATOM      3  C   UNL     1       3.708   3.753  19.799  0.00  0.00    +0.000 C 
ATOM      4  O   UNL     1       3.408   2.666  20.288  0.00  0.00    +0.000 OA
ATOM      5  N   UNL     1       5.005   4.033  19.445  0.00  0.00    +0.000 N 
ATOM      6  C   UNL     1       5.337   5.116  18.654  0.00  0.00    +0.000 A 
ATOM      7  C   UNL     1       6.625   5.510  18.161  0.00  0.00    +0.000 A 
ATOM      8  N   UNL     1       6.620   6.563  17.327  0.00  0.00    +0.000 NA
ATOM      9  S   UNL     1       5.056   7.079  17.118  0.00  0.00    +0.000 S 
ATOM     10  C   UNL     1       4.359   5.962  18.195  0.00  0.00    +0.000 A 
ATOM     11  H   UNL     1       5.715   3.335  19.656  0.00  0.00    +0.000 HD
ENDROOT
BRANCH   1  15
ATOM     12  C   UNL     1       1.012   9.670  19.352  0.00  0.00    +0.000 A 
ATOM     13  C   UNL     1       1.365   9.338  18.044  0.00  0.00    +0.000 A 
ATOM     14  C   UNL     1       1.979   8.112  17.776  0.00  0.00    +0.000 A 
ATOM     15  C   UNL     1       2.261   7.203  18.812  0.00  0.00    +0.000 A 
ATOM     16  C   UNL     1       1.901   7.547  20.123  0.00  0.00    +0.000 A 
ATOM     17  C   UNL     1       1.281   8.772  20.390  0.00  0.00    +0.000 A 
BRANCH  12  19
ATOM     18  N   UNL     1      -0.153  11.933  19.847  0.00  0.00    +0.000 NA
ATOM     19  C   UNL     1       0.372  10.920  19.626  0.00  0.00    +0.000 C 
ENDBRANCH  12  19
ENDBRANCH   1  15
BRANCH   7  20
ATOM     20  C   UNL     1       7.905   4.877  18.483  0.00  0.00    +0.000 C 
ATOM     21  O   UNL     1       8.469   4.071  17.754  0.00  0.00    +0.000 OA
BRANCH  20  22
ATOM     22  O   UNL     1       8.413   5.264  19.686  0.00  0.00    +0.000 OA
ATOM     23  H   UNL     1       7.657   5.414  20.300  0.00  0.00    +0.000 HD
ENDBRANCH  20  22
ENDBRANCH   7  20
TORSDOF 4
ENDMDL
MODEL 2
REMARK VINA RESULT:      -7.4      0.108      1.059
REMARK  Name = 
REMARK  4 active torsions:
REMARK  status: ('A' for Active; 'I' for Inactive)
REMARK    1  A    between atoms: C_2  and  C_3
REMARK    2  A    between atoms: C_6  and  C_7
REMARK    3  A    between atoms: C_13  and  C_14
REMARK    4  A    between atoms: C_14  and  O_16
REMARK                            x       y       z     vdW  Elec       q    Type
REMARK                         _______ _______ _______ _____ _____    ______ ____
ROOT
ATOM      1  C   UNL     1       2.927   5.790  18.425  0.00  0.00    +0.000 C 
ATOM      2  C   UNL     1       2.698   4.790  19.577  0.00  0.00    +0.000 C 
ATOM      3  C   UNL     1       3.719   3.665  19.671  0.00  0.00    +0.000 C 
ATOM      4  O   UNL     1       3.417   2.562  20.121  0.00  0.00    +0.000 OA
ATOM      5  N   UNL     1       5.022   3.970  19.364  0.00  0.00    +0.000 N 
ATOM      6  C   UNL     1       5.365   5.078  18.615  0.00  0.00    +0.000 A 
ATOM      7  C   UNL     1       6.662   5.501  18.172  0.00  0.00    +0.000 A 
ATOM      8  N   UNL     1       6.669   6.577  17.368  0.00  0.00    +0.000 NA
ATOM      9  S   UNL     1       5.106   7.081  17.127  0.00  0.00    +0.000 S 
ATOM     10  C   UNL     1       4.391   5.926  18.150  0.00  0.00    +0.000 A 
ATOM     11  H   UNL     1       5.734   3.274  19.578  0.00  0.00    +0.000 HD
ENDROOT
BRANCH   1  15
ATOM     12  C   UNL     1       1.094   9.623  19.326  0.00  0.00    +0.000 A 
ATOM     13  C   UNL     1       1.365   8.720  20.354  0.00  0.00    +0.000 A 
ATOM     14  C   UNL     1       1.948   7.484  20.064  0.00  0.00    +0.000 A 
ATOM     15  C   UNL     1       2.260   7.126  18.739  0.00  0.00    +0.000 A 
ATOM     16  C   UNL     1       1.985   8.042  17.714  0.00  0.00    +0.000 A 
ATOM     17  C   UNL     1       1.406   9.281  18.006  0.00  0.00    +0.000 A 
BRANCH  12  19
ATOM     18  N   UNL     1       0.028  11.924  19.864  0.00  0.00    +0.000 NA
ATOM     19  C   UNL     1       0.508  10.893  19.624  0.00  0.00    +0.000 C 
ENDBRANCH  12  19
ENDBRANCH   1  15
BRANCH   7  20
ATOM     20  C   UNL     1       7.939   4.872  18.514  0.00  0.00    +0.000 C 
ATOM     21  O   UNL     1       8.517   4.068  17.795  0.00  0.00    +0.000 OA
BRANCH  20  22
ATOM     22  O   UNL     1       8.427   5.263  19.724  0.00  0.00    +0.000 OA
ATOM     23  H   UNL     1       8.841   6.150  19.613  0.00  0.00    +0.000 HD
ENDBRANCH  20  22
ENDBRANCH   7  20
TORSDOF 4
ENDMDL
MODEL 3
REMARK VINA RESULT:      -7.3      1.188      1.295
REMARK  Name = 
REMARK  4 active torsions:
REMARK  status: ('A' for Active; 'I' for Inactive)
REMARK    1  A    between atoms: C_2  and  C_3
REMARK    2  A    between atoms: C_6  and  C_7
REMARK    3  A    between atoms: C_13  and  C_14
REMARK    4  A    between atoms: C_14  and  O_16
REMARK                            x       y       z     vdW  Elec       q    Type
REMARK                         _______ _______ _______ _____ _____    ______ ____
ROOT
ATOM      1  C   UNL     1       2.515   5.712  18.190  0.00  0.00    +0.000 C 
ATOM      2  C   UNL     1       2.440   4.447  19.070  0.00  0.00    +0.000 C 
ATOM      3  C   UNL     1       3.346   3.303  18.640  0.00  0.00    +0.000 C 
ATOM      4  O   UNL     1       3.043   2.131  18.850  0.00  0.00    +0.000 OA
ATOM      5  N   UNL     1       4.578   3.632  18.130  0.00  0.00    +0.000 N 
ATOM      6  C   UNL     1       4.859   4.888  17.630  0.00  0.00    +0.000 A 
ATOM      7  C   UNL     1       6.068   5.368  17.024  0.00  0.00    +0.000 A 
ATOM      8  N   UNL     1       6.008   6.620  16.541  0.00  0.00    +0.000 NA
ATOM      9  S   UNL     1       4.484   7.226  16.801  0.00  0.00    +0.000 S 
ATOM     10  C   UNL     1       3.895   5.864  17.632  0.00  0.00    +0.000 A 
ATOM     11  H   UNL     1       5.249   2.879  17.990  0.00  0.00    +0.000 HD
ENDROOT
BRANCH   1  15
ATOM     12  C   UNL     1       1.155   9.178  20.425  0.00  0.00    +0.000 A 
ATOM     13  C   UNL     1       1.366   9.274  19.049  0.00  0.00    +0.000 A 
ATOM     14  C   UNL     1       1.809   8.161  18.331  0.00  0.00    +0.000 A 
ATOM     15  C   UNL     1       2.061   6.937  18.978  0.00  0.00    +0.000 A 
ATOM     16  C   UNL     1       1.845   6.852  20.361  0.00  0.00    +0.000 A 
ATOM     17  C   UNL     1       1.396   7.965  21.079  0.00  0.00    +0.000 A 
BRANCH  12  19
ATOM     18  N   UNL     1       0.307  11.234  21.757  0.00  0.00    +0.000 NA
ATOM     19  C   UNL     1       0.689  10.315  21.158  0.00  0.00    +0.000 C 
ENDBRANCH  12  19
ENDBRANCH   1  15
BRANCH   7  20
ATOM     20  C   UNL     1       7.323   4.625  16.893  0.00  0.00    +0.000 C 
ATOM     21  O   UNL     1       7.903   4.451  15.830  0.00  0.00    +0.000 OA
BRANCH  20  22
ATOM     22  O   UNL     1       7.786   4.132  18.076  0.00  0.00    +0.000 OA
ATOM     23  H   UNL     1       7.974   4.896  18.670  0.00  0.00    +0.000 HD
ENDBRANCH  20  22
ENDBRANCH   7  20
TORSDOF 4
ENDMDL
MODEL 4
REMARK VINA RESULT:      -7.3      1.068      1.672
REMARK  Name = 
REMARK  4 active torsions:
REMARK  status: ('A' for Active; 'I' for Inactive)
REMARK    1  A    between atoms: C_2  and  C_3
REMARK    2  A    between atoms: C_6  and  C_7
REMARK    3  A    between atoms: C_13  and  C_14
REMARK    4  A    between atoms: C_14  and  O_16
REMARK                            x       y       z     vdW  Elec       q    Type
REMARK                         _______ _______ _______ _____ _____    ______ ____
ROOT
ATOM      1  C   UNL     1       2.562   5.737  18.180  0.00  0.00    +0.000 C 
ATOM      2  C   UNL     1       2.450   4.489  19.080  0.00  0.00    +0.000 C 
ATOM      3  C   UNL     1       3.385   3.344  18.721  0.00  0.00    +0.000 C 
ATOM      4  O   UNL     1       3.080   2.174  18.939  0.00  0.00    +0.000 OA
ATOM      5  N   UNL     1       4.640   3.673  18.271  0.00  0.00    +0.000 N 
ATOM      6  C   UNL     1       4.938   4.921  17.760  0.00  0.00    +0.000 A 
ATOM      7  C   UNL     1       6.174   5.398  17.209  0.00  0.00    +0.000 A 
ATOM      8  N   UNL     1       6.130   6.640  16.697  0.00  0.00    +0.000 NA
ATOM      9  S   UNL     1       4.591   7.238  16.865  0.00  0.00    +0.000 S 
ATOM     10  C   UNL     1       3.968   5.889  17.692  0.00  0.00    +0.000 A 
ATOM     11  H   UNL     1       5.323   2.923  18.181  0.00  0.00    +0.000 HD
ENDROOT
BRANCH   1  15
ATOM     12  C   UNL     1       1.195   9.278  20.289  0.00  0.00    +0.000 A 
ATOM     13  C   UNL     1       1.437   8.098  20.991  0.00  0.00    +0.000 A 
ATOM     14  C   UNL     1       1.871   6.957  20.313  0.00  0.00    +0.000 A 
ATOM     15  C   UNL     1       2.059   6.973  18.918  0.00  0.00    +0.000 A 
ATOM     16  C   UNL     1       1.813   8.166  18.222  0.00  0.00    +0.000 A 
ATOM     17  C   UNL     1       1.385   9.309  18.903  0.00  0.00    +0.000 A 
BRANCH  12  19
ATOM     18  N   UNL     1       0.411  11.400  21.555  0.00  0.00    +0.000 NA
ATOM     19  C   UNL     1       0.764  10.451  20.986  0.00  0.00    +0.000 C 
ENDBRANCH  12  19
ENDBRANCH   1  15
BRANCH   7  20
ATOM     20  C   UNL     1       7.439   4.663  17.159  0.00  0.00    +0.000 C 
ATOM     21  O   UNL     1       8.043   4.279  18.151  0.00  0.00    +0.000 OA
BRANCH  20  22
ATOM     22  O   UNL     1       7.891   4.451  15.892  0.00  0.00    +0.000 OA
ATOM     23  H   UNL     1       7.332   3.750  15.483  0.00  0.00    +0.000 HD
ENDBRANCH  20  22
ENDBRANCH   7  20
TORSDOF 4
ENDMDL
MODEL 5
REMARK VINA RESULT:      -7.1      2.451      3.961
REMARK  Name = 
REMARK  4 active torsions:
REMARK  status: ('A' for Active; 'I' for Inactive)
REMARK    1  A    between atoms: C_2  and  C_3
REMARK    2  A    between atoms: C_6  and  C_7
REMARK    3  A    between atoms: C_13  and  C_14
REMARK    4  A    between atoms: C_14  and  O_16
REMARK                            x       y       z     vdW  Elec       q    Type
REMARK                         _______ _______ _______ _____ _____    ______ ____
ROOT
ATOM      1  C   UNL     1       3.119   7.188  18.906  0.00  0.00    +0.000 C 
ATOM      2  C   UNL     1       3.729   7.262  17.491  0.00  0.00    +0.000 C 
ATOM      3  C   UNL     1       4.434   5.998  17.022  0.00  0.00    +0.000 C 
ATOM      4  O   UNL     1       5.379   6.044  16.237  0.00  0.00    +0.000 OA
ATOM      5  N   UNL     1       3.891   4.795  17.401  0.00  0.00    +0.000 N 
ATOM      6  C   UNL     1       3.025   4.680  18.471  0.00  0.00    +0.000 A 
ATOM      7  C   UNL     1       2.419   3.500  19.017  0.00  0.00    +0.000 A 
ATOM      8  N   UNL     1       1.693   3.693  20.131  0.00  0.00    +0.000 NA
ATOM      9  S   UNL     1       1.747   5.302  20.538  0.00  0.00    +0.000 S 
ATOM     10  C   UNL     1       2.673   5.790  19.197  0.00  0.00    +0.000 A 
ATOM     11  H   UNL     1       4.257   3.951  16.964  0.00  0.00    +0.000 HD
ENDROOT
BRANCH   1  15
ATOM     12  C   UNL     1      -0.037  10.140  19.335  0.00  0.00    +0.000 A 
ATOM     13  C   UNL     1       0.460   9.481  20.460  0.00  0.00    +0.000 A 
ATOM     14  C   UNL     1       1.471   8.527  20.322  0.00  0.00    +0.000 A 
ATOM     15  C   UNL     1       1.993   8.207  19.055  0.00  0.00    +0.000 A 
ATOM     16  C   UNL     1       1.487   8.876  17.932  0.00  0.00    +0.000 A 
ATOM     17  C   UNL     1       0.480   9.835  18.071  0.00  0.00    +0.000 A 
BRANCH  12  19
ATOM     18  N   UNL     1      -1.894  11.930  19.598  0.00  0.00    +0.000 NA
ATOM     19  C   UNL     1      -1.063  11.127  19.478  0.00  0.00    +0.000 C 
ENDBRANCH  12  19
ENDBRANCH   1  15
BRANCH   7  20
ATOM     20  C   UNL     1       2.525   2.144  18.476  0.00  0.00    +0.000 C 
ATOM     21  O   UNL     1       3.518   1.715  17.903  0.00  0.00    +0.000 OA
BRANCH  20  22
ATOM     22  O   UNL     1       1.402   1.397  18.664  0.00  0.00    +0.000 OA
ATOM     23  H   UNL     1       1.649   0.448  18.570  0.00  0.00    +0.000 HD
ENDBRANCH  20  22
ENDBRANCH   7  20
TORSDOF 4
ENDMDL
MODEL 6
REMARK VINA RESULT:      -7.1      2.439      3.836
REMARK  Name = 
REMARK  4 active torsions:
REMARK  status: ('A' for Active; 'I' for Inactive)
REMARK    1  A    between atoms: C_2  and  C_3
REMARK    2  A    between atoms: C_6  and  C_7
REMARK    3  A    between atoms: C_13  and  C_14
REMARK    4  A    between atoms: C_14  and  O_16
REMARK                            x       y       z     vdW  Elec       q    Type
REMARK                         _______ _______ _______ _____ _____    ______ ____
ROOT
ATOM      1  C   UNL     1       3.184   7.103  18.893  0.00  0.00    +0.000 C 
ATOM      2  C   UNL     1       3.770   7.138  17.467  0.00  0.00    +0.000 C 
ATOM      3  C   UNL     1       4.432   5.848  17.005  0.00  0.00    +0.000 C 
ATOM      4  O   UNL     1       5.362   5.857  16.203  0.00  0.00    +0.000 OA
ATOM      5  N   UNL     1       3.862   4.667  17.412  0.00  0.00    +0.000 N 
ATOM      6  C   UNL     1       3.013   4.592  18.499  0.00  0.00    +0.000 A 
ATOM      7  C   UNL     1       2.385   3.438  19.074  0.00  0.00    +0.000 A 
ATOM      8  N   UNL     1       1.685   3.668  20.198  0.00  0.00    +0.000 NA
ATOM      9  S   UNL     1       1.791   5.281  20.578  0.00  0.00    +0.000 S 
ATOM     10  C   UNL     1       2.705   5.722  19.214  0.00  0.00    +0.000 A 
ATOM     11  H   UNL     1       4.197   3.807  16.982  0.00  0.00    +0.000 HD
ENDROOT
BRANCH   1  15
ATOM     12  C   UNL     1       0.022  10.048  19.322  0.00  0.00    +0.000 A 
ATOM     13  C   UNL     1       0.561   9.781  18.064  0.00  0.00    +0.000 A 
ATOM     14  C   UNL     1       1.583   8.839  17.926  0.00  0.00    +0.000 A 
ATOM     15  C   UNL     1       2.090   8.155  19.047  0.00  0.00    +0.000 A 
ATOM     16  C   UNL     1       1.540   8.430  20.307  0.00  0.00    +0.000 A 
ATOM     17  C   UNL     1       0.514   9.370  20.443  0.00  0.00    +0.000 A 
BRANCH  12  19
ATOM     18  N   UNL     1      -1.890  11.781  19.570  0.00  0.00    +0.000 NA
ATOM     19  C   UNL     1      -1.033  11.004  19.462  0.00  0.00    +0.000 C 
ENDBRANCH  12  19
ENDBRANCH   1  15
BRANCH   7  20
ATOM     20  C   UNL     1       2.444   2.072  18.553  0.00  0.00    +0.000 C 
ATOM     21  O   UNL     1       3.466   1.546  18.132  0.00  0.00    +0.000 OA
BRANCH  20  22
ATOM     22  O   UNL     1       1.240   1.433  18.570  0.00  0.00    +0.000 OA
ATOM     23  H   UNL     1       1.406   0.478  18.743  0.00  0.00    +0.000 HD
ENDBRANCH  20  22
ENDBRANCH   7  20
TORSDOF 4
ENDMDL
MODEL 7
REMARK VINA RESULT:      -6.8      4.503      6.107
REMARK  Name = 
REMARK  4 active torsions:
REMARK  status: ('A' for Active; 'I' for Inactive)
REMARK    1  A    between atoms: C_2  and  C_3
REMARK    2  A    between atoms: C_6  and  C_7
REMARK    3  A    between atoms: C_13  and  C_14
REMARK    4  A    between atoms: C_14  and  O_16
REMARK                            x       y       z     vdW  Elec       q    Type
REMARK                         _______ _______ _______ _____ _____    ______ ____
ROOT
ATOM      1  C   UNL     1       6.947   5.036  17.133  0.00  0.00    +0.000 C 
ATOM      2  C   UNL     1       6.831   5.076  15.595  0.00  0.00    +0.000 C 
ATOM      3  C   UNL     1       5.846   4.084  14.994  0.00  0.00    +0.000 C 
ATOM      4  O   UNL     1       6.014   3.617  13.870  0.00  0.00    +0.000 OA
ATOM      5  N   UNL     1       4.693   3.835  15.696  0.00  0.00    +0.000 N 
ATOM      6  C   UNL     1       4.577   4.107  17.046  0.00  0.00    +0.000 A 
ATOM      7  C   UNL     1       3.469   3.860  17.923  0.00  0.00    +0.000 A 
ATOM      8  N   UNL     1       3.690   4.145  19.217  0.00  0.00    +0.000 NA
ATOM      9  S   UNL     1       5.245   4.701  19.389  0.00  0.00    +0.000 S 
ATOM     10  C   UNL     1       5.633   4.649  17.734  0.00  0.00    +0.000 A 
ATOM     11  H   UNL     1       3.961   3.302  15.231  0.00  0.00    +0.000 HD
ENDROOT
BRANCH   1  15
ATOM     12  C   UNL     1       8.483   8.822  18.605  0.00  0.00    +0.000 A 
ATOM     13  C   UNL     1       8.688   7.654  19.338  0.00  0.00    +0.000 A 
ATOM     14  C   UNL     1       8.189   6.437  18.868  0.00  0.00    +0.000 A 
ATOM     15  C   UNL     1       7.466   6.370  17.663  0.00  0.00    +0.000 A 
ATOM     16  C   UNL     1       7.266   7.550  16.934  0.00  0.00    +0.000 A 
ATOM     17  C   UNL     1       7.771   8.767  17.401  0.00  0.00    +0.000 A 
BRANCH  12  19
ATOM     18  N   UNL     1       9.431  11.079  19.459  0.00  0.00    +0.000 NA
ATOM     19  C   UNL     1       9.006  10.067  19.079  0.00  0.00    +0.000 C 
ENDBRANCH  12  19
ENDBRANCH   1  15
BRANCH   7  20
ATOM     20  C   UNL     1       2.158   3.338  17.533  0.00  0.00    +0.000 C 
ATOM     21  O   UNL     1       1.193   4.045  17.274  0.00  0.00    +0.000 OA
BRANCH  20  22
ATOM     22  O   UNL     1       2.107   1.977  17.495  0.00  0.00    +0.000 OA
ATOM     23  H   UNL     1       1.746   1.712  16.618  0.00  0.00    +0.000 HD
ENDBRANCH  20  22
ENDBRANCH   7  20
TORSDOF 4
ENDMDL
MODEL 8
REMARK VINA RESULT:      -6.7      4.649      7.707
REMARK  Name = 
REMARK  4 active torsions:
REMARK  status: ('A' for Active; 'I' for Inactive)
REMARK    1  A    between atoms: C_2  and  C_3
REMARK    2  A    between atoms: C_6  and  C_7
REMARK    3  A    between atoms: C_13  and  C_14
REMARK    4  A    between atoms: C_14  and  O_16
REMARK                            x       y       z     vdW  Elec       q    Type
REMARK                         _______ _______ _______ _____ _____    ______ ____
ROOT
ATOM      1  C   UNL     1       1.712   8.502  20.585  0.00  0.00    +0.000 C 
ATOM      2  C   UNL     1       1.082   8.374  21.988  0.00  0.00    +0.000 C 
ATOM      3  C   UNL     1       0.310   9.595  22.465  0.00  0.00    +0.000 C 
ATOM      4  O   UNL     1       0.227   9.876  23.659  0.00  0.00    +0.000 OA
ATOM      5  N   UNL     1      -0.406  10.295  21.525  0.00  0.00    +0.000 N 
ATOM      6  C   UNL     1      -0.142  10.198  20.173  0.00  0.00    +0.000 A 
ATOM      7  C   UNL     1      -0.760  10.895  19.082  0.00  0.00    +0.000 A 
ATOM      8  N   UNL     1      -0.219  10.662  17.874  0.00  0.00    +0.000 NA
ATOM      9  S   UNL     1       1.053   9.609  18.048  0.00  0.00    +0.000 S 
ATOM     10  C   UNL     1       0.862   9.379  19.722  0.00  0.00    +0.000 A 
ATOM     11  H   UNL     1      -1.050  11.011  21.857  0.00  0.00    +0.000 HD
ENDROOT
BRANCH   1  15
ATOM     12  C   UNL     1       2.302   4.579  18.818  0.00  0.00    +0.000 A 
ATOM     13  C   UNL     1       1.662   4.700  20.051  0.00  0.00    +0.000 A 
ATOM     14  C   UNL     1       1.477   5.960  20.622  0.00  0.00    +0.000 A 
ATOM     15  C   UNL     1       1.941   7.121  19.977  0.00  0.00    +0.000 A 
ATOM     16  C   UNL     1       2.583   6.988  18.737  0.00  0.00    +0.000 A 
ATOM     17  C   UNL     1       2.762   5.727  18.162  0.00  0.00    +0.000 A 
BRANCH  12  19
ATOM     18  N   UNL     1       2.622   2.239  17.749  0.00  0.00    +0.000 NA
ATOM     19  C   UNL     1       2.480   3.289  18.226  0.00  0.00    +0.000 C 
ENDBRANCH  12  19
ENDBRANCH   1  15
BRANCH   7  20
ATOM     20  C   UNL     1      -1.898  11.812  19.175  0.00  0.00    +0.000 C 
ATOM     21  O   UNL     1      -2.436  12.124  20.229  0.00  0.00    +0.000 OA
BRANCH  20  22
ATOM     22  O   UNL     1      -2.312  12.285  17.967  0.00  0.00    +0.000 OA
ATOM     23  H   UNL     1      -2.273  13.269  17.996  0.00  0.00    +0.000 HD
ENDBRANCH  20  22
ENDBRANCH   7  20
TORSDOF 4
ENDMDL
MODEL 9
REMARK VINA RESULT:      -6.6      4.639      7.670
REMARK  Name = 
REMARK  4 active torsions:
REMARK  status: ('A' for Active; 'I' for Inactive)
REMARK    1  A    between atoms: C_2  and  C_3
REMARK    2  A    between atoms: C_6  and  C_7
REMARK    3  A    between atoms: C_13  and  C_14
REMARK    4  A    between atoms: C_14  and  O_16
REMARK                            x       y       z     vdW  Elec       q    Type
REMARK                         _______ _______ _______ _____ _____    ______ ____
ROOT
ATOM      1  C   UNL     1       1.682   8.531  20.569  0.00  0.00    +0.000 C 
ATOM      2  C   UNL     1       1.054   8.415  21.973  0.00  0.00    +0.000 C 
ATOM      3  C   UNL     1       0.292   9.644  22.446  0.00  0.00    +0.000 C 
ATOM      4  O   UNL     1       0.214   9.931  23.639  0.00  0.00    +0.000 OA
ATOM      5  N   UNL     1      -0.420  10.346  21.505  0.00  0.00    +0.000 N 
ATOM      6  C   UNL     1      -0.159  10.241  20.152  0.00  0.00    +0.000 A 
ATOM      7  C   UNL     1      -0.774  10.938  19.059  0.00  0.00    +0.000 A 
ATOM      8  N   UNL     1      -0.236  10.695  17.852  0.00  0.00    +0.000 NA
ATOM      9  S   UNL     1       1.027   9.632  18.028  0.00  0.00    +0.000 S 
ATOM     10  C   UNL     1       0.837   9.411  19.703  0.00  0.00    +0.000 A 
ATOM     11  H   UNL     1      -1.057  11.068  21.834  0.00  0.00    +0.000 HD
ENDROOT
BRANCH   1  15
ATOM     12  C   UNL     1       2.359   4.584  18.890  0.00  0.00    +0.000 A 
ATOM     13  C   UNL     1       2.804   5.718  18.209  0.00  0.00    +0.000 A 
ATOM     14  C   UNL     1       2.581   6.987  18.746  0.00  0.00    +0.000 A 
ATOM     15  C   UNL     1       1.899   7.146  19.966  0.00  0.00    +0.000 A 
ATOM     16  C   UNL     1       1.457   6.000  20.642  0.00  0.00    +0.000 A 
ATOM     17  C   UNL     1       1.686   4.729  20.107  0.00  0.00    +0.000 A 
BRANCH  12  19
ATOM     18  N   UNL     1       2.794   2.227  17.901  0.00  0.00    +0.000 NA
ATOM     19  C   UNL     1       2.599   3.282  18.346  0.00  0.00    +0.000 C 
ENDBRANCH  12  19
ENDBRANCH   1  15
BRANCH   7  20
ATOM     20  C   UNL     1      -1.903  11.864  19.150  0.00  0.00    +0.000 C 
ATOM     21  O   UNL     1      -2.386  12.248  20.207  0.00  0.00    +0.000 OA
BRANCH  20  22
ATOM     22  O   UNL     1      -2.380  12.257  17.936  0.00  0.00    +0.000 OA
ATOM     23  H   UNL     1      -3.347  12.423  18.028  0.00  0.00    +0.000 HD
ENDBRANCH  20  22
ENDBRANCH   7  20
TORSDOF 4
ENDMDL
