MODEL 1
REMARK VINA RESULT:      -7.7      0.000      0.000
REMARK  Name = 
REMARK  12 active torsions:
REMARK  status: ('A' for Active; 'I' for Inactive)
REMARK    1  A    between atoms: C_1  and  C_2
REMARK    2  A    between atoms: C_2  and  N_3
REMARK    3  A    between atoms: N_3  and  C_4
REMARK    4  A    between atoms: N_3  and  C_9
REMARK    5  A    between atoms: C_4  and  C_5
REMARK    6  A    between atoms: C_5  and  N_6
REMARK    7  A    between atoms: N_6  and  C_7
REMARK    8  A    between atoms: N_6  and  C_8
REMARK    9  A    between atoms: C_13  and  C_14
REMARK   10  A    between atoms: C_23  and  N_24
REMARK   11  A    between atoms: N_24  and  S_25
REMARK   12  A    between atoms: S_25  and  C_28
REMARK                            x       y       z     vdW  Elec       q    Type
REMARK                         _______ _______ _______ _____ _____    ______ ____
ROOT
ATOM      1  C   UNL     1       0.933   9.499  18.912  0.00  0.00    +0.000 A 
ATOM      2  C   UNL     1       1.825   8.853  17.998  0.00  0.00    +0.000 A 
ATOM      3  C   UNL     1       2.545   7.713  18.399  0.00  0.00    +0.000 A 
ATOM      4  N   UNL     1       3.498   6.924  17.788  0.00  0.00    +0.000 N 
ATOM      5  C   UNL     1       3.905   5.966  18.691  0.00  0.00    +0.000 A 
ATOM      6  N   UNL     1       3.233   6.087  19.819  0.00  0.00    +0.000 NA
ATOM      7  C   UNL     1       2.396   7.151  19.652  0.00  0.00    +0.000 A 
ATOM      8  C   UNL     1       1.470   7.693  20.538  0.00  0.00    +0.000 A 
ATOM      9  C   UNL     1       0.725   8.825  20.162  0.00  0.00    +0.000 A 
ATOM     10  H   UNL     1       3.849   7.045  16.850  0.00  0.00    +0.000 HD
ENDROOT
BRANCH   5  11
ATOM     11  C   UNL     1       4.961   4.916  18.469  0.00  0.00    +0.000 C 
ATOM     12  C   UNL     1       4.756   4.080  17.199  0.00  0.00    +0.000 C 
ATOM     13  C   UNL     1       5.493   4.591  15.966  0.00  0.00    +0.000 C 
ATOM     14  C   UNL     1       6.955   4.890  16.270  0.00  0.00    +0.000 C 
ATOM     15  C   UNL     1       7.066   5.928  17.379  0.00  0.00    +0.000 C 
ATOM     16  C   UNL     1       6.388   5.448  18.659  0.00  0.00    +0.000 C 
ENDBRANCH   5  11
BRANCH   9  17
ATOM     17  N   UNL     1      -0.223   9.209  21.156  0.00  0.00    +0.000 N 
ATOM     18  H   UNL     1      -0.892   8.537  21.509  0.00  0.00    +0.000 HD
BRANCH  17  19
ATOM     19  S   UNL     1       0.093  10.468  22.208  0.00  0.00    +0.000 S 
ATOM     20  O   UNL     1       0.227   9.851  23.514  0.00  0.00    +0.000 OA
ATOM     21  O   UNL     1       1.150  11.315  21.691  0.00  0.00    +0.000 OA
BRANCH  19  22
ATOM     22  C   UNL     1      -1.408  11.425  22.245  0.00  0.00    +0.000 A 
ATOM     23  C   UNL     1      -2.112  11.576  23.446  0.00  0.00    +0.000 A 
ATOM     24  C   UNL     1      -3.178  12.479  23.514  0.00  0.00    +0.000 A 
ATOM     25  C   UNL     1      -3.533  13.229  22.392  0.00  0.00    +0.000 A 
ATOM     26  C   UNL     1      -2.844  13.061  21.190  0.00  0.00    +0.000 A 
ATOM     27  C   UNL     1      -1.780  12.159  21.113  0.00  0.00    +0.000 A 
ENDBRANCH  19  22
ENDBRANCH  17  19
ENDBRANCH   9  17
BRANCH   1  28
ATOM     28  N   UNL     1       0.338  10.745  18.542  0.00  0.00    +0.000 N 
BRANCH  28  30
ATOM     29  C   UNL     1       0.339  13.236  18.398  0.00  0.00    +0.000 C 
ATOM     30  C   UNL     1       1.166  11.964  18.560  0.00  0.00    +0.000 C 
ENDBRANCH  28  30
BRANCH  28  31
ATOM     31  C   UNL     1      -0.805  10.718  17.559  0.00  0.00    +0.000 C 
BRANCH  31  32
ATOM     32  C   UNL     1      -2.152  10.166  18.107  0.00  0.00    +0.000 C 
BRANCH  32  33
ATOM     33  N   UNL     1      -3.339  10.196  17.221  0.00  0.00    +0.000 NA
ATOM     34  C   UNL     1      -4.452  10.953  17.789  0.00  0.00    +0.000 C 
ATOM     35  C   UNL     1      -2.946  10.793  15.935  0.00  0.00    +0.000 C 
ENDBRANCH  32  33
ENDBRANCH  31  32
ENDBRANCH  28  31
ENDBRANCH   1  28
TORSDOF 9
ENDMDL
MODEL 2
REMARK VINA RESULT:      -7.7      1.157      1.843
REMARK  Name = 
REMARK  12 active torsions:
REMARK  status: ('A' for Active; 'I' for Inactive)
REMARK    1  A    between atoms: C_1  and  C_2
REMARK    2  A    between atoms: C_2  and  N_3
REMARK    3  A    between atoms: N_3  and  C_4
REMARK    4  A    between atoms: N_3  and  C_9
REMARK    5  A    between atoms: C_4  and  C_5
REMARK    6  A    between atoms: C_5  and  N_6
REMARK    7  A    between atoms: N_6  and  C_7
REMARK    8  A    between atoms: N_6  and  C_8
REMARK    9  A    between atoms: C_13  and  C_14
REMARK   10  A    between atoms: C_23  and  N_24
REMARK   11  A    between atoms: N_24  and  S_25
REMARK   12  A    between atoms: S_25  and  C_28
REMARK                            x       y       z     vdW  Elec       q    Type
REMARK                         _______ _______ _______ _____ _____    ______ ____
ROOT
ATOM      1  C   UNL     1       0.417  10.336  18.898  0.00  0.00    +0.000 A 
ATOM      2  C   UNL     1       1.307   9.743  17.947  0.00  0.00    +0.000 A 
ATOM      3  C   UNL     1       2.031   8.585  18.282  0.00  0.00    +0.000 A 
ATOM      4  N   UNL     1       2.983   7.833  17.625  0.00  0.00    +0.000 N 
ATOM      5  C   UNL     1       3.396   6.828  18.472  0.00  0.00    +0.000 A 
ATOM      6  N   UNL     1       2.730   6.886  19.608  0.00  0.00    +0.000 NA
ATOM      7  C   UNL     1       1.890   7.955  19.503  0.00  0.00    +0.000 A 
ATOM      8  C   UNL     1       0.966   8.446  20.421  0.00  0.00    +0.000 A 
ATOM      9  C   UNL     1       0.216   9.594  20.111  0.00  0.00    +0.000 A 
ATOM     10  H   UNL     1       3.330   8.006  16.692  0.00  0.00    +0.000 HD
ENDROOT
BRANCH   5  11
ATOM     11  C   UNL     1       4.454   5.796  18.188  0.00  0.00    +0.000 C 
ATOM     12  C   UNL     1       4.842   4.945  19.404  0.00  0.00    +0.000 C 
ATOM     13  C   UNL     1       4.082   3.629  19.537  0.00  0.00    +0.000 C 
ATOM     14  C   UNL     1       4.071   2.852  18.227  0.00  0.00    +0.000 C 
ATOM     15  C   UNL     1       3.433   3.683  17.122  0.00  0.00    +0.000 C 
ATOM     16  C   UNL     1       4.185   4.993  16.907  0.00  0.00    +0.000 C 
ENDBRANCH   5  11
BRANCH   9  17
ATOM     17  N   UNL     1      -0.729   9.921  21.128  0.00  0.00    +0.000 N 
ATOM     18  H   UNL     1      -1.407   9.235  21.433  0.00  0.00    +0.000 HD
BRANCH  17  19
ATOM     19  S   UNL     1      -0.397  11.099  22.265  0.00  0.00    +0.000 S 
ATOM     20  O   UNL     1      -0.245  10.388  23.520  0.00  0.00    +0.000 OA
ATOM     21  O   UNL     1       0.653  11.983  21.798  0.00  0.00    +0.000 OA
BRANCH  19  22
ATOM     22  C   UNL     1      -1.897  12.050  22.394  0.00  0.00    +0.000 A 
ATOM     23  C   UNL     1      -2.418  12.693  21.264  0.00  0.00    +0.000 A 
ATOM     24  C   UNL     1      -3.688  13.276  21.323  0.00  0.00    +0.000 A 
ATOM     25  C   UNL     1      -4.434  13.210  22.500  0.00  0.00    +0.000 A 
ATOM     26  C   UNL     1      -3.904  12.588  23.632  0.00  0.00    +0.000 A 
ATOM     27  C   UNL     1      -2.636  12.007  23.582  0.00  0.00    +0.000 A 
ENDBRANCH  19  22
ENDBRANCH  17  19
ENDBRANCH   9  17
BRANCH   1  28
ATOM     28  N   UNL     1      -0.183  11.599  18.599  0.00  0.00    +0.000 N 
BRANCH  28  30
ATOM     29  C   UNL     1       0.091  14.063  18.870  0.00  0.00    +0.000 C 
ATOM     30  C   UNL     1       0.688  12.761  18.348  0.00  0.00    +0.000 C 
ENDBRANCH  28  30
BRANCH  28  31
ATOM     31  C   UNL     1      -1.526  11.598  17.912  0.00  0.00    +0.000 C 
BRANCH  31  32
ATOM     32  C   UNL     1      -1.929  10.264  17.223  0.00  0.00    +0.000 C 
BRANCH  32  33
ATOM     33  N   UNL     1      -3.205  10.214  16.473  0.00  0.00    +0.000 NA
ATOM     34  C   UNL     1      -4.098  11.324  16.798  0.00  0.00    +0.000 C 
ATOM     35  C   UNL     1      -2.900  10.238  15.033  0.00  0.00    +0.000 C 
ENDBRANCH  32  33
ENDBRANCH  31  32
ENDBRANCH  28  31
ENDBRANCH   1  28
TORSDOF 9
ENDMDL
MODEL 3
REMARK VINA RESULT:      -7.6      0.955      1.328
REMARK  Name = 
REMARK  12 active torsions:
REMARK  status: ('A' for Active; 'I' for Inactive)
REMARK    1  A    between atoms: C_1  and  C_2
REMARK    2  A    between atoms: C_2  and  N_3
REMARK    3  A    between atoms: N_3  and  C_4
REMARK    4  A    between atoms: N_3  and  C_9
REMARK    5  A    between atoms: C_4  and  C_5
REMARK    6  A    between atoms: C_5  and  N_6
REMARK    7  A    between atoms: N_6  and  C_7
REMARK    8  A    between atoms: N_6  and  C_8
REMARK    9  A    between atoms: C_13  and  C_14
REMARK   10  A    between atoms: C_23  and  N_24
REMARK   11  A    between atoms: N_24  and  S_25
REMARK   12  A    between atoms: S_25  and  C_28
REMARK                            x       y       z     vdW  Elec       q    Type
REMARK                         _______ _______ _______ _____ _____    ______ ____
ROOT
ATOM      1  C   UNL     1       0.549   9.810  18.976  0.00  0.00    +0.000 A 
ATOM      2  C   UNL     1       1.356   9.328  17.896  0.00  0.00    +0.000 A 
ATOM      3  C   UNL     1       2.208   8.225  18.087  0.00  0.00    +0.000 A 
ATOM      4  N   UNL     1       3.126   7.581  17.284  0.00  0.00    +0.000 N 
ATOM      5  C   UNL     1       3.723   6.586  18.028  0.00  0.00    +0.000 A 
ATOM      6  N   UNL     1       3.204   6.548  19.239  0.00  0.00    +0.000 NA
ATOM      7  C   UNL     1       2.274   7.544  19.286  0.00  0.00    +0.000 A 
ATOM      8  C   UNL     1       1.439   7.922  20.333  0.00  0.00    +0.000 A 
ATOM      9  C   UNL     1       0.565   9.012  20.170  0.00  0.00    +0.000 A 
ATOM     10  H   UNL     1       3.336   7.814  16.324  0.00  0.00    +0.000 HD
ENDROOT
BRANCH   5  11
ATOM     11  C   UNL     1       4.816   5.658  17.569  0.00  0.00    +0.000 C 
ATOM     12  C   UNL     1       5.858   6.319  16.658  0.00  0.00    +0.000 C 
ATOM     13  C   UNL     1       7.091   6.858  17.376  0.00  0.00    +0.000 C 
ATOM     14  C   UNL     1       7.680   5.828  18.330  0.00  0.00    +0.000 C 
ATOM     15  C   UNL     1       6.646   5.411  19.367  0.00  0.00    +0.000 C 
ATOM     16  C   UNL     1       5.407   4.813  18.707  0.00  0.00    +0.000 C 
ENDBRANCH   5  11
BRANCH   9  17
ATOM     17  N   UNL     1      -0.266   9.222  21.310  0.00  0.00    +0.000 N 
ATOM     18  H   UNL     1      -0.893   8.493  21.625  0.00  0.00    +0.000 HD
BRANCH  17  19
ATOM     19  S   UNL     1       0.169  10.305  22.505  0.00  0.00    +0.000 S 
ATOM     20  O   UNL     1       0.054   9.569  23.750  0.00  0.00    +0.000 OA
ATOM     21  O   UNL     1       1.411  10.972  22.167  0.00  0.00    +0.000 OA
BRANCH  19  22
ATOM     22  C   UNL     1      -1.125  11.528  22.511  0.00  0.00    +0.000 A 
ATOM     23  C   UNL     1      -2.254  11.349  23.320  0.00  0.00    +0.000 A 
ATOM     24  C   UNL     1      -3.173  12.393  23.468  0.00  0.00    +0.000 A 
ATOM     25  C   UNL     1      -2.961  13.608  22.817  0.00  0.00    +0.000 A 
ATOM     26  C   UNL     1      -1.847  13.778  21.993  0.00  0.00    +0.000 A 
ATOM     27  C   UNL     1      -0.927  12.739  21.839  0.00  0.00    +0.000 A 
ENDBRANCH  19  22
ENDBRANCH  17  19
ENDBRANCH   9  17
BRANCH   1  28
ATOM     28  N   UNL     1      -0.184  11.026  18.810  0.00  0.00    +0.000 N 
BRANCH  28  30
ATOM     29  C   UNL     1      -0.384  13.449  18.254  0.00  0.00    +0.000 C 
ATOM     30  C   UNL     1       0.538  12.243  18.397  0.00  0.00    +0.000 C 
ENDBRANCH  28  30
BRANCH  28  31
ATOM     31  C   UNL     1      -1.633  10.928  18.405  0.00  0.00    +0.000 C 
BRANCH  31  32
ATOM     32  C   UNL     1      -1.905  10.229  17.043  0.00  0.00    +0.000 C 
BRANCH  32  33
ATOM     33  N   UNL     1      -2.717  10.945  16.032  0.00  0.00    +0.000 NA
ATOM     34  C   UNL     1      -2.969  10.145  14.836  0.00  0.00    +0.000 C 
ATOM     35  C   UNL     1      -3.999  11.324  16.647  0.00  0.00    +0.000 C 
ENDBRANCH  32  33
ENDBRANCH  31  32
ENDBRANCH  28  31
ENDBRANCH   1  28
TORSDOF 9
ENDMDL
MODEL 4
REMARK VINA RESULT:      -7.6      1.007      2.399
REMARK  Name = 
REMARK  12 active torsions:
REMARK  status: ('A' for Active; 'I' for Inactive)
REMARK    1  A    between atoms: C_1  and  C_2
REMARK    2  A    between atoms: C_2  and  N_3
REMARK    3  A    between atoms: N_3  and  C_4
REMARK    4  A    between atoms: N_3  and  C_9
REMARK    5  A    between atoms: C_4  and  C_5
REMARK    6  A    between atoms: C_5  and  N_6
REMARK    7  A    between atoms: N_6  and  C_7
REMARK    8  A    between atoms: N_6  and  C_8
REMARK    9  A    between atoms: C_13  and  C_14
REMARK   10  A    between atoms: C_23  and  N_24
REMARK   11  A    between atoms: N_24  and  S_25
REMARK   12  A    between atoms: S_25  and  C_28
REMARK                            x       y       z     vdW  Elec       q    Type
REMARK                         _______ _______ _______ _____ _____    ______ ____
ROOT
ATOM      1  C   UNL     1       1.002   9.502  18.806  0.00  0.00    +0.000 A 
ATOM      2  C   UNL     1       1.884   8.795  17.929  0.00  0.00    +0.000 A 
ATOM      3  C   UNL     1       2.549   7.638  18.376  0.00  0.00    +0.000 A 
ATOM      4  N   UNL     1       3.480   6.794  17.805  0.00  0.00    +0.000 N 
ATOM      5  C   UNL     1       3.831   5.847  18.743  0.00  0.00    +0.000 A 
ATOM      6  N   UNL     1       3.144   6.028  19.854  0.00  0.00    +0.000 NA
ATOM      7  C   UNL     1       2.355   7.119  19.641  0.00  0.00    +0.000 A 
ATOM      8  C   UNL     1       1.436   7.724  20.493  0.00  0.00    +0.000 A 
ATOM      9  C   UNL     1       0.744   8.874  20.071  0.00  0.00    +0.000 A 
ATOM     10  H   UNL     1       3.852   6.874  16.870  0.00  0.00    +0.000 HD
ENDROOT
BRANCH   5  11
ATOM     11  C   UNL     1       4.847   4.750  18.570  0.00  0.00    +0.000 C 
ATOM     12  C   UNL     1       4.738   3.998  17.238  0.00  0.00    +0.000 C 
ATOM     13  C   UNL     1       5.632   4.531  16.123  0.00  0.00    +0.000 C 
ATOM     14  C   UNL     1       7.066   4.725  16.598  0.00  0.00    +0.000 C 
ATOM     15  C   UNL     1       7.110   5.692  17.773  0.00  0.00    +0.000 C 
ATOM     16  C   UNL     1       6.272   5.184  18.943  0.00  0.00    +0.000 C 
ENDBRANCH   5  11
BRANCH   9  17
ATOM     17  N   UNL     1      -0.206   9.324  21.035  0.00  0.00    +0.000 N 
ATOM     18  H   UNL     1      -0.961   8.718  21.329  0.00  0.00    +0.000 HD
BRANCH  17  19
ATOM     19  S   UNL     1       0.193  10.501  22.152  0.00  0.00    +0.000 S 
ATOM     20  O   UNL     1       0.287   9.806  23.422  0.00  0.00    +0.000 OA
ATOM     21  O   UNL     1       1.303  11.304  21.678  0.00  0.00    +0.000 OA
BRANCH  19  22
ATOM     22  C   UNL     1      -1.242  11.550  22.247  0.00  0.00    +0.000 A 
ATOM     23  C   UNL     1      -2.119  11.441  23.333  0.00  0.00    +0.000 A 
ATOM     24  C   UNL     1      -3.134  12.389  23.502  0.00  0.00    +0.000 A 
ATOM     25  C   UNL     1      -3.265  13.441  22.595  0.00  0.00    +0.000 A 
ATOM     26  C   UNL     1      -2.404  13.537  21.501  0.00  0.00    +0.000 A 
ATOM     27  C   UNL     1      -1.391  12.592  21.324  0.00  0.00    +0.000 A 
ENDBRANCH  19  22
ENDBRANCH  17  19
ENDBRANCH   9  17
BRANCH   1  28
ATOM     28  N   UNL     1       0.465  10.760  18.390  0.00  0.00    +0.000 N 
BRANCH  28  30
ATOM     29  C   UNL     1      -1.633   9.919  17.334  0.00  0.00    +0.000 C 
ATOM     30  C   UNL     1      -0.998  10.915  18.299  0.00  0.00    +0.000 C 
ENDBRANCH  28  30
BRANCH  28  31
ATOM     31  C   UNL     1       1.260  12.004  18.695  0.00  0.00    +0.000 C 
BRANCH  31  32
ATOM     32  C   UNL     1       0.570  13.350  18.337  0.00  0.00    +0.000 C 
BRANCH  32  33
ATOM     33  N   UNL     1       0.834  14.529  19.194  0.00  0.00    +0.000 NA
ATOM     34  C   UNL     1       2.141  15.131  18.945  0.00  0.00    +0.000 C 
ATOM     35  C   UNL     1      -0.219  15.528  18.949  0.00  0.00    +0.000 C 
ENDBRANCH  32  33
ENDBRANCH  31  32
ENDBRANCH  28  31
ENDBRANCH   1  28
TORSDOF 9
ENDMDL
MODEL 5
REMARK VINA RESULT:      -7.5      0.921      1.054
REMARK  Name = 
REMARK  12 active torsions:
REMARK  status: ('A' for Active; 'I' for Inactive)
REMARK    1  A    between atoms: C_1  and  C_2
REMARK    2  A    between atoms: C_2  and  N_3
REMARK    3  A    between atoms: N_3  and  C_4
REMARK    4  A    between atoms: N_3  and  C_9
REMARK    5  A    between atoms: C_4  and  C_5
REMARK    6  A    between atoms: C_5  and  N_6
REMARK    7  A    between atoms: N_6  and  C_7
REMARK    8  A    between atoms: N_6  and  C_8
REMARK    9  A    between atoms: C_13  and  C_14
REMARK   10  A    between atoms: C_23  and  N_24
REMARK   11  A    between atoms: N_24  and  S_25
REMARK   12  A    between atoms: S_25  and  C_28
REMARK                            x       y       z     vdW  Elec       q    Type
REMARK                         _______ _______ _______ _____ _____    ______ ____
ROOT
ATOM      1  C   UNL     1       0.517  10.206  18.953  0.00  0.00    +0.000 A 
ATOM      2  C   UNL     1       1.436   9.635  18.017  0.00  0.00    +0.000 A 
ATOM      3  C   UNL     1       2.179   8.491  18.362  0.00  0.00    +0.000 A 
ATOM      4  N   UNL     1       3.158   7.761  17.721  0.00  0.00    +0.000 N 
ATOM      5  C   UNL     1       3.577   6.763  18.573  0.00  0.00    +0.000 A 
ATOM      6  N   UNL     1       2.889   6.803  19.697  0.00  0.00    +0.000 NA
ATOM      7  C   UNL     1       2.028   7.855  19.579  0.00  0.00    +0.000 A 
ATOM      8  C   UNL     1       1.079   8.324  20.481  0.00  0.00    +0.000 A 
ATOM      9  C   UNL     1       0.310   9.457  20.160  0.00  0.00    +0.000 A 
ATOM     10  H   UNL     1       3.517   7.944  16.795  0.00  0.00    +0.000 HD
ENDROOT
BRANCH   5  11
ATOM     11  C   UNL     1       4.662   5.753  18.306  0.00  0.00    +0.000 C 
ATOM     12  C   UNL     1       4.155   4.313  18.161  0.00  0.00    +0.000 C 
ATOM     13  C   UNL     1       3.869   3.872  16.729  0.00  0.00    +0.000 C 
ATOM     14  C   UNL     1       5.025   4.210  15.797  0.00  0.00    +0.000 C 
ATOM     15  C   UNL     1       5.298   5.707  15.809  0.00  0.00    +0.000 C 
ATOM     16  C   UNL     1       5.643   6.198  17.212  0.00  0.00    +0.000 C 
ENDBRANCH   5  11
BRANCH   9  17
ATOM     17  N   UNL     1      -0.659   9.761  21.161  0.00  0.00    +0.000 N 
ATOM     18  H   UNL     1      -1.314   9.053  21.468  0.00  0.00    +0.000 HD
BRANCH  17  19
ATOM     19  S   UNL     1      -0.388  10.968  22.284  0.00  0.00    +0.000 S 
ATOM     20  O   UNL     1      -0.274  10.286  23.559  0.00  0.00    +0.000 OA
ATOM     21  O   UNL     1       0.665  11.858  21.838  0.00  0.00    +0.000 OA
BRANCH  19  22
ATOM     22  C   UNL     1      -1.906  11.898  22.335  0.00  0.00    +0.000 A 
ATOM     23  C   UNL     1      -2.690  11.896  23.496  0.00  0.00    +0.000 A 
ATOM     24  C   UNL     1      -3.774  12.773  23.600  0.00  0.00    +0.000 A 
ATOM     25  C   UNL     1      -4.069  13.649  22.555  0.00  0.00    +0.000 A 
ATOM     26  C   UNL     1      -3.300  13.634  21.389  0.00  0.00    +0.000 A 
ATOM     27  C   UNL     1      -2.218  12.759  21.277  0.00  0.00    +0.000 A 
ENDBRANCH  19  22
ENDBRANCH  17  19
ENDBRANCH   9  17
BRANCH   1  28
ATOM     28  N   UNL     1      -0.104  11.457  18.646  0.00  0.00    +0.000 N 
BRANCH  28  30
ATOM     29  C   UNL     1      -0.064  13.948  18.534  0.00  0.00    +0.000 C 
ATOM     30  C   UNL     1       0.742  12.654  18.492  0.00  0.00    +0.000 C 
ENDBRANCH  28  30
BRANCH  28  31
ATOM     31  C   UNL     1      -1.392  11.432  17.862  0.00  0.00    +0.000 C 
BRANCH  31  32
ATOM     32  C   UNL     1      -1.786  10.055  17.257  0.00  0.00    +0.000 C 
BRANCH  32  33
ATOM     33  N   UNL     1      -3.114   9.921  16.614  0.00  0.00    +0.000 NA
ATOM     34  C   UNL     1      -4.056  10.956  17.034  0.00  0.00    +0.000 C 
ATOM     35  C   UNL     1      -2.933   9.987  15.154  0.00  0.00    +0.000 C 
ENDBRANCH  32  33
ENDBRANCH  31  32
ENDBRANCH  28  31
ENDBRANCH   1  28
TORSDOF 9
ENDMDL
MODEL 6
REMARK VINA RESULT:      -7.5      2.688      8.966
REMARK  Name = 
REMARK  12 active torsions:
REMARK  status: ('A' for Active; 'I' for Inactive)
REMARK    1  A    between atoms: C_1  and  C_2
REMARK    2  A    between atoms: C_2  and  N_3
REMARK    3  A    between atoms: N_3  and  C_4
REMARK    4  A    between atoms: N_3  and  C_9
REMARK    5  A    between atoms: C_4  and  C_5
REMARK    6  A    between atoms: C_5  and  N_6
REMARK    7  A    between atoms: N_6  and  C_7
REMARK    8  A    between atoms: N_6  and  C_8
REMARK    9  A    between atoms: C_13  and  C_14
REMARK   10  A    between atoms: C_23  and  N_24
REMARK   11  A    between atoms: N_24  and  S_25
REMARK   12  A    between atoms: S_25  and  C_28
REMARK                            x       y       z     vdW  Elec       q    Type
REMARK                         _______ _______ _______ _____ _____    ______ ____
ROOT
ATOM      1  C   UNL     1       3.353   6.584  18.497  0.00  0.00    +0.000 A 
ATOM      2  C   UNL     1       3.117   7.793  17.769  0.00  0.00    +0.000 A 
ATOM      3  C   UNL     1       2.205   8.747  18.258  0.00  0.00    +0.000 A 
ATOM      4  N   UNL     1       1.731   9.948  17.772  0.00  0.00    +0.000 N 
ATOM      5  C   UNL     1       0.792  10.428  18.658  0.00  0.00    +0.000 A 
ATOM      6  N   UNL     1       0.680   9.615  19.690  0.00  0.00    +0.000 NA
ATOM      7  C   UNL     1       1.541   8.584  19.458  0.00  0.00    +0.000 A 
ATOM      8  C   UNL     1       1.812   7.467  20.241  0.00  0.00    +0.000 A 
ATOM      9  C   UNL     1       2.729   6.501  19.787  0.00  0.00    +0.000 A 
ATOM     10  H   UNL     1       2.010  10.384  16.905  0.00  0.00    +0.000 HD
ENDROOT
BRANCH   5  11
ATOM     11  C   UNL     1      -0.017  11.690  18.511  0.00  0.00    +0.000 C 
ATOM     12  C   UNL     1      -1.392  11.481  17.866  0.00  0.00    +0.000 C 
ATOM     13  C   UNL     1      -2.539  11.271  18.849  0.00  0.00    +0.000 C 
ATOM     14  C   UNL     1      -2.535  12.324  19.949  0.00  0.00    +0.000 C 
ATOM     15  C   UNL     1      -1.217  12.291  20.711  0.00  0.00    +0.000 C 
ATOM     16  C   UNL     1      -0.032  12.548  19.784  0.00  0.00    +0.000 C 
ENDBRANCH   5  11
BRANCH   9  17
ATOM     17  N   UNL     1       2.941   5.459  20.738  0.00  0.00    +0.000 N 
ATOM     18  H   UNL     1       3.471   5.639  21.581  0.00  0.00    +0.000 HD
BRANCH  17  19
ATOM     19  S   UNL     1       1.872   4.182  20.868  0.00  0.00    +0.000 S 
ATOM     20  O   UNL     1       2.105   3.620  22.185  0.00  0.00    +0.000 OA
ATOM     21  O   UNL     1       0.537   4.587  20.476  0.00  0.00    +0.000 OA
BRANCH  19  22
ATOM     22  C   UNL     1       2.448   2.978  19.689  0.00  0.00    +0.000 A 
ATOM     23  C   UNL     1       1.935   2.973  18.387  0.00  0.00    +0.000 A 
ATOM     24  C   UNL     1       2.522   2.157  17.414  0.00  0.00    +0.000 A 
ATOM     25  C   UNL     1       3.618   1.358  17.741  0.00  0.00    +0.000 A 
ATOM     26  C   UNL     1       4.115   1.348  19.045  0.00  0.00    +0.000 A 
ATOM     27  C   UNL     1       3.532   2.157  20.022  0.00  0.00    +0.000 A 
ENDBRANCH  19  22
ENDBRANCH  17  19
ENDBRANCH   9  17
BRANCH   1  28
ATOM     28  N   UNL     1       4.155   5.559  17.906  0.00  0.00    +0.000 N 
BRANCH  28  30
ATOM     29  C   UNL     1       5.057   4.339  15.926  0.00  0.00    +0.000 C 
ATOM     30  C   UNL     1       4.460   5.635  16.466  0.00  0.00    +0.000 C 
ENDBRANCH  28  30
BRANCH  28  31
ATOM     31  C   UNL     1       5.171   4.866  18.778  0.00  0.00    +0.000 C 
BRANCH  31  32
ATOM     32  C   UNL     1       6.318   5.764  19.321  0.00  0.00    +0.000 C 
BRANCH  32  33
ATOM     33  N   UNL     1       7.601   5.796  18.582  0.00  0.00    +0.000 NA
ATOM     34  C   UNL     1       7.817   4.601  17.769  0.00  0.00    +0.000 C 
ATOM     35  C   UNL     1       7.610   6.985  17.714  0.00  0.00    +0.000 C 
ENDBRANCH  32  33
ENDBRANCH  31  32
ENDBRANCH  28  31
ENDBRANCH   1  28
TORSDOF 9
ENDMDL
MODEL 7
REMARK VINA RESULT:      -7.5      2.597      4.436
REMARK  Name = 
REMARK  12 active torsions:
REMARK  status: ('A' for Active; 'I' for Inactive)
REMARK    1  A    between atoms: C_1  and  C_2
REMARK    2  A    between atoms: C_2  and  N_3
REMARK    3  A    between atoms: N_3  and  C_4
REMARK    4  A    between atoms: N_3  and  C_9
REMARK    5  A    between atoms: C_4  and  C_5
REMARK    6  A    between atoms: C_5  and  N_6
REMARK    7  A    between atoms: N_6  and  C_7
REMARK    8  A    between atoms: N_6  and  C_8
REMARK    9  A    between atoms: C_13  and  C_14
REMARK   10  A    between atoms: C_23  and  N_24
REMARK   11  A    between atoms: N_24  and  S_25
REMARK   12  A    between atoms: S_25  and  C_28
REMARK                            x       y       z     vdW  Elec       q    Type
REMARK                         _______ _______ _______ _____ _____    ______ ____
ROOT
ATOM      1  C   UNL     1       0.050  10.915  20.258  0.00  0.00    +0.000 A 
ATOM      2  C   UNL     1       0.200   9.654  20.917  0.00  0.00    +0.000 A 
ATOM      3  C   UNL     1       1.047   8.669  20.377  0.00  0.00    +0.000 A 
ATOM      4  N   UNL     1       1.348   7.371  20.734  0.00  0.00    +0.000 N 
ATOM      5  C   UNL     1       2.209   6.855  19.790  0.00  0.00    +0.000 A 
ATOM      6  N   UNL     1       2.494   7.769  18.883  0.00  0.00    +0.000 NA
ATOM      7  C   UNL     1       1.791   8.885  19.233  0.00  0.00    +0.000 A 
ATOM      8  C   UNL     1       1.746  10.129  18.614  0.00  0.00    +0.000 A 
ATOM      9  C   UNL     1       0.918  11.140  19.137  0.00  0.00    +0.000 A 
ATOM     10  H   UNL     1       0.981   6.881  21.536  0.00  0.00    +0.000 HD
ENDROOT
BRANCH   5  11
ATOM     11  C   UNL     1       2.766   5.457  19.754  0.00  0.00    +0.000 C 
ATOM     12  C   UNL     1       2.222   4.538  20.855  0.00  0.00    +0.000 C 
ATOM     13  C   UNL     1       1.015   3.697  20.452  0.00  0.00    +0.000 C 
ATOM     14  C   UNL     1       1.242   2.990  19.122  0.00  0.00    +0.000 C 
ATOM     15  C   UNL     1       1.528   4.003  18.023  0.00  0.00    +0.000 C 
ATOM     16  C   UNL     1       2.761   4.842  18.348  0.00  0.00    +0.000 C 
ENDBRANCH   5  11
BRANCH   9  17
ATOM     17  N   UNL     1       1.042  12.370  18.425  0.00  0.00    +0.000 N 
ATOM     18  H   UNL     1       0.248  12.754  17.929  0.00  0.00    +0.000 HD
BRANCH  17  19
ATOM     19  S   UNL     1       2.181  13.509  18.867  0.00  0.00    +0.000 S 
ATOM     20  O   UNL     1       2.325  13.369  20.304  0.00  0.00    +0.000 OA
ATOM     21  O   UNL     1       3.346  13.430  18.008  0.00  0.00    +0.000 OA
BRANCH  19  22
ATOM     22  C   UNL     1       1.395  15.081  18.581  0.00  0.00    +0.000 A 
ATOM     23  C   UNL     1       0.034  15.245  18.866  0.00  0.00    +0.000 A 
ATOM     24  C   UNL     1      -0.533  16.523  18.823  0.00  0.00    +0.000 A 
ATOM     25  C   UNL     1       0.256  17.628  18.503  0.00  0.00    +0.000 A 
ATOM     26  C   UNL     1       1.607  17.460  18.197  0.00  0.00    +0.000 A 
ATOM     27  C   UNL     1       2.180  16.187  18.236  0.00  0.00    +0.000 A 
ENDBRANCH  19  22
ENDBRANCH  17  19
ENDBRANCH   9  17
BRANCH   1  28
ATOM     28  N   UNL     1      -0.936  11.837  20.730  0.00  0.00    +0.000 N 
BRANCH  28  30
ATOM     29  C   UNL     1      -1.572  12.190  23.116  0.00  0.00    +0.000 C 
ATOM     30  C   UNL     1      -0.665  12.601  21.961  0.00  0.00    +0.000 C 
ENDBRANCH  28  30
BRANCH  28  31
ATOM     31  C   UNL     1      -1.839  12.487  19.714  0.00  0.00    +0.000 C 
BRANCH  31  32
ATOM     32  C   UNL     1      -2.812  11.531  18.967  0.00  0.00    +0.000 C 
BRANCH  32  33
ATOM     33  N   UNL     1      -2.635  11.341  17.509  0.00  0.00    +0.000 NA
ATOM     34  C   UNL     1      -1.973  10.082  17.176  0.00  0.00    +0.000 C 
ATOM     35  C   UNL     1      -3.961  11.380  16.870  0.00  0.00    +0.000 C 
ENDBRANCH  32  33
ENDBRANCH  31  32
ENDBRANCH  28  31
ENDBRANCH   1  28
TORSDOF 9
ENDMDL
MODEL 8
REMARK VINA RESULT:      -7.3      2.730      8.924
REMARK  Name = 
REMARK  12 active torsions:
REMARK  status: ('A' for Active; 'I' for Inactive)
REMARK    1  A    between atoms: C_1  and  C_2
REMARK    2  A    between atoms: C_2  and  N_3
REMARK    3  A    between atoms: N_3  and  C_4
REMARK    4  A    between atoms: N_3  and  C_9
REMARK    5  A    between atoms: C_4  and  C_5
REMARK    6  A    between atoms: C_5  and  N_6
REMARK    7  A    between atoms: N_6  and  C_7
REMARK    8  A    between atoms: N_6  and  C_8
REMARK    9  A    between atoms: C_13  and  C_14
REMARK   10  A    between atoms: C_23  and  N_24
REMARK   11  A    between atoms: N_24  and  S_25
REMARK   12  A    between atoms: S_25  and  C_28
REMARK                            x       y       z     vdW  Elec       q    Type
REMARK                         _______ _______ _______ _____ _____    ______ ____
ROOT
ATOM      1  C   UNL     1       3.199   6.760  18.607  0.00  0.00    +0.000 A 
ATOM      2  C   UNL     1       2.901   7.937  17.850  0.00  0.00    +0.000 A 
ATOM      3  C   UNL     1       1.927   8.844  18.305  0.00  0.00    +0.000 A 
ATOM      4  N   UNL     1       1.389  10.004  17.786  0.00  0.00    +0.000 N 
ATOM      5  C   UNL     1       0.410  10.445  18.649  0.00  0.00    +0.000 A 
ATOM      6  N   UNL     1       0.331   9.649  19.697  0.00  0.00    +0.000 NA
ATOM      7  C   UNL     1       1.257   8.667  19.499  0.00  0.00    +0.000 A 
ATOM      8  C   UNL     1       1.582   7.585  20.311  0.00  0.00    +0.000 A 
ATOM      9  C   UNL     1       2.561   6.667  19.890  0.00  0.00    +0.000 A 
ATOM     10  H   UNL     1       1.654  10.437  16.914  0.00  0.00    +0.000 HD
ENDROOT
BRANCH   5  11
ATOM     11  C   UNL     1      -0.470  11.653  18.463  0.00  0.00    +0.000 C 
ATOM     12  C   UNL     1      -1.775  11.607  19.269  0.00  0.00    +0.000 C 
ATOM     13  C   UNL     1      -1.713  12.291  20.631  0.00  0.00    +0.000 C 
ATOM     14  C   UNL     1      -1.104  13.683  20.534  0.00  0.00    +0.000 C 
ATOM     15  C   UNL     1       0.301  13.608  19.953  0.00  0.00    +0.000 C 
ATOM     16  C   UNL     1       0.297  12.979  18.563  0.00  0.00    +0.000 C 
ENDBRANCH   5  11
BRANCH   9  17
ATOM     17  N   UNL     1       2.821   5.660  20.867  0.00  0.00    +0.000 N 
ATOM     18  H   UNL     1       3.251   5.905  21.750  0.00  0.00    +0.000 HD
BRANCH  17  19
ATOM     19  S   UNL     1       1.916   4.257  20.919  0.00  0.00    +0.000 S 
ATOM     20  O   UNL     1       2.159   3.693  22.233  0.00  0.00    +0.000 OA
ATOM     21  O   UNL     1       0.559   4.504  20.473  0.00  0.00    +0.000 OA
BRANCH  19  22
ATOM     22  C   UNL     1       2.690   3.166  19.742  0.00  0.00    +0.000 A 
ATOM     23  C   UNL     1       3.967   2.654  19.998  0.00  0.00    +0.000 A 
ATOM     24  C   UNL     1       4.490   1.654  19.170  0.00  0.00    +0.000 A 
ATOM     25  C   UNL     1       3.738   1.167  18.100  0.00  0.00    +0.000 A 
ATOM     26  C   UNL     1       2.474   1.696  17.834  0.00  0.00    +0.000 A 
ATOM     27  C   UNL     1       1.946   2.696  18.654  0.00  0.00    +0.000 A 
ENDBRANCH  19  22
ENDBRANCH  17  19
ENDBRANCH   9  17
BRANCH   1  28
ATOM     28  N   UNL     1       4.070   5.772  18.049  0.00  0.00    +0.000 N 
BRANCH  28  30
ATOM     29  C   UNL     1       4.742   4.137  16.290  0.00  0.00    +0.000 C 
ATOM     30  C   UNL     1       3.666   5.085  16.810  0.00  0.00    +0.000 C 
ENDBRANCH  28  30
BRANCH  28  31
ATOM     31  C   UNL     1       5.550   5.919  18.291  0.00  0.00    +0.000 C 
BRANCH  31  32
ATOM     32  C   UNL     1       6.280   6.959  17.394  0.00  0.00    +0.000 C 
BRANCH  32  33
ATOM     33  N   UNL     1       7.712   7.234  17.654  0.00  0.00    +0.000 NA
ATOM     34  C   UNL     1       7.994   8.657  17.828  0.00  0.00    +0.000 C 
ATOM     35  C   UNL     1       8.114   6.504  18.868  0.00  0.00    +0.000 C 
ENDBRANCH  32  33
ENDBRANCH  31  32
ENDBRANCH  28  31
ENDBRANCH   1  28
TORSDOF 9
ENDMDL
MODEL 9
REMARK VINA RESULT:      -7.3      2.780      4.986
REMARK  Name = 
REMARK  12 active torsions:
REMARK  status: ('A' for Active; 'I' for Inactive)
REMARK    1  A    between atoms: C_1  and  C_2
REMARK    2  A    between atoms: C_2  and  N_3
REMARK    3  A    between atoms: N_3  and  C_4
REMARK    4  A    between atoms: N_3  and  C_9
REMARK    5  A    between atoms: C_4  and  C_5
REMARK    6  A    between atoms: C_5  and  N_6
REMARK    7  A    between atoms: N_6  and  C_7
REMARK    8  A    between atoms: N_6  and  C_8
REMARK    9  A    between atoms: C_13  and  C_14
REMARK   10  A    between atoms: C_23  and  N_24
REMARK   11  A    between atoms: N_24  and  S_25
REMARK   12  A    between atoms: S_25  and  C_28
REMARK                            x       y       z     vdW  Elec       q    Type
REMARK                         _______ _______ _______ _____ _____    ______ ____
ROOT
ATOM      1  C   UNL     1      -0.108  11.143  20.336  0.00  0.00    +0.000 A 
ATOM      2  C   UNL     1       0.076   9.879  20.980  0.00  0.00    +0.000 A 
ATOM      3  C   UNL     1       0.919   8.909  20.407  0.00  0.00    +0.000 A 
ATOM      4  N   UNL     1       1.246   7.612  20.745  0.00  0.00    +0.000 N 
ATOM      5  C   UNL     1       2.085   7.113  19.772  0.00  0.00    +0.000 A 
ATOM      6  N   UNL     1       2.332   8.037  18.865  0.00  0.00    +0.000 NA
ATOM      7  C   UNL     1       1.626   9.141  19.244  0.00  0.00    +0.000 A 
ATOM      8  C   UNL     1       1.548  10.390  18.636  0.00  0.00    +0.000 A 
ATOM      9  C   UNL     1       0.724  11.386  19.191  0.00  0.00    +0.000 A 
ATOM     10  H   UNL     1       0.909   7.111  21.554  0.00  0.00    +0.000 HD
ENDROOT
BRANCH   5  11
ATOM     11  C   UNL     1       2.657   5.722  19.709  0.00  0.00    +0.000 C 
ATOM     12  C   UNL     1       2.036   4.743  20.713  0.00  0.00    +0.000 C 
ATOM     13  C   UNL     1       0.874   3.917  20.171  0.00  0.00    +0.000 C 
ATOM     14  C   UNL     1       1.213   3.282  18.829  0.00  0.00    +0.000 C 
ATOM     15  C   UNL     1       1.577   4.354  17.811  0.00  0.00    +0.000 C 
ATOM     16  C   UNL     1       2.771   5.182  18.276  0.00  0.00    +0.000 C 
ENDBRANCH   5  11
BRANCH   9  17
ATOM     17  N   UNL     1       0.812  12.623  18.486  0.00  0.00    +0.000 N 
ATOM     18  H   UNL     1      -0.007  13.013  18.037  0.00  0.00    +0.000 HD
BRANCH  17  19
ATOM     19  S   UNL     1       1.976  13.756  18.876  0.00  0.00    +0.000 S 
ATOM     20  O   UNL     1       2.123  13.673  20.317  0.00  0.00    +0.000 OA
ATOM     21  O   UNL     1       3.136  13.618  18.017  0.00  0.00    +0.000 OA
BRANCH  19  22
ATOM     22  C   UNL     1       1.221  15.331  18.529  0.00  0.00    +0.000 A 
ATOM     23  C   UNL     1      -0.155  15.504  18.718  0.00  0.00    +0.000 A 
ATOM     24  C   UNL     1      -0.711  16.785  18.629  0.00  0.00    +0.000 A 
ATOM     25  C   UNL     1       0.105  17.884  18.358  0.00  0.00    +0.000 A 
ATOM     26  C   UNL     1       1.474  17.706  18.147  0.00  0.00    +0.000 A 
ATOM     27  C   UNL     1       2.035  16.430  18.232  0.00  0.00    +0.000 A 
ENDBRANCH  19  22
ENDBRANCH  17  19
ENDBRANCH   9  17
BRANCH   1  28
ATOM     28  N   UNL     1      -1.090  12.049  20.844  0.00  0.00    +0.000 N 
BRANCH  28  30
ATOM     29  C   UNL     1      -2.814  11.709  19.075  0.00  0.00    +0.000 C 
ATOM     30  C   UNL     1      -2.009  12.708  19.899  0.00  0.00    +0.000 C 
ENDBRANCH  28  30
BRANCH  28  31
ATOM     31  C   UNL     1      -1.606  11.819  22.242  0.00  0.00    +0.000 C 
BRANCH  31  32
ATOM     32  C   UNL     1      -2.677  12.831  22.740  0.00  0.00    +0.000 C 
BRANCH  32  33
ATOM     33  N   UNL     1      -4.009  12.314  23.131  0.00  0.00    +0.000 NA
ATOM     34  C   UNL     1      -4.289  12.488  24.554  0.00  0.00    +0.000 C 
ATOM     35  C   UNL     1      -5.032  13.017  22.341  0.00  0.00    +0.000 C 
ENDBRANCH  32  33
ENDBRANCH  31  32
ENDBRANCH  28  31
ENDBRANCH   1  28
TORSDOF 9
ENDMDL
