MODEL 1
REMARK VINA RESULT:      -8.4      0.000      0.000
REMARK  Name = 
REMARK  12 active torsions:
REMARK  status: ('A' for Active; 'I' for Inactive)
REMARK    1  A    between atoms: C_1  and  C_2
REMARK    2  A    between atoms: C_2  and  C_3
REMARK    3  A    between atoms: C_2  and  O_4
REMARK    4  A    between atoms: C_2  and  C_5
REMARK    5  A    between atoms: C_7  and  C_8
REMARK    6  A    between atoms: C_8  and  O_9
REMARK    7  A    between atoms: O_9  and  C_10
REMARK    8  A    between atoms: C_15  and  C_16
REMARK    9  A    between atoms: C_16  and  C_17
REMARK   10  A    between atoms: C_17  and  O_19
REMARK   11  A    between atoms: C_21  and  C_22
REMARK   12  A    between atoms: C_28  and  N_29
REMARK                            x       y       z     vdW  Elec       q    Type
REMARK                         _______ _______ _______ _____ _____    ______ ____
ROOT
ATOM      1  C   UNL     1       2.498   4.007  20.135  0.00  0.00    +0.000 A 
ATOM      2  C   UNL     1       2.991   3.502  18.919  0.00  0.00    +0.000 A 
ATOM      3  C   UNL     1       3.199   4.345  17.831  0.00  0.00    +0.000 A 
ATOM      4  C   UNL     1       2.846   5.692  17.949  0.00  0.00    +0.000 A 
ATOM      5  C   UNL     1       2.425   6.263  19.165  0.00  0.00    +0.000 A 
ATOM      6  C   UNL     1       2.207   5.386  20.234  0.00  0.00    +0.000 A 
ENDROOT
BRANCH   5   7
ATOM      7  C   UNL     1       2.225   7.731  19.243  0.00  0.00    +0.000 A 
ATOM      8  C   UNL     1       2.335   8.495  18.048  0.00  0.00    +0.000 A 
ATOM      9  C   UNL     1       1.611   9.670  17.879  0.00  0.00    +0.000 A 
ATOM     10  C   UNL     1       0.895  10.073  18.973  0.00  0.00    +0.000 A 
ATOM     11  C   UNL     1       1.148   9.607  20.256  0.00  0.00    +0.000 A 
ATOM     12  C   UNL     1       1.741   8.366  20.405  0.00  0.00    +0.000 A 
ATOM     13  C   UNL     1       0.276  10.422  21.147  0.00  0.00    +0.000 C 
ATOM     14  C   UNL     1      -0.919  10.310  20.198  0.00  0.00    +0.000 C 
ATOM     15  O   UNL     1      -0.339  10.722  18.907  0.00  0.00    +0.000 OA
BRANCH  13  16
ATOM     16  N   UNL     1       0.229  10.033  22.540  0.00  0.00    +0.000 NA
ATOM     17  H   UNL     1      -0.682   9.593  22.691  0.00  0.00    +0.000 HD
ATOM     18  H   UNL     1       0.889   9.264  22.670  0.00  0.00    +0.000 HD
ENDBRANCH  13  16
ENDBRANCH   5   7
BRANCH   1  20
ATOM     19  C   UNL     1       3.465   2.020  21.362  0.00  0.00    +0.000 C 
ATOM     20  C   UNL     1       2.386   3.107  21.362  0.00  0.00    +0.000 C 
ATOM     21  C   UNL     1       0.979   2.500  21.440  0.00  0.00    +0.000 C 
BRANCH  20  22
ATOM     22  O   UNL     1       2.573   3.880  22.555  0.00  0.00    +0.000 OA
ATOM     23  H   UNL     1       2.664   3.268  23.297  0.00  0.00    +0.000 HD
ENDBRANCH  20  22
ENDBRANCH   1  20
BRANCH   3  24
ATOM     24  C   UNL     1       3.963   3.898  16.611  0.00  0.00    +0.000 C 
BRANCH  24  25
ATOM     25  O   UNL     1       5.320   3.548  16.880  0.00  0.00    +0.000 OA
BRANCH  25  26
ATOM     26  C   UNL     1       6.090   4.575  17.387  0.00  0.00    +0.000 A 
ATOM     27  C   UNL     1       6.492   4.661  18.729  0.00  0.00    +0.000 A 
ATOM     28  C   UNL     1       7.280   5.715  19.181  0.00  0.00    +0.000 A 
ATOM     29  C   UNL     1       7.672   6.713  18.296  0.00  0.00    +0.000 A 
ATOM     30  C   UNL     1       7.265   6.653  16.964  0.00  0.00    +0.000 A 
ATOM     31  C   UNL     1       6.464   5.594  16.493  0.00  0.00    +0.000 A 
BRANCH  31  32
ATOM     32  C   UNL     1       6.009   5.623  15.053  0.00  0.00    +0.000 C 
BRANCH  32  33
ATOM     33  C   UNL     1       6.928   4.887  14.111  0.00  0.00    +0.000 C 
ATOM     34  O   UNL     1       7.912   5.371  13.587  0.00  0.00    +0.000 OA
BRANCH  33  35
ATOM     35  O   UNL     1       6.540   3.592  13.884  0.00  0.00    +0.000 OA
ATOM     36  H   UNL     1       7.218   3.075  13.441  0.00  0.00    +0.000 HD
ENDBRANCH  33  35
ENDBRANCH  32  33
ENDBRANCH  31  32
ENDBRANCH  25  26
ENDBRANCH  24  25
ENDBRANCH   3  24
TORSDOF 10
ENDMDL
MODEL 2
REMARK VINA RESULT:      -8.2      2.182      3.503
REMARK  Name = 
REMARK  12 active torsions:
REMARK  status: ('A' for Active; 'I' for Inactive)
REMARK    1  A    between atoms: C_1  and  C_2
REMARK    2  A    between atoms: C_2  and  C_3
REMARK    3  A    between atoms: C_2  and  O_4
REMARK    4  A    between atoms: C_2  and  C_5
REMARK    5  A    between atoms: C_7  and  C_8
REMARK    6  A    between atoms: C_8  and  O_9
REMARK    7  A    between atoms: O_9  and  C_10
REMARK    8  A    between atoms: C_15  and  C_16
REMARK    9  A    between atoms: C_16  and  C_17
REMARK   10  A    between atoms: C_17  and  O_19
REMARK   11  A    between atoms: C_21  and  C_22
REMARK   12  A    between atoms: C_28  and  N_29
REMARK                            x       y       z     vdW  Elec       q    Type
REMARK                         _______ _______ _______ _____ _____    ______ ____
ROOT
ATOM      1  C   UNL     1       2.264   5.297  19.703  0.00  0.00    +0.000 A 
ATOM      2  C   UNL     1       2.996   5.764  18.597  0.00  0.00    +0.000 A 
ATOM      3  C   UNL     1       2.904   7.092  18.192  0.00  0.00    +0.000 A 
ATOM      4  C   UNL     1       2.019   7.938  18.865  0.00  0.00    +0.000 A 
ATOM      5  C   UNL     1       1.325   7.544  20.025  0.00  0.00    +0.000 A 
ATOM      6  C   UNL     1       1.423   6.198  20.395  0.00  0.00    +0.000 A 
ENDROOT
BRANCH   5   7
ATOM      7  C   UNL     1       0.531   8.553  20.770  0.00  0.00    +0.000 A 
ATOM      8  C   UNL     1       0.786   8.723  22.160  0.00  0.00    +0.000 A 
ATOM      9  C   UNL     1       0.591   9.952  22.779  0.00  0.00    +0.000 A 
ATOM     10  C   UNL     1       0.041  10.922  21.985  0.00  0.00    +0.000 A 
ATOM     11  C   UNL     1      -0.630  10.640  20.802  0.00  0.00    +0.000 A 
ATOM     12  C   UNL     1      -0.315   9.476  20.124  0.00  0.00    +0.000 A 
ATOM     13  C   UNL     1      -1.208  11.939  20.361  0.00  0.00    +0.000 C 
ATOM     14  C   UNL     1       0.075  12.704  20.692  0.00  0.00    +0.000 C 
ATOM     15  O   UNL     1       0.348  12.280  22.078  0.00  0.00    +0.000 OA
BRANCH  13  16
ATOM     16  N   UNL     1      -1.837  11.960  19.058  0.00  0.00    +0.000 NA
ATOM     17  H   UNL     1      -2.598  11.277  19.089  0.00  0.00    +0.000 HD
ATOM     18  H   UNL     1      -2.322  12.853  18.962  0.00  0.00    +0.000 HD
ENDBRANCH  13  16
ENDBRANCH   5   7
BRANCH   1  20
ATOM     19  C   UNL     1       1.490   2.896  19.547  0.00  0.00    +0.000 C 
ATOM     20  C   UNL     1       2.458   3.875  20.220  0.00  0.00    +0.000 C 
ATOM     21  C   UNL     1       2.310   3.848  21.747  0.00  0.00    +0.000 C 
BRANCH  20  22
ATOM     22  O   UNL     1       3.784   3.422  19.921  0.00  0.00    +0.000 OA
ATOM     23  H   UNL     1       3.757   2.461  19.822  0.00  0.00    +0.000 HD
ENDBRANCH  20  22
ENDBRANCH   1  20
BRANCH   3  24
ATOM     24  C   UNL     1       3.858   7.687  17.188  0.00  0.00    +0.000 C 
BRANCH  24  25
ATOM     25  O   UNL     1       5.230   7.407  17.464  0.00  0.00    +0.000 OA
BRANCH  25  26
ATOM     26  C   UNL     1       5.767   6.373  16.726  0.00  0.00    +0.000 A 
ATOM     27  C   UNL     1       5.171   5.847  15.567  0.00  0.00    +0.000 A 
ATOM     28  C   UNL     1       5.766   4.811  14.856  0.00  0.00    +0.000 A 
ATOM     29  C   UNL     1       6.968   4.271  15.298  0.00  0.00    +0.000 A 
ATOM     30  C   UNL     1       7.563   4.767  16.457  0.00  0.00    +0.000 A 
ATOM     31  C   UNL     1       6.970   5.813  17.190  0.00  0.00    +0.000 A 
BRANCH  31  32
ATOM     32  C   UNL     1       7.637   6.262  18.470  0.00  0.00    +0.000 C 
BRANCH  32  33
ATOM     33  C   UNL     1       7.274   5.422  19.669  0.00  0.00    +0.000 C 
ATOM     34  O   UNL     1       6.206   4.860  19.821  0.00  0.00    +0.000 OA
BRANCH  33  35
ATOM     35  O   UNL     1       8.275   5.356  20.602  0.00  0.00    +0.000 OA
ATOM     36  H   UNL     1       8.309   4.506  21.049  0.00  0.00    +0.000 HD
ENDBRANCH  33  35
ENDBRANCH  32  33
ENDBRANCH  31  32
ENDBRANCH  25  26
ENDBRANCH  24  25
ENDBRANCH   3  24
TORSDOF 10
ENDMDL
MODEL 3
REMARK VINA RESULT:      -8.1      0.821      1.016
REMARK  Name = 
REMARK  12 active torsions:
REMARK  status: ('A' for Active; 'I' for Inactive)
REMARK    1  A    between atoms: C_1  and  C_2
REMARK    2  A    between atoms: C_2  and  C_3
REMARK    3  A    between atoms: C_2  and  O_4
REMARK    4  A    between atoms: C_2  and  C_5
REMARK    5  A    between atoms: C_7  and  C_8
REMARK    6  A    between atoms: C_8  and  O_9
REMARK    7  A    between atoms: O_9  and  C_10
REMARK    8  A    between atoms: C_15  and  C_16
REMARK    9  A    between atoms: C_16  and  C_17
REMARK   10  A    between atoms: C_17  and  O_19
REMARK   11  A    between atoms: C_21  and  C_22
REMARK   12  A    between atoms: C_28  and  N_29
REMARK                            x       y       z     vdW  Elec       q    Type
REMARK                         _______ _______ _______ _____ _____    ______ ____
ROOT
ATOM      1  C   UNL     1       2.205   3.795  19.375  0.00  0.00    +0.000 A 
ATOM      2  C   UNL     1       2.966   3.424  18.252  0.00  0.00    +0.000 A 
ATOM      3  C   UNL     1       3.470   4.389  17.384  0.00  0.00    +0.000 A 
ATOM      4  C   UNL     1       3.150   5.729  17.613  0.00  0.00    +0.000 A 
ATOM      5  C   UNL     1       2.461   6.161  18.762  0.00  0.00    +0.000 A 
ATOM      6  C   UNL     1       1.950   5.166  19.605  0.00  0.00    +0.000 A 
ENDROOT
BRANCH   5   7
ATOM      7  C   UNL     1       2.303   7.616  19.008  0.00  0.00    +0.000 A 
ATOM      8  C   UNL     1       2.591   8.517  17.945  0.00  0.00    +0.000 A 
ATOM      9  C   UNL     1       1.936   9.739  17.845  0.00  0.00    +0.000 A 
ATOM     10  C   UNL     1       1.100  10.037  18.886  0.00  0.00    +0.000 A 
ATOM     11  C   UNL     1       1.171   9.401  20.119  0.00  0.00    +0.000 A 
ATOM     12  C   UNL     1       1.697   8.123  20.174  0.00  0.00    +0.000 A 
ATOM     13  C   UNL     1       0.221  10.141  20.996  0.00  0.00    +0.000 C 
ATOM     14  C   UNL     1      -0.846  10.209  19.901  0.00  0.00    +0.000 C 
ATOM     15  O   UNL     1      -0.092  10.751  18.756  0.00  0.00    +0.000 OA
BRANCH  13  16
ATOM     16  N   UNL     1      -0.016   9.582  22.309  0.00  0.00    +0.000 NA
ATOM     17  H   UNL     1       0.894   9.521  22.771  0.00  0.00    +0.000 HD
ATOM     18  H   UNL     1      -0.515  10.284  22.859  0.00  0.00    +0.000 HD
ENDBRANCH  13  16
ENDBRANCH   5   7
BRANCH   1  20
ATOM     19  C   UNL     1       2.535   2.872  21.704  0.00  0.00    +0.000 C 
ATOM     20  C   UNL     1       1.756   2.749  20.391  0.00  0.00    +0.000 C 
ATOM     21  C   UNL     1       1.890   1.344  19.790  0.00  0.00    +0.000 C 
BRANCH  20  22
ATOM     22  O   UNL     1       0.371   2.937  20.708  0.00  0.00    +0.000 OA
ATOM     23  H   UNL     1       0.318   3.341  21.585  0.00  0.00    +0.000 HD
ENDBRANCH  20  22
ENDBRANCH   1  20
BRANCH   3  24
ATOM     24  C   UNL     1       4.497   4.055  16.332  0.00  0.00    +0.000 C 
BRANCH  24  25
ATOM     25  O   UNL     1       5.775   3.712  16.866  0.00  0.00    +0.000 OA
BRANCH  25  26
ATOM     26  C   UNL     1       6.484   4.773  17.391  0.00  0.00    +0.000 A 
ATOM     27  C   UNL     1       6.931   4.833  18.721  0.00  0.00    +0.000 A 
ATOM     28  C   UNL     1       7.652   5.925  19.192  0.00  0.00    +0.000 A 
ATOM     29  C   UNL     1       7.932   6.987  18.340  0.00  0.00    +0.000 A 
ATOM     30  C   UNL     1       7.479   6.953  17.022  0.00  0.00    +0.000 A 
ATOM     31  C   UNL     1       6.744   5.856  16.532  0.00  0.00    +0.000 A 
BRANCH  31  32
ATOM     32  C   UNL     1       6.231   5.911  15.112  0.00  0.00    +0.000 C 
BRANCH  32  33
ATOM     33  C   UNL     1       7.053   5.103  14.139  0.00  0.00    +0.000 C 
ATOM     34  O   UNL     1       6.706   4.043  13.656  0.00  0.00    +0.000 OA
BRANCH  33  35
ATOM     35  O   UNL     1       8.263   5.679  13.848  0.00  0.00    +0.000 OA
ATOM     36  H   UNL     1       8.332   6.580  14.177  0.00  0.00    +0.000 HD
ENDBRANCH  33  35
ENDBRANCH  32  33
ENDBRANCH  31  32
ENDBRANCH  25  26
ENDBRANCH  24  25
ENDBRANCH   3  24
TORSDOF 10
ENDMDL
MODEL 4
REMARK VINA RESULT:      -8.0      1.335      1.613
REMARK  Name = 
REMARK  12 active torsions:
REMARK  status: ('A' for Active; 'I' for Inactive)
REMARK    1  A    between atoms: C_1  and  C_2
REMARK    2  A    between atoms: C_2  and  C_3
REMARK    3  A    between atoms: C_2  and  O_4
REMARK    4  A    between atoms: C_2  and  C_5
REMARK    5  A    between atoms: C_7  and  C_8
REMARK    6  A    between atoms: C_8  and  O_9
REMARK    7  A    between atoms: O_9  and  C_10
REMARK    8  A    between atoms: C_15  and  C_16
REMARK    9  A    between atoms: C_16  and  C_17
REMARK   10  A    between atoms: C_17  and  O_19
REMARK   11  A    between atoms: C_21  and  C_22
REMARK   12  A    between atoms: C_28  and  N_29
REMARK                            x       y       z     vdW  Elec       q    Type
REMARK                         _______ _______ _______ _____ _____    ______ ____
ROOT
ATOM      1  C   UNL     1       2.224   3.800  19.692  0.00  0.00    +0.000 A 
ATOM      2  C   UNL     1       3.586   3.474  19.568  0.00  0.00    +0.000 A 
ATOM      3  C   UNL     1       4.535   4.463  19.324  0.00  0.00    +0.000 A 
ATOM      4  C   UNL     1       4.100   5.778  19.140  0.00  0.00    +0.000 A 
ATOM      5  C   UNL     1       2.762   6.170  19.332  0.00  0.00    +0.000 A 
ATOM      6  C   UNL     1       1.829   5.150  19.556  0.00  0.00    +0.000 A 
ENDROOT
BRANCH   5   7
ATOM      7  C   UNL     1       2.415   7.612  19.275  0.00  0.00    +0.000 A 
ATOM      8  C   UNL     1       2.675   8.324  18.071  0.00  0.00    +0.000 A 
ATOM      9  C   UNL     1       1.889   9.407  17.695  0.00  0.00    +0.000 A 
ATOM     10  C   UNL     1       0.946   9.787  18.611  0.00  0.00    +0.000 A 
ATOM     11  C   UNL     1       0.997   9.412  19.948  0.00  0.00    +0.000 A 
ATOM     12  C   UNL     1       1.665   8.248  20.284  0.00  0.00    +0.000 A 
ATOM     13  C   UNL     1      -0.098  10.174  20.609  0.00  0.00    +0.000 C 
ATOM     14  C   UNL     1      -1.079   9.892  19.469  0.00  0.00    +0.000 C 
ATOM     15  O   UNL     1      -0.308  10.300  18.280  0.00  0.00    +0.000 OA
BRANCH  13  16
ATOM     16  N   UNL     1      -0.369   9.850  21.993  0.00  0.00    +0.000 NA
ATOM     17  H   UNL     1      -1.369   9.649  22.058  0.00  0.00    +0.000 HD
ATOM     18  H   UNL     1       0.069   8.949  22.192  0.00  0.00    +0.000 HD
ENDBRANCH  13  16
ENDBRANCH   5   7
BRANCH   1  20
ATOM     19  C   UNL     1       1.229   2.451  21.584  0.00  0.00    +0.000 C 
ATOM     20  C   UNL     1       1.201   2.735  20.079  0.00  0.00    +0.000 C 
ATOM     21  C   UNL     1       1.441   1.458  19.263  0.00  0.00    +0.000 C 
BRANCH  20  22
ATOM     22  O   UNL     1      -0.121   3.190  19.764  0.00  0.00    +0.000 OA
ATOM     23  H   UNL     1      -0.172   3.322  18.808  0.00  0.00    +0.000 HD
ENDBRANCH  20  22
ENDBRANCH   1  20
BRANCH   3  24
ATOM     24  C   UNL     1       6.013   4.196  19.444  0.00  0.00    +0.000 C 
BRANCH  24  25
ATOM     25  O   UNL     1       6.741   4.446  18.242  0.00  0.00    +0.000 OA
BRANCH  25  26
ATOM     26  C   UNL     1       7.181   5.745  18.094  0.00  0.00    +0.000 A 
ATOM     27  C   UNL     1       8.029   6.393  19.008  0.00  0.00    +0.000 A 
ATOM     28  C   UNL     1       8.450   7.701  18.800  0.00  0.00    +0.000 A 
ATOM     29  C   UNL     1       8.019   8.395  17.675  0.00  0.00    +0.000 A 
ATOM     30  C   UNL     1       7.162   7.774  16.767  0.00  0.00    +0.000 A 
ATOM     31  C   UNL     1       6.724   6.450  16.967  0.00  0.00    +0.000 A 
BRANCH  31  32
ATOM     32  C   UNL     1       5.747   5.860  15.977  0.00  0.00    +0.000 C 
BRANCH  32  33
ATOM     33  C   UNL     1       6.408   5.121  14.841  0.00  0.00    +0.000 C 
ATOM     34  O   UNL     1       7.586   5.207  14.553  0.00  0.00    +0.000 OA
BRANCH  33  35
ATOM     35  O   UNL     1       5.538   4.330  14.135  0.00  0.00    +0.000 OA
ATOM     36  H   UNL     1       4.924   4.840  13.601  0.00  0.00    +0.000 HD
ENDBRANCH  33  35
ENDBRANCH  32  33
ENDBRANCH  31  32
ENDBRANCH  25  26
ENDBRANCH  24  25
ENDBRANCH   3  24
TORSDOF 10
ENDMDL
MODEL 5
REMARK VINA RESULT:      -8.0      2.163      5.270
REMARK  Name = 
REMARK  12 active torsions:
REMARK  status: ('A' for Active; 'I' for Inactive)
REMARK    1  A    between atoms: C_1  and  C_2
REMARK    2  A    between atoms: C_2  and  C_3
REMARK    3  A    between atoms: C_2  and  O_4
REMARK    4  A    between atoms: C_2  and  C_5
REMARK    5  A    between atoms: C_7  and  C_8
REMARK    6  A    between atoms: C_8  and  O_9
REMARK    7  A    between atoms: O_9  and  C_10
REMARK    8  A    between atoms: C_15  and  C_16
REMARK    9  A    between atoms: C_16  and  C_17
REMARK   10  A    between atoms: C_17  and  O_19
REMARK   11  A    between atoms: C_21  and  C_22
REMARK   12  A    between atoms: C_28  and  N_29
REMARK                            x       y       z     vdW  Elec       q    Type
REMARK                         _______ _______ _______ _____ _____    ______ ____
ROOT
ATOM      1  C   UNL     1       5.398   6.384  17.702  0.00  0.00    +0.000 A 
ATOM      2  C   UNL     1       4.885   5.115  17.379  0.00  0.00    +0.000 A 
ATOM      3  C   UNL     1       3.515   4.873  17.409  0.00  0.00    +0.000 A 
ATOM      4  C   UNL     1       2.662   5.896  17.830  0.00  0.00    +0.000 A 
ATOM      5  C   UNL     1       3.114   7.204  18.088  0.00  0.00    +0.000 A 
ATOM      6  C   UNL     1       4.499   7.411  18.069  0.00  0.00    +0.000 A 
ENDROOT
BRANCH   5   7
ATOM      7  C   UNL     1       2.122   8.270  18.373  0.00  0.00    +0.000 A 
ATOM      8  C   UNL     1       1.143   8.032  19.378  0.00  0.00    +0.000 A 
ATOM      9  C   UNL     1       0.611   9.079  20.121  0.00  0.00    +0.000 A 
ATOM     10  C   UNL     1       1.013  10.329  19.736  0.00  0.00    +0.000 A 
ATOM     11  C   UNL     1       1.579  10.592  18.495  0.00  0.00    +0.000 A 
ATOM     12  C   UNL     1       2.231   9.567  17.834  0.00  0.00    +0.000 A 
ATOM     13  C   UNL     1       1.699  12.075  18.427  0.00  0.00    +0.000 C 
ATOM     14  C   UNL     1       2.215  12.170  19.865  0.00  0.00    +0.000 C 
ATOM     15  O   UNL     1       1.208  11.396  20.614  0.00  0.00    +0.000 OA
BRANCH  13  16
ATOM     16  N   UNL     1       2.407  12.616  17.287  0.00  0.00    +0.000 NA
ATOM     17  H   UNL     1       2.099  12.082  16.470  0.00  0.00    +0.000 HD
ATOM     18  H   UNL     1       2.042  13.553  17.111  0.00  0.00    +0.000 HD
ENDBRANCH  13  16
ENDBRANCH   5   7
BRANCH   1  20
ATOM     19  C   UNL     1       7.704   6.039  18.676  0.00  0.00    +0.000 C 
ATOM     20  C   UNL     1       6.887   6.683  17.552  0.00  0.00    +0.000 C 
ATOM     21  C   UNL     1       7.113   8.199  17.493  0.00  0.00    +0.000 C 
BRANCH  20  22
ATOM     22  O   UNL     1       7.373   6.139  16.318  0.00  0.00    +0.000 OA
ATOM     23  H   UNL     1       6.609   5.895  15.778  0.00  0.00    +0.000 HD
ENDBRANCH  20  22
ENDBRANCH   1  20
BRANCH   3  24
ATOM     24  C   UNL     1       2.914   3.620  16.823  0.00  0.00    +0.000 C 
BRANCH  24  25
ATOM     25  O   UNL     1       2.995   2.487  17.687  0.00  0.00    +0.000 OA
BRANCH  25  26
ATOM     26  C   UNL     1       2.392   2.654  18.916  0.00  0.00    +0.000 A 
ATOM     27  C   UNL     1       1.020   2.903  19.086  0.00  0.00    +0.000 A 
ATOM     28  C   UNL     1       0.465   3.051  20.353  0.00  0.00    +0.000 A 
ATOM     29  C   UNL     1       1.276   2.964  21.477  0.00  0.00    +0.000 A 
ATOM     30  C   UNL     1       2.644   2.736  21.326  0.00  0.00    +0.000 A 
ATOM     31  C   UNL     1       3.221   2.588  20.050  0.00  0.00    +0.000 A 
BRANCH  31  32
ATOM     32  C   UNL     1       4.718   2.405  19.955  0.00  0.00    +0.000 C 
BRANCH  32  33
ATOM     33  C   UNL     1       5.229   1.197  20.698  0.00  0.00    +0.000 C 
ATOM     34  O   UNL     1       5.497   1.177  21.884  0.00  0.00    +0.000 OA
BRANCH  33  35
ATOM     35  O   UNL     1       5.379   0.095  19.895  0.00  0.00    +0.000 OA
ATOM     36  H   UNL     1       5.395   0.318  18.961  0.00  0.00    +0.000 HD
ENDBRANCH  33  35
ENDBRANCH  32  33
ENDBRANCH  31  32
ENDBRANCH  25  26
ENDBRANCH  24  25
ENDBRANCH   3  24
TORSDOF 10
ENDMDL
MODEL 6
REMARK VINA RESULT:      -8.0      2.700      7.740
REMARK  Name = 
REMARK  12 active torsions:
REMARK  status: ('A' for Active; 'I' for Inactive)
REMARK    1  A    between atoms: C_1  and  C_2
REMARK    2  A    between atoms: C_2  and  C_3
REMARK    3  A    between atoms: C_2  and  O_4
REMARK    4  A    between atoms: C_2  and  C_5
REMARK    5  A    between atoms: C_7  and  C_8
REMARK    6  A    between atoms: C_8  and  O_9
REMARK    7  A    between atoms: O_9  and  C_10
REMARK    8  A    between atoms: C_15  and  C_16
REMARK    9  A    between atoms: C_16  and  C_17
REMARK   10  A    between atoms: C_17  and  O_19
REMARK   11  A    between atoms: C_21  and  C_22
REMARK   12  A    between atoms: C_28  and  N_29
REMARK                            x       y       z     vdW  Elec       q    Type
REMARK                         _______ _______ _______ _____ _____    ______ ____
ROOT
ATOM      1  C   UNL     1       1.940   4.333  19.989  0.00  0.00    +0.000 A 
ATOM      2  C   UNL     1       1.433   5.423  20.718  0.00  0.00    +0.000 A 
ATOM      3  C   UNL     1       1.893   6.715  20.477  0.00  0.00    +0.000 A 
ATOM      4  C   UNL     1       2.914   6.900  19.542  0.00  0.00    +0.000 A 
ATOM      5  C   UNL     1       3.399   5.857  18.730  0.00  0.00    +0.000 A 
ATOM      6  C   UNL     1       2.933   4.567  19.010  0.00  0.00    +0.000 A 
ENDROOT
BRANCH   5   7
ATOM      7  C   UNL     1       4.369   6.172  17.652  0.00  0.00    +0.000 A 
ATOM      8  C   UNL     1       5.477   7.009  17.960  0.00  0.00    +0.000 A 
ATOM      9  C   UNL     1       6.686   6.875  17.287  0.00  0.00    +0.000 A 
ATOM     10  C   UNL     1       6.681   5.973  16.258  0.00  0.00    +0.000 A 
ATOM     11  C   UNL     1       5.514   5.512  15.662  0.00  0.00    +0.000 A 
ATOM     12  C   UNL     1       4.345   5.521  16.402  0.00  0.00    +0.000 A 
ATOM     13  C   UNL     1       5.964   4.704  14.495  0.00  0.00    +0.000 C 
ATOM     14  C   UNL     1       7.077   4.030  15.301  0.00  0.00    +0.000 C 
ATOM     15  O   UNL     1       7.774   5.182  15.903  0.00  0.00    +0.000 OA
BRANCH  13  16
ATOM     16  N   UNL     1       4.940   3.973  13.781  0.00  0.00    +0.000 NA
ATOM     17  H   UNL     1       4.245   4.660  13.480  0.00  0.00    +0.000 HD
ATOM     18  H   UNL     1       5.347   3.646  12.903  0.00  0.00    +0.000 HD
ENDBRANCH  13  16
ENDBRANCH   5   7
BRANCH   1  20
ATOM     19  C   UNL     1       1.435   2.474  21.625  0.00  0.00    +0.000 C 
ATOM     20  C   UNL     1       1.351   2.937  20.167  0.00  0.00    +0.000 C 
ATOM     21  C   UNL     1       2.051   1.948  19.225  0.00  0.00    +0.000 C 
BRANCH  20  22
ATOM     22  O   UNL     1      -0.037   2.942  19.810  0.00  0.00    +0.000 OA
ATOM     23  H   UNL     1      -0.499   3.534  20.419  0.00  0.00    +0.000 HD
ENDBRANCH  20  22
ENDBRANCH   1  20
BRANCH   3  24
ATOM     24  C   UNL     1       1.197   7.926  21.044  0.00  0.00    +0.000 C 
BRANCH  24  25
ATOM     25  O   UNL     1       0.931   8.941  20.076  0.00  0.00    +0.000 OA
BRANCH  25  26
ATOM     26  C   UNL     1       0.110   9.957  20.518  0.00  0.00    +0.000 A 
ATOM     27  C   UNL     1      -0.020  10.328  21.867  0.00  0.00    +0.000 A 
ATOM     28  C   UNL     1      -0.856  11.371  22.251  0.00  0.00    +0.000 A 
ATOM     29  C   UNL     1      -1.589  12.059  21.292  0.00  0.00    +0.000 A 
ATOM     30  C   UNL     1      -1.487  11.692  19.950  0.00  0.00    +0.000 A 
ATOM     31  C   UNL     1      -0.648  10.635  19.546  0.00  0.00    +0.000 A 
BRANCH  31  32
ATOM     32  C   UNL     1      -0.632  10.249  18.086  0.00  0.00    +0.000 C 
BRANCH  32  33
ATOM     33  C   UNL     1      -1.964  10.417  17.399  0.00  0.00    +0.000 C 
ATOM     34  O   UNL     1      -2.909   9.664  17.533  0.00  0.00    +0.000 OA
BRANCH  33  35
ATOM     35  O   UNL     1      -2.013  11.516  16.581  0.00  0.00    +0.000 OA
ATOM     36  H   UNL     1      -1.912  11.291  15.653  0.00  0.00    +0.000 HD
ENDBRANCH  33  35
ENDBRANCH  32  33
ENDBRANCH  31  32
ENDBRANCH  25  26
ENDBRANCH  24  25
ENDBRANCH   3  24
TORSDOF 10
ENDMDL
MODEL 7
REMARK VINA RESULT:      -8.0      3.711      5.759
REMARK  Name = 
REMARK  12 active torsions:
REMARK  status: ('A' for Active; 'I' for Inactive)
REMARK    1  A    between atoms: C_1  and  C_2
REMARK    2  A    between atoms: C_2  and  C_3
REMARK    3  A    between atoms: C_2  and  O_4
REMARK    4  A    between atoms: C_2  and  C_5
REMARK    5  A    between atoms: C_7  and  C_8
REMARK    6  A    between atoms: C_8  and  O_9
REMARK    7  A    between atoms: O_9  and  C_10
REMARK    8  A    between atoms: C_15  and  C_16
REMARK    9  A    between atoms: C_16  and  C_17
REMARK   10  A    between atoms: C_17  and  O_19
REMARK   11  A    between atoms: C_21  and  C_22
REMARK   12  A    between atoms: C_28  and  N_29
REMARK                            x       y       z     vdW  Elec       q    Type
REMARK                         _______ _______ _______ _____ _____    ______ ____
ROOT
ATOM      1  C   UNL     1       0.707  10.058  20.680  0.00  0.00    +0.000 A 
ATOM      2  C   UNL     1       1.096   9.009  19.828  0.00  0.00    +0.000 A 
ATOM      3  C   UNL     1       1.651   9.275  18.579  0.00  0.00    +0.000 A 
ATOM      4  C   UNL     1       1.754  10.604  18.161  0.00  0.00    +0.000 A 
ATOM      5  C   UNL     1       1.456  11.691  19.004  0.00  0.00    +0.000 A 
ATOM      6  C   UNL     1       0.881  11.392  20.245  0.00  0.00    +0.000 A 
ENDROOT
BRANCH   5   7
ATOM      7  C   UNL     1       1.747  13.070  18.537  0.00  0.00    +0.000 A 
ATOM      8  C   UNL     1       0.733  14.060  18.673  0.00  0.00    +0.000 A 
ATOM      9  C   UNL     1       1.060  15.398  18.854  0.00  0.00    +0.000 A 
ATOM     10  C   UNL     1       2.395  15.687  18.778  0.00  0.00    +0.000 A 
ATOM     11  C   UNL     1       3.320  14.833  18.193  0.00  0.00    +0.000 A 
ATOM     12  C   UNL     1       3.039  13.479  18.152  0.00  0.00    +0.000 A 
ATOM     13  C   UNL     1       4.597  15.599  18.165  0.00  0.00    +0.000 C 
ATOM     14  C   UNL     1       4.395  16.124  19.588  0.00  0.00    +0.000 C 
ATOM     15  O   UNL     1       3.029  16.675  19.532  0.00  0.00    +0.000 OA
BRANCH  13  16
ATOM     16  N   UNL     1       5.777  14.878  17.739  0.00  0.00    +0.000 NA
ATOM     17  H   UNL     1       5.579  13.884  17.878  0.00  0.00    +0.000 HD
ATOM     18  H   UNL     1       5.845  14.967  16.724  0.00  0.00    +0.000 HD
ENDBRANCH  13  16
ENDBRANCH   5   7
BRANCH   1  20
ATOM     19  C   UNL     1      -0.568   8.453  22.158  0.00  0.00    +0.000 C 
ATOM     20  C   UNL     1       0.213   9.769  22.094  0.00  0.00    +0.000 C 
ATOM     21  C   UNL     1      -0.630  10.945  22.606  0.00  0.00    +0.000 C 
BRANCH  20  22
ATOM     22  O   UNL     1       1.328   9.636  22.985  0.00  0.00    +0.000 OA
ATOM     23  H   UNL     1       2.137   9.653  22.455  0.00  0.00    +0.000 HD
ENDBRANCH  20  22
ENDBRANCH   1  20
BRANCH   3  24
ATOM     24  C   UNL     1       2.313   8.200  17.756  0.00  0.00    +0.000 C 
BRANCH  24  25
ATOM     25  O   UNL     1       3.087   7.282  18.527  0.00  0.00    +0.000 OA
BRANCH  25  26
ATOM     26  C   UNL     1       3.002   5.968  18.116  0.00  0.00    +0.000 A 
ATOM     27  C   UNL     1       1.826   5.203  18.178  0.00  0.00    +0.000 A 
ATOM     28  C   UNL     1       1.799   3.884  17.736  0.00  0.00    +0.000 A 
ATOM     29  C   UNL     1       2.954   3.300  17.232  0.00  0.00    +0.000 A 
ATOM     30  C   UNL     1       4.136   4.040  17.180  0.00  0.00    +0.000 A 
ATOM     31  C   UNL     1       4.180   5.374  17.628  0.00  0.00    +0.000 A 
BRANCH  31  32
ATOM     32  C   UNL     1       5.506   6.097  17.601  0.00  0.00    +0.000 C 
BRANCH  32  33
ATOM     33  C   UNL     1       6.110   6.204  16.223  0.00  0.00    +0.000 C 
ATOM     34  O   UNL     1       7.229   5.831  15.929  0.00  0.00    +0.000 OA
BRANCH  33  35
ATOM     35  O   UNL     1       5.268   6.784  15.310  0.00  0.00    +0.000 OA
ATOM     36  H   UNL     1       4.439   6.307  15.215  0.00  0.00    +0.000 HD
ENDBRANCH  33  35
ENDBRANCH  32  33
ENDBRANCH  31  32
ENDBRANCH  25  26
ENDBRANCH  24  25
ENDBRANCH   3  24
TORSDOF 10
ENDMDL
MODEL 8
REMARK VINA RESULT:      -7.9      3.436      6.331
REMARK  Name = 
REMARK  12 active torsions:
REMARK  status: ('A' for Active; 'I' for Inactive)
REMARK    1  A    between atoms: C_1  and  C_2
REMARK    2  A    between atoms: C_2  and  C_3
REMARK    3  A    between atoms: C_2  and  O_4
REMARK    4  A    between atoms: C_2  and  C_5
REMARK    5  A    between atoms: C_7  and  C_8
REMARK    6  A    between atoms: C_8  and  O_9
REMARK    7  A    between atoms: O_9  and  C_10
REMARK    8  A    between atoms: C_15  and  C_16
REMARK    9  A    between atoms: C_16  and  C_17
REMARK   10  A    between atoms: C_17  and  O_19
REMARK   11  A    between atoms: C_21  and  C_22
REMARK   12  A    between atoms: C_28  and  N_29
REMARK                            x       y       z     vdW  Elec       q    Type
REMARK                         _______ _______ _______ _____ _____    ______ ____
ROOT
ATOM      1  C   UNL     1       0.392   9.775  21.021  0.00  0.00    +0.000 A 
ATOM      2  C   UNL     1       0.921   8.699  20.285  0.00  0.00    +0.000 A 
ATOM      3  C   UNL     1       1.509   8.909  19.041  0.00  0.00    +0.000 A 
ATOM      4  C   UNL     1       1.505  10.201  18.507  0.00  0.00    +0.000 A 
ATOM      5  C   UNL     1       1.062  11.322  19.234  0.00  0.00    +0.000 A 
ATOM      6  C   UNL     1       0.459  11.076  20.473  0.00  0.00    +0.000 A 
ENDROOT
BRANCH   5   7
ATOM      7  C   UNL     1       1.243  12.676  18.655  0.00  0.00    +0.000 A 
ATOM      8  C   UNL     1       0.165  13.601  18.744  0.00  0.00    +0.000 A 
ATOM      9  C   UNL     1       0.398  14.969  18.813  0.00  0.00    +0.000 A 
ATOM     10  C   UNL     1       1.707  15.343  18.676  0.00  0.00    +0.000 A 
ATOM     11  C   UNL     1       2.678  14.512  18.132  0.00  0.00    +0.000 A 
ATOM     12  C   UNL     1       2.493  13.144  18.203  0.00  0.00    +0.000 A 
ATOM     13  C   UNL     1       3.895  15.362  18.010  0.00  0.00    +0.000 C 
ATOM     14  C   UNL     1       3.689  15.981  19.394  0.00  0.00    +0.000 C 
ATOM     15  O   UNL     1       2.285  16.429  19.334  0.00  0.00    +0.000 OA
BRANCH  13  16
ATOM     16  N   UNL     1       5.113  14.694  17.607  0.00  0.00    +0.000 NA
ATOM     17  H   UNL     1       5.006  14.458  16.617  0.00  0.00    +0.000 HD
ATOM     18  H   UNL     1       5.862  15.388  17.606  0.00  0.00    +0.000 HD
ENDBRANCH  13  16
ENDBRANCH   5   7
BRANCH   1  20
ATOM     19  C   UNL     1      -0.999  10.745  22.894  0.00  0.00    +0.000 C 
ATOM     20  C   UNL     1      -0.142   9.562  22.434  0.00  0.00    +0.000 C 
ATOM     21  C   UNL     1       1.022   9.305  23.401  0.00  0.00    +0.000 C 
BRANCH  20  22
ATOM     22  O   UNL     1      -0.980   8.400  22.471  0.00  0.00    +0.000 OA
ATOM     23  H   UNL     1      -0.537   7.697  21.977  0.00  0.00    +0.000 HD
ENDBRANCH  20  22
ENDBRANCH   1  20
BRANCH   3  24
ATOM     24  C   UNL     1       2.311   7.838  18.347  0.00  0.00    +0.000 C 
BRANCH  24  25
ATOM     25  O   UNL     1       2.980   6.951  19.244  0.00  0.00    +0.000 OA
BRANCH  25  26
ATOM     26  C   UNL     1       3.307   5.725  18.704  0.00  0.00    +0.000 A 
ATOM     27  C   UNL     1       3.894   5.558  17.438  0.00  0.00    +0.000 A 
ATOM     28  C   UNL     1       4.214   4.296  16.951  0.00  0.00    +0.000 A 
ATOM     29  C   UNL     1       3.941   3.170  17.719  0.00  0.00    +0.000 A 
ATOM     30  C   UNL     1       3.342   3.315  18.969  0.00  0.00    +0.000 A 
ATOM     31  C   UNL     1       3.008   4.587  19.474  0.00  0.00    +0.000 A 
BRANCH  31  32
ATOM     32  C   UNL     1       2.305   4.668  20.809  0.00  0.00    +0.000 C 
BRANCH  32  33
ATOM     33  C   UNL     1       1.576   3.404  21.188  0.00  0.00    +0.000 C 
ATOM     34  O   UNL     1       1.937   2.632  22.056  0.00  0.00    +0.000 OA
BRANCH  33  35
ATOM     35  O   UNL     1       0.447   3.189  20.441  0.00  0.00    +0.000 OA
ATOM     36  H   UNL     1       0.612   2.639  19.670  0.00  0.00    +0.000 HD
ENDBRANCH  33  35
ENDBRANCH  32  33
ENDBRANCH  31  32
ENDBRANCH  25  26
ENDBRANCH  24  25
ENDBRANCH   3  24
TORSDOF 10
ENDMDL
MODEL 9
REMARK VINA RESULT:      -7.9      3.651      6.271
REMARK  Name = 
REMARK  12 active torsions:
REMARK  status: ('A' for Active; 'I' for Inactive)
REMARK    1  A    between atoms: C_1  and  C_2
REMARK    2  A    between atoms: C_2  and  C_3
REMARK    3  A    between atoms: C_2  and  O_4
REMARK    4  A    between atoms: C_2  and  C_5
REMARK    5  A    between atoms: C_7  and  C_8
REMARK    6  A    between atoms: C_8  and  O_9
REMARK    7  A    between atoms: O_9  and  C_10
REMARK    8  A    between atoms: C_15  and  C_16
REMARK    9  A    between atoms: C_16  and  C_17
REMARK   10  A    between atoms: C_17  and  O_19
REMARK   11  A    between atoms: C_21  and  C_22
REMARK   12  A    between atoms: C_28  and  N_29
REMARK                            x       y       z     vdW  Elec       q    Type
REMARK                         _______ _______ _______ _____ _____    ______ ____
ROOT
ATOM      1  C   UNL     1       0.570  10.069  20.836  0.00  0.00    +0.000 A 
ATOM      2  C   UNL     1       0.977   9.006  20.010  0.00  0.00    +0.000 A 
ATOM      3  C   UNL     1       1.509   9.250  18.747  0.00  0.00    +0.000 A 
ATOM      4  C   UNL     1       1.571  10.569  18.289  0.00  0.00    +0.000 A 
ATOM      5  C   UNL     1       1.253  11.672  19.103  0.00  0.00    +0.000 A 
ATOM      6  C   UNL     1       0.702  11.393  20.360  0.00  0.00    +0.000 A 
ENDROOT
BRANCH   5   7
ATOM      7  C   UNL     1       1.500  13.043  18.593  0.00  0.00    +0.000 A 
ATOM      8  C   UNL     1       0.483  14.024  18.765  0.00  0.00    +0.000 A 
ATOM      9  C   UNL     1       0.802  15.370  18.899  0.00  0.00    +0.000 A 
ATOM     10  C   UNL     1       2.127  15.672  18.742  0.00  0.00    +0.000 A 
ATOM     11  C   UNL     1       3.029  14.816  18.124  0.00  0.00    +0.000 A 
ATOM     12  C   UNL     1       2.763  13.459  18.127  0.00  0.00    +0.000 A 
ATOM     13  C   UNL     1       4.293  15.597  18.009  0.00  0.00    +0.000 C 
ATOM     14  C   UNL     1       4.163  16.149  19.431  0.00  0.00    +0.000 C 
ATOM     15  O   UNL     1       2.789  16.683  19.439  0.00  0.00    +0.000 OA
BRANCH  13  16
ATOM     16  N   UNL     1       5.456  14.880  17.534  0.00  0.00    +0.000 NA
ATOM     17  H   UNL     1       5.574  15.132  16.549  0.00  0.00    +0.000 HD
ATOM     18  H   UNL     1       6.277  15.288  17.983  0.00  0.00    +0.000 HD
ENDBRANCH  13  16
ENDBRANCH   5   7
BRANCH   1  20
ATOM     19  C   UNL     1      -0.644   8.475  22.376  0.00  0.00    +0.000 C 
ATOM     20  C   UNL     1       0.101   9.809  22.264  0.00  0.00    +0.000 C 
ATOM     21  C   UNL     1      -0.765  10.977  22.753  0.00  0.00    +0.000 C 
BRANCH  20  22
ATOM     22  O   UNL     1       1.231   9.731  23.143  0.00  0.00    +0.000 OA
ATOM     23  H   UNL     1       2.021   9.956  22.635  0.00  0.00    +0.000 HD
ENDBRANCH  20  22
ENDBRANCH   1  20
BRANCH   3  24
ATOM     24  C   UNL     1       2.191   8.169  17.947  0.00  0.00    +0.000 C 
BRANCH  24  25
ATOM     25  O   UNL     1       2.632   7.064  18.735  0.00  0.00    +0.000 OA
BRANCH  25  26
ATOM     26  C   UNL     1       3.292   6.080  18.029  0.00  0.00    +0.000 A 
ATOM     27  C   UNL     1       4.469   6.299  17.295  0.00  0.00    +0.000 A 
ATOM     28  C   UNL     1       5.097   5.264  16.611  0.00  0.00    +0.000 A 
ATOM     29  C   UNL     1       4.551   3.986  16.641  0.00  0.00    +0.000 A 
ATOM     30  C   UNL     1       3.373   3.754  17.349  0.00  0.00    +0.000 A 
ATOM     31  C   UNL     1       2.723   4.794  18.042  0.00  0.00    +0.000 A 
BRANCH  31  32
ATOM     32  C   UNL     1       1.418   4.487  18.738  0.00  0.00    +0.000 C 
BRANCH  32  33
ATOM     33  C   UNL     1       1.585   4.022  20.163  0.00  0.00    +0.000 C 
ATOM     34  O   UNL     1       2.436   4.432  20.928  0.00  0.00    +0.000 OA
BRANCH  33  35
ATOM     35  O   UNL     1       0.675   3.063  20.526  0.00  0.00    +0.000 OA
ATOM     36  H   UNL     1      -0.233   3.371  20.461  0.00  0.00    +0.000 HD
ENDBRANCH  33  35
ENDBRANCH  32  33
ENDBRANCH  31  32
ENDBRANCH  25  26
ENDBRANCH  24  25
ENDBRANCH   3  24
TORSDOF 10
ENDMDL
