MODEL 1
REMARK VINA RESULT:      -8.6      0.000      0.000
REMARK  Name = 
REMARK  5 active torsions:
REMARK  status: ('A' for Active; 'I' for Inactive)
REMARK    1  A    between atoms: C_1  and  C_2
REMARK    2  A    between atoms: C_6  and  C_7
REMARK    3  A    between atoms: N_9  and  C_10
REMARK    4  A    between atoms: C_14  and  N_15
REMARK    5  A    between atoms: C_18  and  C_19
REMARK                            x       y       z     vdW  Elec       q    Type
REMARK                         _______ _______ _______ _____ _____    ______ ____
ROOT
ATOM      1  C   UNL     1       2.704   4.360  18.245  0.00  0.00    +0.000 A 
ATOM      2  C   UNL     1       1.776   3.331  18.414  0.00  0.00    +0.000 A 
ATOM      3  C   UNL     1       0.912   3.321  19.509  0.00  0.00    +0.000 A 
ATOM      4  C   UNL     1       0.965   4.347  20.447  0.00  0.00    +0.000 A 
ATOM      5  C   UNL     1       1.888   5.393  20.314  0.00  0.00    +0.000 A 
ATOM      6  C   UNL     1       2.766   5.371  19.210  0.00  0.00    +0.000 A 
ENDROOT
BRANCH   5   7
ATOM      7  N   UNL     1       1.862   6.437  21.263  0.00  0.00    +0.000 N 
ATOM      8  C   UNL     1       1.394   7.684  21.059  0.00  0.00    +0.000 A 
ATOM      9  N   UNL     1       0.660   8.168  20.083  0.00  0.00    +0.000 NA
ATOM     10  C   UNL     1       0.512   9.509  20.334  0.00  0.00    +0.000 A 
ATOM     11  C   UNL     1       1.167   9.845  21.498  0.00  0.00    +0.000 A 
ATOM     12  N   UNL     1       1.694   8.671  21.961  0.00  0.00    +0.000 N 
ATOM     13  H   UNL     1       2.161   6.147  22.188  0.00  0.00    +0.000 HD
ATOM     14  H   UNL     1       2.275   8.556  22.776  0.00  0.00    +0.000 HD
BRANCH  10  15
ATOM     15  C   UNL     1      -0.176  10.409  19.430  0.00  0.00    +0.000 A 
ATOM     16  C   UNL     1      -1.108   9.960  18.491  0.00  0.00    +0.000 A 
ATOM     17  C   UNL     1      -1.803  10.878  17.707  0.00  0.00    +0.000 A 
ATOM     18  C   UNL     1      -1.537  12.226  17.879  0.00  0.00    +0.000 A 
ATOM     19  N   UNL     1      -0.626  12.703  18.752  0.00  0.00    +0.000 NA
ATOM     20  C   UNL     1       0.035  11.783  19.504  0.00  0.00    +0.000 A 
ENDBRANCH  10  15
ENDBRANCH   5   7
BRANCH   1  23
ATOM     21  C   UNL     1       4.963   4.302  17.210  0.00  0.00    +0.000 C 
ATOM     22  O   UNL     1       5.618   4.083  18.228  0.00  0.00    +0.000 OA
ATOM     23  N   UNL     1       3.586   4.432  17.135  0.00  0.00    +0.000 N 
ATOM     24  H   UNL     1       3.159   4.408  16.218  0.00  0.00    +0.000 HD
BRANCH  21  30
ATOM     25  C   UNL     1       5.532   3.292  12.287  0.00  0.00    +0.000 C 
ATOM     26  C   UNL     1       6.001   3.933  13.560  0.00  0.00    +0.000 A 
ATOM     27  C   UNL     1       7.147   4.741  13.560  0.00  0.00    +0.000 A 
ATOM     28  C   UNL     1       7.578   5.360  14.730  0.00  0.00    +0.000 A 
ATOM     29  C   UNL     1       6.864   5.178  15.910  0.00  0.00    +0.000 A 
ATOM     30  C   UNL     1       5.719   4.369  15.932  0.00  0.00    +0.000 A 
ATOM     31  C   UNL     1       5.285   3.746  14.756  0.00  0.00    +0.000 A 
ENDBRANCH  21  30
ENDBRANCH   1  23
TORSDOF 4
ENDMDL
MODEL 2
REMARK VINA RESULT:      -8.6      3.522     10.136
REMARK  Name = 
REMARK  5 active torsions:
REMARK  status: ('A' for Active; 'I' for Inactive)
REMARK    1  A    between atoms: C_1  and  C_2
REMARK    2  A    between atoms: C_6  and  C_7
REMARK    3  A    between atoms: N_9  and  C_10
REMARK    4  A    between atoms: C_14  and  N_15
REMARK    5  A    between atoms: C_18  and  C_19
REMARK                            x       y       z     vdW  Elec       q    Type
REMARK                         _______ _______ _______ _____ _____    ______ ____
ROOT
ATOM      1  C   UNL     1       0.445  10.182  19.999  0.00  0.00    +0.000 A 
ATOM      2  C   UNL     1       0.840  10.473  18.692  0.00  0.00    +0.000 A 
ATOM      3  C   UNL     1       1.638   9.584  17.972  0.00  0.00    +0.000 A 
ATOM      4  C   UNL     1       2.047   8.388  18.553  0.00  0.00    +0.000 A 
ATOM      5  C   UNL     1       1.675   8.065  19.865  0.00  0.00    +0.000 A 
ATOM      6  C   UNL     1       0.885   8.989  20.581  0.00  0.00    +0.000 A 
ENDROOT
BRANCH   5   7
ATOM      7  N   UNL     1       2.070   6.815  20.386  0.00  0.00    +0.000 N 
ATOM      8  C   UNL     1       2.914   5.942  19.801  0.00  0.00    +0.000 A 
ATOM      9  N   UNL     1       3.736   6.102  18.788  0.00  0.00    +0.000 NA
ATOM     10  C   UNL     1       4.323   4.882  18.565  0.00  0.00    +0.000 A 
ATOM     11  C   UNL     1       3.849   3.959  19.472  0.00  0.00    +0.000 A 
ATOM     12  N   UNL     1       2.982   4.655  20.268  0.00  0.00    +0.000 N 
ATOM     13  H   UNL     1       1.722   6.640  21.322  0.00  0.00    +0.000 HD
ATOM     14  H   UNL     1       2.420   4.278  21.014  0.00  0.00    +0.000 HD
BRANCH  10  15
ATOM     15  C   UNL     1       5.239   4.636  17.470  0.00  0.00    +0.000 A 
ATOM     16  C   UNL     1       4.800   4.342  16.177  0.00  0.00    +0.000 A 
ATOM     17  C   UNL     1       5.723   4.201  15.143  0.00  0.00    +0.000 A 
ATOM     18  C   UNL     1       7.069   4.349  15.438  0.00  0.00    +0.000 A 
ATOM     19  N   UNL     1       7.540   4.604  16.675  0.00  0.00    +0.000 NA
ATOM     20  C   UNL     1       6.615   4.738  17.662  0.00  0.00    +0.000 A 
ENDBRANCH  10  15
ENDBRANCH   5   7
BRANCH   1  23
ATOM     21  C   UNL     1      -0.381  11.120  22.147  0.00  0.00    +0.000 C 
ATOM     22  O   UNL     1       0.354  10.492  22.907  0.00  0.00    +0.000 OA
ATOM     23  N   UNL     1      -0.389  11.039  20.764  0.00  0.00    +0.000 N 
ATOM     24  H   UNL     1      -0.894  11.750  20.253  0.00  0.00    +0.000 HD
BRANCH  21  30
ATOM     25  C   UNL     1      -4.623  12.344  24.615  0.00  0.00    +0.000 C 
ATOM     26  C   UNL     1      -3.311  12.719  23.989  0.00  0.00    +0.000 A 
ATOM     27  C   UNL     1      -2.841  14.037  24.078  0.00  0.00    +0.000 A 
ATOM     28  C   UNL     1      -1.614  14.391  23.523  0.00  0.00    +0.000 A 
ATOM     29  C   UNL     1      -0.846  13.428  22.876  0.00  0.00    +0.000 A 
ATOM     30  C   UNL     1      -1.302  12.105  22.771  0.00  0.00    +0.000 A 
ATOM     31  C   UNL     1      -2.536  11.749  23.328  0.00  0.00    +0.000 A 
ENDBRANCH  21  30
ENDBRANCH   1  23
TORSDOF 4
ENDMDL
MODEL 3
REMARK VINA RESULT:      -8.5      3.401     10.042
REMARK  Name = 
REMARK  5 active torsions:
REMARK  status: ('A' for Active; 'I' for Inactive)
REMARK    1  A    between atoms: C_1  and  C_2
REMARK    2  A    between atoms: C_6  and  C_7
REMARK    3  A    between atoms: N_9  and  C_10
REMARK    4  A    between atoms: C_14  and  N_15
REMARK    5  A    between atoms: C_18  and  C_19
REMARK                            x       y       z     vdW  Elec       q    Type
REMARK                         _______ _______ _______ _____ _____    ______ ____
ROOT
ATOM      1  C   UNL     1       0.327   9.886  19.677  0.00  0.00    +0.000 A 
ATOM      2  C   UNL     1       0.837  10.366  18.469  0.00  0.00    +0.000 A 
ATOM      3  C   UNL     1       1.872   9.698  17.815  0.00  0.00    +0.000 A 
ATOM      4  C   UNL     1       2.407   8.536  18.362  0.00  0.00    +0.000 A 
ATOM      5  C   UNL     1       1.924   8.028  19.576  0.00  0.00    +0.000 A 
ATOM      6  C   UNL     1       0.891   8.732  20.230  0.00  0.00    +0.000 A 
ENDROOT
BRANCH   5   7
ATOM      7  N   UNL     1       2.463   6.816  20.058  0.00  0.00    +0.000 N 
ATOM      8  C   UNL     1       3.322   6.013  19.400  0.00  0.00    +0.000 A 
ATOM      9  N   UNL     1       4.039   6.235  18.321  0.00  0.00    +0.000 NA
ATOM     10  C   UNL     1       4.701   5.065  18.046  0.00  0.00    +0.000 A 
ATOM     11  C   UNL     1       4.384   4.111  18.987  0.00  0.00    +0.000 A 
ATOM     12  N   UNL     1       3.535   4.738  19.856  0.00  0.00    +0.000 N 
ATOM     13  H   UNL     1       2.212   6.618  21.020  0.00  0.00    +0.000 HD
ATOM     14  H   UNL     1       3.072   4.319  20.647  0.00  0.00    +0.000 HD
BRANCH  10  15
ATOM     15  C   UNL     1       5.538   4.890  16.875  0.00  0.00    +0.000 A 
ATOM     16  C   UNL     1       5.198   4.022  15.834  0.00  0.00    +0.000 A 
ATOM     17  C   UNL     1       5.994   3.959  14.693  0.00  0.00    +0.000 A 
ATOM     18  C   UNL     1       7.121   4.762  14.631  0.00  0.00    +0.000 A 
ATOM     19  N   UNL     1       7.503   5.592  15.622  0.00  0.00    +0.000 NA
ATOM     20  C   UNL     1       6.705   5.634  16.722  0.00  0.00    +0.000 A 
ENDBRANCH  10  15
ENDBRANCH   5   7
BRANCH   1  23
ATOM     21  C   UNL     1      -0.597  11.526  21.300  0.00  0.00    +0.000 C 
ATOM     22  O   UNL     1       0.463  12.048  21.645  0.00  0.00    +0.000 OA
ATOM     23  N   UNL     1      -0.743  10.512  20.368  0.00  0.00    +0.000 N 
ATOM     24  H   UNL     1      -1.675  10.315  20.028  0.00  0.00    +0.000 HD
BRANCH  21  30
ATOM     25  C   UNL     1      -5.093  13.814  20.940  0.00  0.00    +0.000 C 
ATOM     26  C   UNL     1      -4.019  13.146  21.748  0.00  0.00    +0.000 A 
ATOM     27  C   UNL     1      -4.211  12.913  23.117  0.00  0.00    +0.000 A 
ATOM     28  C   UNL     1      -3.231  12.272  23.871  0.00  0.00    +0.000 A 
ATOM     29  C   UNL     1      -2.052  11.855  23.260  0.00  0.00    +0.000 A 
ATOM     30  C   UNL     1      -1.839  12.084  21.892  0.00  0.00    +0.000 A 
ATOM     31  C   UNL     1      -2.824  12.729  21.134  0.00  0.00    +0.000 A 
ENDBRANCH  21  30
ENDBRANCH   1  23
TORSDOF 4
ENDMDL
MODEL 4
REMARK VINA RESULT:      -8.3      1.225      1.642
REMARK  Name = 
REMARK  5 active torsions:
REMARK  status: ('A' for Active; 'I' for Inactive)
REMARK    1  A    between atoms: C_1  and  C_2
REMARK    2  A    between atoms: C_6  and  C_7
REMARK    3  A    between atoms: N_9  and  C_10
REMARK    4  A    between atoms: C_14  and  N_15
REMARK    5  A    between atoms: C_18  and  C_19
REMARK                            x       y       z     vdW  Elec       q    Type
REMARK                         _______ _______ _______ _____ _____    ______ ____
ROOT
ATOM      1  C   UNL     1       2.992   5.513  18.628  0.00  0.00    +0.000 A 
ATOM      2  C   UNL     1       2.330   4.444  19.234  0.00  0.00    +0.000 A 
ATOM      3  C   UNL     1       1.519   4.645  20.350  0.00  0.00    +0.000 A 
ATOM      4  C   UNL     1       1.356   5.926  20.871  0.00  0.00    +0.000 A 
ATOM      5  C   UNL     1       2.010   7.022  20.292  0.00  0.00    +0.000 A 
ATOM      6  C   UNL     1       2.842   6.791  19.177  0.00  0.00    +0.000 A 
ENDROOT
BRANCH   5   7
ATOM      7  N   UNL     1       1.766   8.306  20.825  0.00  0.00    +0.000 N 
ATOM      8  C   UNL     1       0.888   9.210  20.348  0.00  0.00    +0.000 A 
ATOM      9  N   UNL     1      -0.089   9.072  19.480  0.00  0.00    +0.000 NA
ATOM     10  C   UNL     1      -0.638  10.318  19.309  0.00  0.00    +0.000 A 
ATOM     11  C   UNL     1       0.019  11.234  20.100  0.00  0.00    +0.000 A 
ATOM     12  N   UNL     1       0.962  10.510  20.775  0.00  0.00    +0.000 N 
ATOM     13  H   UNL     1       2.265   8.484  21.690  0.00  0.00    +0.000 HD
ATOM     14  H   UNL     1       1.652  10.874  21.414  0.00  0.00    +0.000 HD
BRANCH  10  15
ATOM     15  C   UNL     1      -1.700  10.588  18.360  0.00  0.00    +0.000 A 
ATOM     16  C   UNL     1      -1.794   9.926  17.133  0.00  0.00    +0.000 A 
ATOM     17  C   UNL     1      -2.884  10.162  16.297  0.00  0.00    +0.000 A 
ATOM     18  C   UNL     1      -3.848  11.065  16.712  0.00  0.00    +0.000 A 
ATOM     19  N   UNL     1      -3.784  11.748  17.873  0.00  0.00    +0.000 NA
ATOM     20  C   UNL     1      -2.710  11.495  18.668  0.00  0.00    +0.000 A 
ENDBRANCH  10  15
ENDBRANCH   5   7
BRANCH   1  23
ATOM     21  C   UNL     1       5.001   4.668  17.435  0.00  0.00    +0.000 C 
ATOM     22  O   UNL     1       5.518   4.059  18.371  0.00  0.00    +0.000 OA
ATOM     23  N   UNL     1       3.806   5.366  17.475  0.00  0.00    +0.000 N 
ATOM     24  H   UNL     1       3.395   5.647  16.594  0.00  0.00    +0.000 HD
BRANCH  21  30
ATOM     25  C   UNL     1       5.202   3.408  12.541  0.00  0.00    +0.000 C 
ATOM     26  C   UNL     1       5.808   4.033  13.763  0.00  0.00    +0.000 A 
ATOM     27  C   UNL     1       7.043   4.692  13.678  0.00  0.00    +0.000 A 
ATOM     28  C   UNL     1       7.603   5.296  14.799  0.00  0.00    +0.000 A 
ATOM     29  C   UNL     1       6.931   5.250  16.017  0.00  0.00    +0.000 A 
ATOM     30  C   UNL     1       5.696   4.591  16.124  0.00  0.00    +0.000 A 
ATOM     31  C   UNL     1       5.133   3.982  14.997  0.00  0.00    +0.000 A 
ENDBRANCH  21  30
ENDBRANCH   1  23
TORSDOF 4
ENDMDL
MODEL 5
REMARK VINA RESULT:      -8.3      3.450     10.159
REMARK  Name = 
REMARK  5 active torsions:
REMARK  status: ('A' for Active; 'I' for Inactive)
REMARK    1  A    between atoms: C_1  and  C_2
REMARK    2  A    between atoms: C_6  and  C_7
REMARK    3  A    between atoms: N_9  and  C_10
REMARK    4  A    between atoms: C_14  and  N_15
REMARK    5  A    between atoms: C_18  and  C_19
REMARK                            x       y       z     vdW  Elec       q    Type
REMARK                         _______ _______ _______ _____ _____    ______ ____
ROOT
ATOM      1  C   UNL     1       0.509  10.209  20.058  0.00  0.00    +0.000 A 
ATOM      2  C   UNL     1       0.903  10.514  18.754  0.00  0.00    +0.000 A 
ATOM      3  C   UNL     1       1.681   9.624  18.016  0.00  0.00    +0.000 A 
ATOM      4  C   UNL     1       2.071   8.410  18.575  0.00  0.00    +0.000 A 
ATOM      5  C   UNL     1       1.699   8.073  19.883  0.00  0.00    +0.000 A 
ATOM      6  C   UNL     1       0.930   8.998  20.619  0.00  0.00    +0.000 A 
ENDROOT
BRANCH   5   7
ATOM      7  N   UNL     1       2.074   6.806  20.382  0.00  0.00    +0.000 N 
ATOM      8  C   UNL     1       2.910   5.935  19.784  0.00  0.00    +0.000 A 
ATOM      9  N   UNL     1       3.742   6.104  18.781  0.00  0.00    +0.000 NA
ATOM     10  C   UNL     1       4.313   4.880  18.537  0.00  0.00    +0.000 A 
ATOM     11  C   UNL     1       3.821   3.946  19.421  0.00  0.00    +0.000 A 
ATOM     12  N   UNL     1       2.958   4.638  20.225  0.00  0.00    +0.000 N 
ATOM     13  H   UNL     1       1.717   6.618  21.311  0.00  0.00    +0.000 HD
ATOM     14  H   UNL     1       2.386   4.253  20.961  0.00  0.00    +0.000 HD
BRANCH  10  15
ATOM     15  C   UNL     1       5.234   4.644  17.443  0.00  0.00    +0.000 A 
ATOM     16  C   UNL     1       4.802   4.300  16.160  0.00  0.00    +0.000 A 
ATOM     17  C   UNL     1       5.725   4.171  15.126  0.00  0.00    +0.000 A 
ATOM     18  C   UNL     1       7.065   4.380  15.409  0.00  0.00    +0.000 A 
ATOM     19  N   UNL     1       7.531   4.685  16.637  0.00  0.00    +0.000 NA
ATOM     20  C   UNL     1       6.605   4.806  17.625  0.00  0.00    +0.000 A 
ENDBRANCH  10  15
ENDBRANCH   5   7
BRANCH   1  23
ATOM     21  C   UNL     1      -0.334  11.083  22.226  0.00  0.00    +0.000 C 
ATOM     22  O   UNL     1       0.348  10.385  22.975  0.00  0.00    +0.000 OA
ATOM     23  N   UNL     1      -0.305  11.068  20.841  0.00  0.00    +0.000 N 
ATOM     24  H   UNL     1      -0.762  11.826  20.352  0.00  0.00    +0.000 HD
BRANCH  21  30
ATOM     25  C   UNL     1      -1.475  15.793  23.674  0.00  0.00    +0.000 C 
ATOM     26  C   UNL     1      -1.819  14.338  23.546  0.00  0.00    +0.000 A 
ATOM     27  C   UNL     1      -3.083  13.876  23.939  0.00  0.00    +0.000 A 
ATOM     28  C   UNL     1      -3.421  12.533  23.802  0.00  0.00    +0.000 A 
ATOM     29  C   UNL     1      -2.498  11.639  23.267  0.00  0.00    +0.000 A 
ATOM     30  C   UNL     1      -1.226  12.081  22.873  0.00  0.00    +0.000 A 
ATOM     31  C   UNL     1      -0.885  13.431  23.011  0.00  0.00    +0.000 A 
ENDBRANCH  21  30
ENDBRANCH   1  23
TORSDOF 4
ENDMDL
MODEL 6
REMARK VINA RESULT:      -8.2      3.921      7.006
REMARK  Name = 
REMARK  5 active torsions:
REMARK  status: ('A' for Active; 'I' for Inactive)
REMARK    1  A    between atoms: C_1  and  C_2
REMARK    2  A    between atoms: C_6  and  C_7
REMARK    3  A    between atoms: N_9  and  C_10
REMARK    4  A    between atoms: C_14  and  N_15
REMARK    5  A    between atoms: C_18  and  C_19
REMARK                            x       y       z     vdW  Elec       q    Type
REMARK                         _______ _______ _______ _____ _____    ______ ____
ROOT
ATOM      1  C   UNL     1       0.494  10.482  18.860  0.00  0.00    +0.000 A 
ATOM      2  C   UNL     1       1.097  11.683  19.237  0.00  0.00    +0.000 A 
ATOM      3  C   UNL     1       0.455  12.903  19.024  0.00  0.00    +0.000 A 
ATOM      4  C   UNL     1      -0.805  12.933  18.435  0.00  0.00    +0.000 A 
ATOM      5  C   UNL     1      -1.439  11.747  18.039  0.00  0.00    +0.000 A 
ATOM      6  C   UNL     1      -0.761  10.527  18.244  0.00  0.00    +0.000 A 
ENDROOT
BRANCH   5   7
ATOM      7  N   UNL     1      -2.740  11.830  17.498  0.00  0.00    +0.000 N 
ATOM      8  C   UNL     1      -3.887  11.923  18.199  0.00  0.00    +0.000 A 
ATOM      9  N   UNL     1      -4.088  12.196  19.469  0.00  0.00    +0.000 NA
ATOM     10  C   UNL     1      -5.442  12.111  19.675  0.00  0.00    +0.000 A 
ATOM     11  C   UNL     1      -6.079  11.786  18.499  0.00  0.00    +0.000 A 
ATOM     12  N   UNL     1      -5.082  11.702  17.566  0.00  0.00    +0.000 N 
ATOM     13  H   UNL     1      -2.751  11.901  16.487  0.00  0.00    +0.000 HD
ATOM     14  H   UNL     1      -5.188  11.440  16.599  0.00  0.00    +0.000 HD
BRANCH  10  15
ATOM     15  C   UNL     1      -6.051  12.271  20.981  0.00  0.00    +0.000 A 
ATOM     16  C   UNL     1      -7.402  12.002  21.216  0.00  0.00    +0.000 A 
ATOM     17  C   UNL     1      -7.914  12.088  22.508  0.00  0.00    +0.000 A 
ATOM     18  C   UNL     1      -7.057  12.454  23.533  0.00  0.00    +0.000 A 
ATOM     19  N   UNL     1      -5.755  12.750  23.349  0.00  0.00    +0.000 NA
ATOM     20  C   UNL     1      -5.284  12.655  22.077  0.00  0.00    +0.000 A 
ENDBRANCH  10  15
ENDBRANCH   5   7
BRANCH   1  23
ATOM     21  C   UNL     1       1.976   8.596  18.210  0.00  0.00    +0.000 C 
ATOM     22  O   UNL     1       2.389   9.056  17.146  0.00  0.00    +0.000 OA
ATOM     23  N   UNL     1       1.092   9.214  19.079  0.00  0.00    +0.000 N 
ATOM     24  H   UNL     1       0.993   8.823  20.007  0.00  0.00    +0.000 HD
BRANCH  21  30
ATOM     25  C   UNL     1       5.148   4.695  17.664  0.00  0.00    +0.000 C 
ATOM     26  C   UNL     1       4.066   5.414  18.415  0.00  0.00    +0.000 A 
ATOM     27  C   UNL     1       3.607   4.911  19.640  0.00  0.00    +0.000 A 
ATOM     28  C   UNL     1       2.621   5.582  20.357  0.00  0.00    +0.000 A 
ATOM     29  C   UNL     1       2.087   6.766  19.856  0.00  0.00    +0.000 A 
ATOM     30  C   UNL     1       2.529   7.282  18.628  0.00  0.00    +0.000 A 
ATOM     31  C   UNL     1       3.520   6.607  17.907  0.00  0.00    +0.000 A 
ENDBRANCH  21  30
ENDBRANCH   1  23
TORSDOF 4
ENDMDL
MODEL 7
REMARK VINA RESULT:      -8.2      3.735     10.286
REMARK  Name = 
REMARK  5 active torsions:
REMARK  status: ('A' for Active; 'I' for Inactive)
REMARK    1  A    between atoms: C_1  and  C_2
REMARK    2  A    between atoms: C_6  and  C_7
REMARK    3  A    between atoms: N_9  and  C_10
REMARK    4  A    between atoms: C_14  and  N_15
REMARK    5  A    between atoms: C_18  and  C_19
REMARK                            x       y       z     vdW  Elec       q    Type
REMARK                         _______ _______ _______ _____ _____    ______ ____
ROOT
ATOM      1  C   UNL     1      -0.034  10.279  20.429  0.00  0.00    +0.000 A 
ATOM      2  C   UNL     1       0.113  10.582  19.074  0.00  0.00    +0.000 A 
ATOM      3  C   UNL     1       0.899   9.782  18.244  0.00  0.00    +0.000 A 
ATOM      4  C   UNL     1       1.545   8.664  18.763  0.00  0.00    +0.000 A 
ATOM      5  C   UNL     1       1.425   8.333  20.119  0.00  0.00    +0.000 A 
ATOM      6  C   UNL     1       0.642   9.167  20.944  0.00  0.00    +0.000 A 
ENDROOT
BRANCH   5   7
ATOM      7  N   UNL     1       2.055   7.157  20.581  0.00  0.00    +0.000 N 
ATOM      8  C   UNL     1       2.824   6.328  19.847  0.00  0.00    +0.000 A 
ATOM      9  N   UNL     1       3.368   6.497  18.663  0.00  0.00    +0.000 NA
ATOM     10  C   UNL     1       4.007   5.323  18.356  0.00  0.00    +0.000 A 
ATOM     11  C   UNL     1       3.853   4.420  19.384  0.00  0.00    +0.000 A 
ATOM     12  N   UNL     1       3.128   5.084  20.335  0.00  0.00    +0.000 N 
ATOM     13  H   UNL     1       1.953   7.011  21.579  0.00  0.00    +0.000 HD
ATOM     14  H   UNL     1       2.797   4.706  21.208  0.00  0.00    +0.000 HD
BRANCH  10  15
ATOM     15  C   UNL     1       4.664   5.092  17.085  0.00  0.00    +0.000 A 
ATOM     16  C   UNL     1       4.981   6.130  16.205  0.00  0.00    +0.000 A 
ATOM     17  C   UNL     1       5.690   5.861  15.037  0.00  0.00    +0.000 A 
ATOM     18  C   UNL     1       6.055   4.550  14.776  0.00  0.00    +0.000 A 
ATOM     19  N   UNL     1       5.747   3.513  15.581  0.00  0.00    +0.000 NA
ATOM     20  C   UNL     1       5.056   3.808  16.714  0.00  0.00    +0.000 A 
ENDBRANCH  10  15
ENDBRANCH   5   7
BRANCH   1  23
ATOM     21  C   UNL     1      -0.432  12.192  21.965  0.00  0.00    +0.000 C 
ATOM     22  O   UNL     1       0.670  12.729  21.866  0.00  0.00    +0.000 OA
ATOM     23  N   UNL     1      -0.844  11.043  21.309  0.00  0.00    +0.000 N 
ATOM     24  H   UNL     1      -1.831  10.823  21.319  0.00  0.00    +0.000 HD
BRANCH  21  30
ATOM     25  C   UNL     1      -4.744  12.294  24.605  0.00  0.00    +0.000 C 
ATOM     26  C   UNL     1      -3.480  12.946  24.127  0.00  0.00    +0.000 A 
ATOM     27  C   UNL     1      -3.135  14.228  24.580  0.00  0.00    +0.000 A 
ATOM     28  C   UNL     1      -1.953  14.832  24.161  0.00  0.00    +0.000 A 
ATOM     29  C   UNL     1      -1.104  14.159  23.288  0.00  0.00    +0.000 A 
ATOM     30  C   UNL     1      -1.435  12.879  22.819  0.00  0.00    +0.000 A 
ATOM     31  C   UNL     1      -2.624  12.271  23.239  0.00  0.00    +0.000 A 
ENDBRANCH  21  30
ENDBRANCH   1  23
TORSDOF 4
ENDMDL
MODEL 8
REMARK VINA RESULT:      -8.2      4.007      7.185
REMARK  Name = 
REMARK  5 active torsions:
REMARK  status: ('A' for Active; 'I' for Inactive)
REMARK    1  A    between atoms: C_1  and  C_2
REMARK    2  A    between atoms: C_6  and  C_7
REMARK    3  A    between atoms: N_9  and  C_10
REMARK    4  A    between atoms: C_14  and  N_15
REMARK    5  A    between atoms: C_18  and  C_19
REMARK                            x       y       z     vdW  Elec       q    Type
REMARK                         _______ _______ _______ _____ _____    ______ ____
ROOT
ATOM      1  C   UNL     1       0.595  10.618  18.879  0.00  0.00    +0.000 A 
ATOM      2  C   UNL     1       1.229  11.829  19.162  0.00  0.00    +0.000 A 
ATOM      3  C   UNL     1       0.575  13.043  18.954  0.00  0.00    +0.000 A 
ATOM      4  C   UNL     1      -0.727  13.058  18.464  0.00  0.00    +0.000 A 
ATOM      5  C   UNL     1      -1.393  11.862  18.163  0.00  0.00    +0.000 A 
ATOM      6  C   UNL     1      -0.704  10.647  18.361  0.00  0.00    +0.000 A 
ENDROOT
BRANCH   5   7
ATOM      7  N   UNL     1      -2.732  11.932  17.721  0.00  0.00    +0.000 N 
ATOM      8  C   UNL     1      -3.821  12.043  18.506  0.00  0.00    +0.000 A 
ATOM      9  N   UNL     1      -3.925  12.347  19.781  0.00  0.00    +0.000 NA
ATOM     10  C   UNL     1      -5.259  12.269  20.093  0.00  0.00    +0.000 A 
ATOM     11  C   UNL     1      -5.984  11.915  18.977  0.00  0.00    +0.000 A 
ATOM     12  N   UNL     1      -5.062  11.806  17.973  0.00  0.00    +0.000 N 
ATOM     13  H   UNL     1      -2.820  11.977  16.713  0.00  0.00    +0.000 HD
ATOM     14  H   UNL     1      -5.241  11.520  17.024  0.00  0.00    +0.000 HD
BRANCH  10  15
ATOM     15  C   UNL     1      -5.766  12.462  21.437  0.00  0.00    +0.000 A 
ATOM     16  C   UNL     1      -4.961  12.921  22.483  0.00  0.00    +0.000 A 
ATOM     17  C   UNL     1      -5.522  13.171  23.734  0.00  0.00    +0.000 A 
ATOM     18  C   UNL     1      -6.877  12.942  23.905  0.00  0.00    +0.000 A 
ATOM     19  N   UNL     1      -7.686  12.473  22.934  0.00  0.00    +0.000 NA
ATOM     20  C   UNL     1      -7.110  12.240  21.724  0.00  0.00    +0.000 A 
ENDBRANCH  10  15
ENDBRANCH   5   7
BRANCH   1  23
ATOM     21  C   UNL     1       2.039   8.714  18.197  0.00  0.00    +0.000 C 
ATOM     22  O   UNL     1       2.392   9.144  17.100  0.00  0.00    +0.000 OA
ATOM     23  N   UNL     1       1.206   9.356  19.098  0.00  0.00    +0.000 N 
ATOM     24  H   UNL     1       1.159   8.990  20.040  0.00  0.00    +0.000 HD
BRANCH  21  30
ATOM     25  C   UNL     1       2.170   4.633  21.183  0.00  0.00    +0.000 C 
ATOM     26  C   UNL     1       2.679   5.422  20.012  0.00  0.00    +0.000 A 
ATOM     27  C   UNL     1       3.672   4.885  19.180  0.00  0.00    +0.000 A 
ATOM     28  C   UNL     1       4.134   5.598  18.077  0.00  0.00    +0.000 A 
ATOM     29  C   UNL     1       3.606   6.854  17.796  0.00  0.00    +0.000 A 
ATOM     30  C   UNL     1       2.616   7.411  18.620  0.00  0.00    +0.000 A 
ATOM     31  C   UNL     1       2.151   6.695  19.729  0.00  0.00    +0.000 A 
ENDBRANCH  21  30
ENDBRANCH   1  23
TORSDOF 4
ENDMDL
MODEL 9
REMARK VINA RESULT:      -8.2      4.092      6.015
REMARK  Name = 
REMARK  5 active torsions:
REMARK  status: ('A' for Active; 'I' for Inactive)
REMARK    1  A    between atoms: C_1  and  C_2
REMARK    2  A    between atoms: C_6  and  C_7
REMARK    3  A    between atoms: N_9  and  C_10
REMARK    4  A    between atoms: C_14  and  N_15
REMARK    5  A    between atoms: C_18  and  C_19
REMARK                            x       y       z     vdW  Elec       q    Type
REMARK                         _______ _______ _______ _____ _____    ______ ____
ROOT
ATOM      1  C   UNL     1       6.770   6.732  17.009  0.00  0.00    +0.000 A 
ATOM      2  C   UNL     1       7.192   5.959  15.926  0.00  0.00    +0.000 A 
ATOM      3  C   UNL     1       6.631   4.707  15.679  0.00  0.00    +0.000 A 
ATOM      4  C   UNL     1       5.633   4.214  16.515  0.00  0.00    +0.000 A 
ATOM      5  C   UNL     1       5.188   4.959  17.616  0.00  0.00    +0.000 A 
ATOM      6  C   UNL     1       5.786   6.214  17.858  0.00  0.00    +0.000 A 
ENDROOT
BRANCH   5   7
ATOM      7  N   UNL     1       4.136   4.437  18.398  0.00  0.00    +0.000 N 
ATOM      8  C   UNL     1       3.246   5.155  19.111  0.00  0.00    +0.000 A 
ATOM      9  N   UNL     1       2.969   6.440  19.081  0.00  0.00    +0.000 NA
ATOM     10  C   UNL     1       2.020   6.657  20.048  0.00  0.00    +0.000 A 
ATOM     11  C   UNL     1       1.707   5.472  20.675  0.00  0.00    +0.000 A 
ATOM     12  N   UNL     1       2.469   4.525  20.048  0.00  0.00    +0.000 N 
ATOM     13  H   UNL     1       4.037   3.431  18.320  0.00  0.00    +0.000 HD
ATOM     14  H   UNL     1       2.522   3.547  20.283  0.00  0.00    +0.000 HD
BRANCH  10  15
ATOM     15  C   UNL     1       1.515   7.976  20.374  0.00  0.00    +0.000 A 
ATOM     16  C   UNL     1       1.166   8.344  21.676  0.00  0.00    +0.000 A 
ATOM     17  C   UNL     1       0.769   9.651  21.946  0.00  0.00    +0.000 A 
ATOM     18  C   UNL     1       0.721  10.555  20.898  0.00  0.00    +0.000 A 
ATOM     19  N   UNL     1       1.021  10.238  19.622  0.00  0.00    +0.000 NA
ATOM     20  C   UNL     1       1.407   8.955  19.390  0.00  0.00    +0.000 A 
ENDBRANCH  10  15
ENDBRANCH   5   7
BRANCH   1  23
ATOM     21  C   UNL     1       8.191   8.312  18.298  0.00  0.00    +0.000 C 
ATOM     22  O   UNL     1       8.690   7.502  19.079  0.00  0.00    +0.000 OA
ATOM     23  N   UNL     1       7.289   8.023  17.287  0.00  0.00    +0.000 N 
ATOM     24  H   UNL     1       7.113   8.738  16.594  0.00  0.00    +0.000 HD
BRANCH  21  30
ATOM     25  C   UNL     1      11.254  11.885  20.149  0.00  0.00    +0.000 C 
ATOM     26  C   UNL     1      10.130  11.452  19.254  0.00  0.00    +0.000 A 
ATOM     27  C   UNL     1       9.532  12.372  18.380  0.00  0.00    +0.000 A 
ATOM     28  C   UNL     1       8.505  11.975  17.529  0.00  0.00    +0.000 A 
ATOM     29  C   UNL     1       8.068  10.654  17.542  0.00  0.00    +0.000 A 
ATOM     30  C   UNL     1       8.650   9.720  18.413  0.00  0.00    +0.000 A 
ATOM     31  C   UNL     1       9.682  10.118  19.270  0.00  0.00    +0.000 A 
ENDBRANCH  21  30
ENDBRANCH   1  23
TORSDOF 4
ENDMDL
