MODEL 1
REMARK VINA RESULT:      -8.2      0.000      0.000
REMARK  Name = 
REMARK  7 active torsions:
REMARK  status: ('A' for Active; 'I' for Inactive)
REMARK    1  A    between atoms: N_1  and  C_2
REMARK    2  A    between atoms: C_2  and  C_3
REMARK    3  A    between atoms: C_5  and  O_6
REMARK    4  A    between atoms: O_6  and  C_7
REMARK    5  A    between atoms: C_11  and  C_12
REMARK    6  A    between atoms: N_14  and  C_15
REMARK    7  A    between atoms: C_15  and  C_16
REMARK                            x       y       z     vdW  Elec       q    Type
REMARK                         _______ _______ _______ _____ _____    ______ ____
ROOT
ATOM      1  C   UNL     1       3.360   4.782  18.727  0.00  0.00    +0.000 A 
ATOM      2  C   UNL     1       2.891   4.428  20.000  0.00  0.00    +0.000 A 
ATOM      3  C   UNL     1       2.168   5.339  20.763  0.00  0.00    +0.000 A 
ATOM      4  C   UNL     1       1.900   6.612  20.268  0.00  0.00    +0.000 A 
ATOM      5  C   UNL     1       2.340   6.996  18.979  0.00  0.00    +0.000 A 
ATOM      6  C   UNL     1       3.071   6.056  18.216  0.00  0.00    +0.000 A 
ENDROOT
BRANCH   5   7
ATOM      7  C   UNL     1       2.026   8.384  18.475  0.00  0.00    +0.000 C 
ATOM      8  O   UNL     1       2.441   8.708  17.367  0.00  0.00    +0.000 OA
ATOM      9  N   UNL     1       1.297   9.284  19.206  0.00  0.00    +0.000 N 
ATOM     10  H   UNL     1       0.938   9.032  20.136  0.00  0.00    +0.000 HD
BRANCH   9  11
ATOM     11  C   UNL     1       0.965  10.625  18.747  0.00  0.00    +0.000 C 
BRANCH  11  12
ATOM     12  C   UNL     1      -0.520  10.753  18.492  0.00  0.00    +0.000 A 
ATOM     13  C   UNL     1      -1.189   9.911  17.586  0.00  0.00    +0.000 A 
ATOM     14  C   UNL     1      -2.559  10.078  17.355  0.00  0.00    +0.000 A 
ATOM     15  C   UNL     1      -3.250  11.082  18.036  0.00  0.00    +0.000 A 
ATOM     16  N   UNL     1      -2.592  11.883  18.915  0.00  0.00    +0.000 NA
ATOM     17  C   UNL     1      -1.261  11.745  19.155  0.00  0.00    +0.000 A 
ENDBRANCH  11  12
ENDBRANCH   9  11
ENDBRANCH   5   7
BRANCH   1  18
ATOM     18  O   UNL     1       4.080   3.906  17.978  0.00  0.00    +0.000 OA
BRANCH  18  21
ATOM     19  C   UNL     1       6.727   4.516  15.544  0.00  0.00    +0.000 A 
ATOM     20  C   UNL     1       5.454   4.245  16.061  0.00  0.00    +0.000 A 
ATOM     21  C   UNL     1       5.295   4.190  17.443  0.00  0.00    +0.000 A 
ATOM     22  N   UNL     1       6.370   4.424  18.251  0.00  0.00    +0.000 NA
ATOM     23  C   UNL     1       7.593   4.701  17.736  0.00  0.00    +0.000 A 
ATOM     24  N   UNL     1       7.768   4.740  16.393  0.00  0.00    +0.000 NA
BRANCH  19  25
ATOM     25  C   UNL     1       6.952   4.557  14.063  0.00  0.00    +0.000 C 
BRANCH  25  26
ATOM     26  N   UNL     1       6.233   3.464  13.416  0.00  0.00    +0.000 NA
ATOM     27  H   UNL     1       6.694   2.563  13.683  0.00  0.00    +0.000 HD
ATOM     28  H   UNL     1       6.296   3.564  12.377  0.00  0.00    +0.000 HD
ENDBRANCH  25  26
ENDBRANCH  19  25
ENDBRANCH  18  21
ENDBRANCH   1  18
TORSDOF 7
ENDMDL
MODEL 2
REMARK VINA RESULT:      -7.8      1.068      2.155
REMARK  Name = 
REMARK  7 active torsions:
REMARK  status: ('A' for Active; 'I' for Inactive)
REMARK    1  A    between atoms: N_1  and  C_2
REMARK    2  A    between atoms: C_2  and  C_3
REMARK    3  A    between atoms: C_5  and  O_6
REMARK    4  A    between atoms: O_6  and  C_7
REMARK    5  A    between atoms: C_11  and  C_12
REMARK    6  A    between atoms: N_14  and  C_15
REMARK    7  A    between atoms: C_15  and  C_16
REMARK                            x       y       z     vdW  Elec       q    Type
REMARK                         _______ _______ _______ _____ _____    ______ ____
ROOT
ATOM      1  C   UNL     1       3.046   5.283  18.638  0.00  0.00    +0.000 A 
ATOM      2  C   UNL     1       2.680   4.899  19.937  0.00  0.00    +0.000 A 
ATOM      3  C   UNL     1       1.983   5.776  20.761  0.00  0.00    +0.000 A 
ATOM      4  C   UNL     1       1.639   7.045  20.302  0.00  0.00    +0.000 A 
ATOM      5  C   UNL     1       1.972   7.457  18.991  0.00  0.00    +0.000 A 
ATOM      6  C   UNL     1       2.678   6.551  18.165  0.00  0.00    +0.000 A 
ENDROOT
BRANCH   5   7
ATOM      7  C   UNL     1       1.577   8.839  18.528  0.00  0.00    +0.000 C 
ATOM      8  O   UNL     1       2.074   9.271  17.494  0.00  0.00    +0.000 OA
ATOM      9  N   UNL     1       0.686   9.618  19.219  0.00  0.00    +0.000 N 
ATOM     10  H   UNL     1       0.256   9.275  20.088  0.00  0.00    +0.000 HD
BRANCH   9  11
ATOM     11  C   UNL     1       0.273  10.949  18.797  0.00  0.00    +0.000 C 
BRANCH  11  12
ATOM     12  C   UNL     1      -1.193  10.963  18.426  0.00  0.00    +0.000 A 
ATOM     13  C   UNL     1      -1.716  10.096  17.449  0.00  0.00    +0.000 A 
ATOM     14  C   UNL     1      -3.073  10.158  17.112  0.00  0.00    +0.000 A 
ATOM     15  C   UNL     1      -3.896  11.082  17.758  0.00  0.00    +0.000 A 
ATOM     16  N   UNL     1      -3.379  11.907  18.705  0.00  0.00    +0.000 NA
ATOM     17  C   UNL     1      -2.064  11.871  19.049  0.00  0.00    +0.000 A 
ENDBRANCH  11  12
ENDBRANCH   9  11
ENDBRANCH   5   7
BRANCH   1  18
ATOM     18  O   UNL     1       3.739   4.440  17.828  0.00  0.00    +0.000 OA
BRANCH  18  21
ATOM     19  C   UNL     1       7.265   5.311  18.175  0.00  0.00    +0.000 A 
ATOM     20  C   UNL     1       5.908   5.172  18.493  0.00  0.00    +0.000 A 
ATOM     21  C   UNL     1       5.065   4.569  17.563  0.00  0.00    +0.000 A 
ATOM     22  N   UNL     1       5.583   4.111  16.387  0.00  0.00    +0.000 NA
ATOM     23  C   UNL     1       6.902   4.238  16.100  0.00  0.00    +0.000 A 
ATOM     24  N   UNL     1       7.732   4.838  16.987  0.00  0.00    +0.000 NA
BRANCH  19  25
ATOM     25  C   UNL     1       8.204   5.979  19.132  0.00  0.00    +0.000 C 
BRANCH  25  26
ATOM     26  N   UNL     1       8.092   5.369  20.453  0.00  0.00    +0.000 NA
ATOM     27  H   UNL     1       7.731   6.090  21.120  0.00  0.00    +0.000 HD
ATOM     28  H   UNL     1       9.037   5.065  20.784  0.00  0.00    +0.000 HD
ENDBRANCH  25  26
ENDBRANCH  19  25
ENDBRANCH  18  21
ENDBRANCH   1  18
TORSDOF 7
ENDMDL
MODEL 3
REMARK VINA RESULT:      -7.8      1.718      2.147
REMARK  Name = 
REMARK  7 active torsions:
REMARK  status: ('A' for Active; 'I' for Inactive)
REMARK    1  A    between atoms: N_1  and  C_2
REMARK    2  A    between atoms: C_2  and  C_3
REMARK    3  A    between atoms: C_5  and  O_6
REMARK    4  A    between atoms: O_6  and  C_7
REMARK    5  A    between atoms: C_11  and  C_12
REMARK    6  A    between atoms: N_14  and  C_15
REMARK    7  A    between atoms: C_15  and  C_16
REMARK                            x       y       z     vdW  Elec       q    Type
REMARK                         _______ _______ _______ _____ _____    ______ ____
ROOT
ATOM      1  C   UNL     1       3.224   4.567  18.584  0.00  0.00    +0.000 A 
ATOM      2  C   UNL     1       2.843   4.002  19.810  0.00  0.00    +0.000 A 
ATOM      3  C   UNL     1       2.202   4.774  20.773  0.00  0.00    +0.000 A 
ATOM      4  C   UNL     1       1.930   6.117  20.528  0.00  0.00    +0.000 A 
ATOM      5  C   UNL     1       2.281   6.714  19.294  0.00  0.00    +0.000 A 
ATOM      6  C   UNL     1       2.928   5.914  18.325  0.00  0.00    +0.000 A 
ENDROOT
BRANCH   5   7
ATOM      7  C   UNL     1       1.964   8.173  19.063  0.00  0.00    +0.000 C 
ATOM      8  O   UNL     1       2.406   8.711  18.055  0.00  0.00    +0.000 OA
ATOM      9  N   UNL     1       1.202   8.906  19.934  0.00  0.00    +0.000 N 
ATOM     10  H   UNL     1       0.819   8.473  20.785  0.00  0.00    +0.000 HD
BRANCH   9  11
ATOM     11  C   UNL     1       0.866  10.309  19.738  0.00  0.00    +0.000 C 
BRANCH  11  12
ATOM     12  C   UNL     1       0.015  10.822  20.877  0.00  0.00    +0.000 A 
ATOM     13  C   UNL     1      -0.918  11.858  20.695  0.00  0.00    +0.000 A 
ATOM     14  C   UNL     1      -1.667  12.326  21.780  0.00  0.00    +0.000 A 
ATOM     15  C   UNL     1      -1.481  11.750  23.038  0.00  0.00    +0.000 A 
ATOM     16  N   UNL     1      -0.582  10.745  23.198  0.00  0.00    +0.000 NA
ATOM     17  C   UNL     1       0.162  10.274  22.162  0.00  0.00    +0.000 A 
ENDBRANCH  11  12
ENDBRANCH   9  11
ENDBRANCH   5   7
BRANCH   1  18
ATOM     18  O   UNL     1       3.864   3.827  17.641  0.00  0.00    +0.000 OA
BRANCH  18  21
ATOM     19  C   UNL     1       6.563   4.507  15.284  0.00  0.00    +0.000 A 
ATOM     20  C   UNL     1       5.281   4.211  15.765  0.00  0.00    +0.000 A 
ATOM     21  C   UNL     1       5.088   4.135  17.142  0.00  0.00    +0.000 A 
ATOM     22  N   UNL     1       6.138   4.372  17.980  0.00  0.00    +0.000 NA
ATOM     23  C   UNL     1       7.370   4.672  17.500  0.00  0.00    +0.000 A 
ATOM     24  N   UNL     1       7.578   4.733  16.162  0.00  0.00    +0.000 NA
BRANCH  19  25
ATOM     25  C   UNL     1       6.825   4.571  13.811  0.00  0.00    +0.000 C 
BRANCH  25  26
ATOM     26  N   UNL     1       6.341   3.357  13.161  0.00  0.00    +0.000 NA
ATOM     27  H   UNL     1       5.314   3.460  12.994  0.00  0.00    +0.000 HD
ATOM     28  H   UNL     1       6.486   2.535  13.792  0.00  0.00    +0.000 HD
ENDBRANCH  25  26
ENDBRANCH  19  25
ENDBRANCH  18  21
ENDBRANCH   1  18
TORSDOF 7
ENDMDL
MODEL 4
REMARK VINA RESULT:      -7.6      1.586      2.041
REMARK  Name = 
REMARK  7 active torsions:
REMARK  status: ('A' for Active; 'I' for Inactive)
REMARK    1  A    between atoms: N_1  and  C_2
REMARK    2  A    between atoms: C_2  and  C_3
REMARK    3  A    between atoms: C_5  and  O_6
REMARK    4  A    between atoms: O_6  and  C_7
REMARK    5  A    between atoms: C_11  and  C_12
REMARK    6  A    between atoms: N_14  and  C_15
REMARK    7  A    between atoms: C_15  and  C_16
REMARK                            x       y       z     vdW  Elec       q    Type
REMARK                         _______ _______ _______ _____ _____    ______ ____
ROOT
ATOM      1  C   UNL     1       3.206   4.821  18.318  0.00  0.00    +0.000 A 
ATOM      2  C   UNL     1       2.930   4.226  19.559  0.00  0.00    +0.000 A 
ATOM      3  C   UNL     1       2.349   4.969  20.582  0.00  0.00    +0.000 A 
ATOM      4  C   UNL     1       2.032   6.310  20.382  0.00  0.00    +0.000 A 
ATOM      5  C   UNL     1       2.276   6.935  19.136  0.00  0.00    +0.000 A 
ATOM      6  C   UNL     1       2.864   6.164  18.107  0.00  0.00    +0.000 A 
ENDROOT
BRANCH   5   7
ATOM      7  C   UNL     1       1.914   8.390  18.957  0.00  0.00    +0.000 C 
ATOM      8  O   UNL     1       2.260   8.952  17.924  0.00  0.00    +0.000 OA
ATOM      9  N   UNL     1       1.215   9.095  19.901  0.00  0.00    +0.000 N 
ATOM     10  H   UNL     1       0.914   8.642  20.774  0.00  0.00    +0.000 HD
BRANCH   9  11
ATOM     11  C   UNL     1       0.838  10.494  19.756  0.00  0.00    +0.000 C 
BRANCH  11  12
ATOM     12  C   UNL     1      -0.117  10.908  20.854  0.00  0.00    +0.000 A 
ATOM     13  C   UNL     1      -0.043  10.356  22.145  0.00  0.00    +0.000 A 
ATOM     14  C   UNL     1      -0.962  10.743  23.126  0.00  0.00    +0.000 A 
ATOM     15  C   UNL     1      -1.943  11.684  22.810  0.00  0.00    +0.000 A 
ATOM     16  N   UNL     1      -1.998  12.216  21.561  0.00  0.00    +0.000 NA
ATOM     17  C   UNL     1      -1.120  11.854  20.588  0.00  0.00    +0.000 A 
ENDBRANCH  11  12
ENDBRANCH   9  11
ENDBRANCH   5   7
BRANCH   1  18
ATOM     18  O   UNL     1       3.786   4.109  17.316  0.00  0.00    +0.000 OA
BRANCH  18  21
ATOM     19  C   UNL     1       6.691   4.533  15.150  0.00  0.00    +0.000 A 
ATOM     20  C   UNL     1       5.357   4.365  15.542  0.00  0.00    +0.000 A 
ATOM     21  C   UNL     1       5.066   4.296  16.902  0.00  0.00    +0.000 A 
ATOM     22  N   UNL     1       6.077   4.415  17.810  0.00  0.00    +0.000 NA
ATOM     23  C   UNL     1       7.362   4.593  17.416  0.00  0.00    +0.000 A 
ATOM     24  N   UNL     1       7.663   4.645  16.096  0.00  0.00    +0.000 NA
BRANCH  19  25
ATOM     25  C   UNL     1       7.055   4.585  13.698  0.00  0.00    +0.000 C 
BRANCH  25  26
ATOM     26  N   UNL     1       6.443   3.467  12.987  0.00  0.00    +0.000 NA
ATOM     27  H   UNL     1       7.114   2.664  12.994  0.00  0.00    +0.000 HD
ATOM     28  H   UNL     1       6.266   3.734  11.991  0.00  0.00    +0.000 HD
ENDBRANCH  25  26
ENDBRANCH  19  25
ENDBRANCH  18  21
ENDBRANCH   1  18
TORSDOF 7
ENDMDL
MODEL 5
REMARK VINA RESULT:      -7.6      1.745      2.078
REMARK  Name = 
REMARK  7 active torsions:
REMARK  status: ('A' for Active; 'I' for Inactive)
REMARK    1  A    between atoms: N_1  and  C_2
REMARK    2  A    between atoms: C_2  and  C_3
REMARK    3  A    between atoms: C_5  and  O_6
REMARK    4  A    between atoms: O_6  and  C_7
REMARK    5  A    between atoms: C_11  and  C_12
REMARK    6  A    between atoms: N_14  and  C_15
REMARK    7  A    between atoms: C_15  and  C_16
REMARK                            x       y       z     vdW  Elec       q    Type
REMARK                         _______ _______ _______ _____ _____    ______ ____
ROOT
ATOM      1  C   UNL     1       3.455   4.444  19.229  0.00  0.00    +0.000 A 
ATOM      2  C   UNL     1       2.729   4.034  20.358  0.00  0.00    +0.000 A 
ATOM      3  C   UNL     1       1.853   4.911  20.989  0.00  0.00    +0.000 A 
ATOM      4  C   UNL     1       1.687   6.205  20.504  0.00  0.00    +0.000 A 
ATOM      5  C   UNL     1       2.387   6.645  19.356  0.00  0.00    +0.000 A 
ATOM      6  C   UNL     1       3.270   5.740  18.725  0.00  0.00    +0.000 A 
ENDROOT
BRANCH   5   7
ATOM      7  C   UNL     1       2.175   8.055  18.858  0.00  0.00    +0.000 C 
ATOM      8  O   UNL     1       2.786   8.417  17.859  0.00  0.00    +0.000 OA
ATOM      9  N   UNL     1       1.327   8.935  19.479  0.00  0.00    +0.000 N 
ATOM     10  H   UNL     1       0.803   8.651  20.318  0.00  0.00    +0.000 HD
BRANCH   9  11
ATOM     11  C   UNL     1       1.090  10.296  19.020  0.00  0.00    +0.000 C 
BRANCH  11  12
ATOM     12  C   UNL     1       0.561  11.157  20.145  0.00  0.00    +0.000 A 
ATOM     13  C   UNL     1      -0.606  10.815  20.852  0.00  0.00    +0.000 A 
ATOM     14  C   UNL     1      -1.080  11.651  21.868  0.00  0.00    +0.000 A 
ATOM     15  C   UNL     1      -0.382  12.821  22.172  0.00  0.00    +0.000 A 
ATOM     16  N   UNL     1       0.748  13.135  21.487  0.00  0.00    +0.000 NA
ATOM     17  C   UNL     1       1.229  12.342  20.493  0.00  0.00    +0.000 A 
ENDBRANCH  11  12
ENDBRANCH   9  11
ENDBRANCH   5   7
BRANCH   1  18
ATOM     18  O   UNL     1       4.325   3.601  18.613  0.00  0.00    +0.000 OA
BRANCH  18  21
ATOM     19  C   UNL     1       6.541   4.513  15.863  0.00  0.00    +0.000 A 
ATOM     20  C   UNL     1       5.384   4.105  16.538  0.00  0.00    +0.000 A 
ATOM     21  C   UNL     1       5.421   4.016  17.928  0.00  0.00    +0.000 A 
ATOM     22  N   UNL     1       6.567   4.349  18.590  0.00  0.00    +0.000 NA
ATOM     23  C   UNL     1       7.674   4.757  17.923  0.00  0.00    +0.000 A 
ATOM     24  N   UNL     1       7.660   4.832  16.570  0.00  0.00    +0.000 NA
BRANCH  19  25
ATOM     25  C   UNL     1       6.558   4.596  14.368  0.00  0.00    +0.000 C 
BRANCH  25  26
ATOM     26  N   UNL     1       7.664   5.438  13.923  0.00  0.00    +0.000 NA
ATOM     27  H   UNL     1       7.269   6.248  13.393  0.00  0.00    +0.000 HD
ATOM     28  H   UNL     1       8.283   4.897  13.276  0.00  0.00    +0.000 HD
ENDBRANCH  25  26
ENDBRANCH  19  25
ENDBRANCH  18  21
ENDBRANCH   1  18
TORSDOF 7
ENDMDL
MODEL 6
REMARK VINA RESULT:      -7.5      2.456      3.188
REMARK  Name = 
REMARK  7 active torsions:
REMARK  status: ('A' for Active; 'I' for Inactive)
REMARK    1  A    between atoms: N_1  and  C_2
REMARK    2  A    between atoms: C_2  and  C_3
REMARK    3  A    between atoms: C_5  and  O_6
REMARK    4  A    between atoms: O_6  and  C_7
REMARK    5  A    between atoms: C_11  and  C_12
REMARK    6  A    between atoms: N_14  and  C_15
REMARK    7  A    between atoms: C_15  and  C_16
REMARK                            x       y       z     vdW  Elec       q    Type
REMARK                         _______ _______ _______ _____ _____    ______ ____
ROOT
ATOM      1  C   UNL     1       5.156   5.185  17.011  0.00  0.00    +0.000 A 
ATOM      2  C   UNL     1       4.426   4.060  17.423  0.00  0.00    +0.000 A 
ATOM      3  C   UNL     1       3.156   4.207  17.971  0.00  0.00    +0.000 A 
ATOM      4  C   UNL     1       2.596   5.474  18.114  0.00  0.00    +0.000 A 
ATOM      5  C   UNL     1       3.296   6.628  17.689  0.00  0.00    +0.000 A 
ATOM      6  C   UNL     1       4.584   6.459  17.131  0.00  0.00    +0.000 A 
ENDROOT
BRANCH   5   7
ATOM      7  C   UNL     1       2.653   7.984  17.856  0.00  0.00    +0.000 C 
ATOM      8  O   UNL     1       2.824   8.820  16.976  0.00  0.00    +0.000 OA
ATOM      9  N   UNL     1       1.889   8.306  18.947  0.00  0.00    +0.000 N 
ATOM     10  H   UNL     1       1.731   7.618  19.695  0.00  0.00    +0.000 HD
BRANCH   9  11
ATOM     11  C   UNL     1       1.244   9.598  19.134  0.00  0.00    +0.000 C 
BRANCH  11  12
ATOM     12  C   UNL     1       0.662   9.710  20.526  0.00  0.00    +0.000 A 
ATOM     13  C   UNL     1       0.191   8.583  21.222  0.00  0.00    +0.000 A 
ATOM     14  C   UNL     1      -0.367   8.730  22.497  0.00  0.00    +0.000 A 
ATOM     15  C   UNL     1      -0.446  10.002  23.066  0.00  0.00    +0.000 A 
ATOM     16  N   UNL     1       0.021  11.081  22.385  0.00  0.00    +0.000 NA
ATOM     17  C   UNL     1       0.565  10.967  21.144  0.00  0.00    +0.000 A 
ENDBRANCH  11  12
ENDBRANCH   9  11
ENDBRANCH   5   7
BRANCH   1  18
ATOM     18  O   UNL     1       6.404   5.055  16.488  0.00  0.00    +0.000 OA
BRANCH  18  21
ATOM     19  C   UNL     1       6.132   3.851  13.055  0.00  0.00    +0.000 A 
ATOM     20  C   UNL     1       5.831   4.037  14.410  0.00  0.00    +0.000 A 
ATOM     21  C   UNL     1       6.652   4.871  15.166  0.00  0.00    +0.000 A 
ATOM     22  N   UNL     1       7.705   5.497  14.565  0.00  0.00    +0.000 NA
ATOM     23  C   UNL     1       7.974   5.319  13.249  0.00  0.00    +0.000 A 
ATOM     24  N   UNL     1       7.195   4.498  12.504  0.00  0.00    +0.000 NA
BRANCH  19  25
ATOM     25  C   UNL     1       5.294   2.941  12.210  0.00  0.00    +0.000 C 
BRANCH  25  26
ATOM     26  N   UNL     1       6.131   1.916  11.594  0.00  0.00    +0.000 NA
ATOM     27  H   UNL     1       5.556   1.051  11.469  0.00  0.00    +0.000 HD
ATOM     28  H   UNL     1       6.932   1.685  12.226  0.00  0.00    +0.000 HD
ENDBRANCH  25  26
ENDBRANCH  19  25
ENDBRANCH  18  21
ENDBRANCH   1  18
TORSDOF 7
ENDMDL
MODEL 7
REMARK VINA RESULT:      -7.5      1.435      2.481
REMARK  Name = 
REMARK  7 active torsions:
REMARK  status: ('A' for Active; 'I' for Inactive)
REMARK    1  A    between atoms: N_1  and  C_2
REMARK    2  A    between atoms: C_2  and  C_3
REMARK    3  A    between atoms: C_5  and  O_6
REMARK    4  A    between atoms: O_6  and  C_7
REMARK    5  A    between atoms: C_11  and  C_12
REMARK    6  A    between atoms: N_14  and  C_15
REMARK    7  A    between atoms: C_15  and  C_16
REMARK                            x       y       z     vdW  Elec       q    Type
REMARK                         _______ _______ _______ _____ _____    ______ ____
ROOT
ATOM      1  C   UNL     1       2.925   5.027  18.441  0.00  0.00    +0.000 A 
ATOM      2  C   UNL     1       2.588   4.038  19.379  0.00  0.00    +0.000 A 
ATOM      3  C   UNL     1       1.946   4.382  20.564  0.00  0.00    +0.000 A 
ATOM      4  C   UNL     1       1.630   5.711  20.831  0.00  0.00    +0.000 A 
ATOM      5  C   UNL     1       1.935   6.730  19.898  0.00  0.00    +0.000 A 
ATOM      6  C   UNL     1       2.584   6.363  18.697  0.00  0.00    +0.000 A 
ENDROOT
BRANCH   5   7
ATOM      7  C   UNL     1       1.571   8.160  20.221  0.00  0.00    +0.000 C 
ATOM      8  O   UNL     1       1.502   8.489  21.400  0.00  0.00    +0.000 OA
ATOM      9  N   UNL     1       1.321   9.092  19.250  0.00  0.00    +0.000 N 
ATOM     10  H   UNL     1       1.376   8.837  18.255  0.00  0.00    +0.000 HD
BRANCH   9  11
ATOM     11  C   UNL     1       0.980  10.481  19.525  0.00  0.00    +0.000 C 
BRANCH  11  12
ATOM     12  C   UNL     1      -0.411  10.801  19.025  0.00  0.00    +0.000 A 
ATOM     13  C   UNL     1      -1.250  11.704  19.702  0.00  0.00    +0.000 A 
ATOM     14  C   UNL     1      -2.542  11.952  19.225  0.00  0.00    +0.000 A 
ATOM     15  C   UNL     1      -2.982  11.301  18.072  0.00  0.00    +0.000 A 
ATOM     16  N   UNL     1      -2.158  10.437  17.423  0.00  0.00    +0.000 NA
ATOM     17  C   UNL     1      -0.900  10.174  17.867  0.00  0.00    +0.000 A 
ENDBRANCH  11  12
ENDBRANCH   9  11
ENDBRANCH   5   7
BRANCH   1  18
ATOM     18  O   UNL     1       3.564   4.705  17.286  0.00  0.00    +0.000 OA
BRANCH  18  21
ATOM     19  C   UNL     1       7.088   5.421  17.904  0.00  0.00    +0.000 A 
ATOM     20  C   UNL     1       5.705   5.347  18.115  0.00  0.00    +0.000 A 
ATOM     21  C   UNL     1       4.911   4.771  17.126  0.00  0.00    +0.000 A 
ATOM     22  N   UNL     1       5.499   4.276  15.998  0.00  0.00    +0.000 NA
ATOM     23  C   UNL     1       6.840   4.341  15.816  0.00  0.00    +0.000 A 
ATOM     24  N   UNL     1       7.625   4.914  16.761  0.00  0.00    +0.000 NA
BRANCH  19  25
ATOM     25  C   UNL     1       7.978   6.057  18.927  0.00  0.00    +0.000 C 
BRANCH  25  26
ATOM     26  N   UNL     1       7.779   5.426  20.228  0.00  0.00    +0.000 NA
ATOM     27  H   UNL     1       7.105   4.635  20.111  0.00  0.00    +0.000 HD
ATOM     28  H   UNL     1       7.360   6.114  20.895  0.00  0.00    +0.000 HD
ENDBRANCH  25  26
ENDBRANCH  19  25
ENDBRANCH  18  21
ENDBRANCH   1  18
TORSDOF 7
ENDMDL
MODEL 8
REMARK VINA RESULT:      -7.5      1.834      2.898
REMARK  Name = 
REMARK  7 active torsions:
REMARK  status: ('A' for Active; 'I' for Inactive)
REMARK    1  A    between atoms: N_1  and  C_2
REMARK    2  A    between atoms: C_2  and  C_3
REMARK    3  A    between atoms: C_5  and  O_6
REMARK    4  A    between atoms: O_6  and  C_7
REMARK    5  A    between atoms: C_11  and  C_12
REMARK    6  A    between atoms: N_14  and  C_15
REMARK    7  A    between atoms: C_15  and  C_16
REMARK                            x       y       z     vdW  Elec       q    Type
REMARK                         _______ _______ _______ _____ _____    ______ ____
ROOT
ATOM      1  C   UNL     1       3.074   4.929  18.472  0.00  0.00    +0.000 A 
ATOM      2  C   UNL     1       2.661   4.305  19.659  0.00  0.00    +0.000 A 
ATOM      3  C   UNL     1       1.986   5.028  20.637  0.00  0.00    +0.000 A 
ATOM      4  C   UNL     1       1.712   6.380  20.446  0.00  0.00    +0.000 A 
ATOM      5  C   UNL     1       2.095   7.035  19.252  0.00  0.00    +0.000 A 
ATOM      6  C   UNL     1       2.776   6.284  18.267  0.00  0.00    +0.000 A 
ENDROOT
BRANCH   5   7
ATOM      7  C   UNL     1       1.775   8.501  19.079  0.00  0.00    +0.000 C 
ATOM      8  O   UNL     1       2.165   9.065  18.063  0.00  0.00    +0.000 OA
ATOM      9  N   UNL     1       1.067   9.213  20.011  0.00  0.00    +0.000 N 
ATOM     10  H   UNL     1       0.728   8.758  20.870  0.00  0.00    +0.000 HD
BRANCH   9  11
ATOM     11  C   UNL     1       0.729  10.623  19.872  0.00  0.00    +0.000 C 
BRANCH  11  12
ATOM     12  C   UNL     1      -0.196  11.065  20.983  0.00  0.00    +0.000 A 
ATOM     13  C   UNL     1      -0.320  10.332  22.177  0.00  0.00    +0.000 A 
ATOM     14  C   UNL     1      -1.208  10.758  23.171  0.00  0.00    +0.000 A 
ATOM     15  C   UNL     1      -1.962  11.914  22.965  0.00  0.00    +0.000 A 
ATOM     16  N   UNL     1      -1.826  12.617  21.810  0.00  0.00    +0.000 NA
ATOM     17  C   UNL     1      -0.973  12.225  20.827  0.00  0.00    +0.000 A 
ENDBRANCH  11  12
ENDBRANCH   9  11
ENDBRANCH   5   7
BRANCH   1  18
ATOM     18  O   UNL     1       3.746   4.236  17.516  0.00  0.00    +0.000 OA
BRANCH  18  21
ATOM     19  C   UNL     1       7.259   5.127  17.931  0.00  0.00    +0.000 A 
ATOM     20  C   UNL     1       5.899   4.971  18.226  0.00  0.00    +0.000 A 
ATOM     21  C   UNL     1       5.074   4.380  17.273  0.00  0.00    +0.000 A 
ATOM     22  N   UNL     1       5.613   3.950  16.095  0.00  0.00    +0.000 NA
ATOM     23  C   UNL     1       6.934   4.094  15.830  0.00  0.00    +0.000 A 
ATOM     24  N   UNL     1       7.747   4.683  16.741  0.00  0.00    +0.000 NA
BRANCH  19  25
ATOM     25  C   UNL     1       8.179   5.783  18.914  0.00  0.00    +0.000 C 
BRANCH  25  26
ATOM     26  N   UNL     1       7.835   5.375  20.273  0.00  0.00    +0.000 NA
ATOM     27  H   UNL     1       8.121   6.138  20.929  0.00  0.00    +0.000 HD
ATOM     28  H   UNL     1       8.365   4.510  20.529  0.00  0.00    +0.000 HD
ENDBRANCH  25  26
ENDBRANCH  19  25
ENDBRANCH  18  21
ENDBRANCH   1  18
TORSDOF 7
ENDMDL
MODEL 9
REMARK VINA RESULT:      -7.4      0.793      1.128
REMARK  Name = 
REMARK  7 active torsions:
REMARK  status: ('A' for Active; 'I' for Inactive)
REMARK    1  A    between atoms: N_1  and  C_2
REMARK    2  A    between atoms: C_2  and  C_3
REMARK    3  A    between atoms: C_5  and  O_6
REMARK    4  A    between atoms: O_6  and  C_7
REMARK    5  A    between atoms: C_11  and  C_12
REMARK    6  A    between atoms: N_14  and  C_15
REMARK    7  A    between atoms: C_15  and  C_16
REMARK                            x       y       z     vdW  Elec       q    Type
REMARK                         _______ _______ _______ _____ _____    ______ ____
ROOT
ATOM      1  C   UNL     1       3.537   4.568  19.479  0.00  0.00    +0.000 A 
ATOM      2  C   UNL     1       2.697   4.184  20.534  0.00  0.00    +0.000 A 
ATOM      3  C   UNL     1       1.725   5.056  21.015  0.00  0.00    +0.000 A 
ATOM      4  C   UNL     1       1.576   6.320  20.450  0.00  0.00    +0.000 A 
ATOM      5  C   UNL     1       2.393   6.732  19.370  0.00  0.00    +0.000 A 
ATOM      6  C   UNL     1       3.372   5.831  18.892  0.00  0.00    +0.000 A 
ENDROOT
BRANCH   5   7
ATOM      7  C   UNL     1       2.197   8.109  18.781  0.00  0.00    +0.000 C 
ATOM      8  O   UNL     1       2.779   8.382  17.737  0.00  0.00    +0.000 OA
ATOM      9  N   UNL     1       1.396   9.052  19.368  0.00  0.00    +0.000 N 
ATOM     10  H   UNL     1       0.897   8.843  20.243  0.00  0.00    +0.000 HD
BRANCH   9  11
ATOM     11  C   UNL     1       1.174  10.384  18.822  0.00  0.00    +0.000 C 
BRANCH  11  12
ATOM     12  C   UNL     1      -0.298  10.626  18.578  0.00  0.00    +0.000 A 
ATOM     13  C   UNL     1      -1.016  11.600  19.295  0.00  0.00    +0.000 A 
ATOM     14  C   UNL     1      -2.384  11.775  19.061  0.00  0.00    +0.000 A 
ATOM     15  C   UNL     1      -3.023  10.978  18.110  0.00  0.00    +0.000 A 
ATOM     16  N   UNL     1      -2.316  10.046  17.419  0.00  0.00    +0.000 NA
ATOM     17  C   UNL     1      -0.987   9.853  17.629  0.00  0.00    +0.000 A 
ENDBRANCH  11  12
ENDBRANCH   9  11
ENDBRANCH   5   7
BRANCH   1  18
ATOM     18  O   UNL     1       4.499   3.731  19.010  0.00  0.00    +0.000 OA
BRANCH  18  21
ATOM     19  C   UNL     1       6.008   4.422  15.762  0.00  0.00    +0.000 A 
ATOM     20  C   UNL     1       5.041   4.083  16.716  0.00  0.00    +0.000 A 
ATOM     21  C   UNL     1       5.405   4.078  18.061  0.00  0.00    +0.000 A 
ATOM     22  N   UNL     1       6.678   4.422  18.411  0.00  0.00    +0.000 NA
ATOM     23  C   UNL     1       7.599   4.763  17.477  0.00  0.00    +0.000 A 
ATOM     24  N   UNL     1       7.265   4.757  16.164  0.00  0.00    +0.000 NA
BRANCH  19  25
ATOM     25  C   UNL     1       5.670   4.414  14.303  0.00  0.00    +0.000 C 
BRANCH  25  26
ATOM     26  N   UNL     1       6.403   3.350  13.624  0.00  0.00    +0.000 NA
ATOM     27  H   UNL     1       5.728   2.590  13.378  0.00  0.00    +0.000 HD
ATOM     28  H   UNL     1       7.124   2.949  14.267  0.00  0.00    +0.000 HD
ENDBRANCH  25  26
ENDBRANCH  19  25
ENDBRANCH  18  21
ENDBRANCH   1  18
TORSDOF 7
ENDMDL
