MODEL 1
REMARK VINA RESULT:      -8.4      0.000      0.000
REMARK  Name = 
REMARK  9 active torsions:
REMARK  status: ('A' for Active; 'I' for Inactive)
REMARK    1  A    between atoms: C_1  and  O_2
REMARK    2  A    between atoms: O_2  and  C_3
REMARK    3  A    between atoms: C_6  and  O_7
REMARK    4  A    between atoms: O_7  and  C_8
REMARK    5  A    between atoms: C_8  and  C_9
REMARK    6  A    between atoms: C_9  and  N_10
REMARK    7  A    between atoms: N_10  and  C_11
REMARK    8  A    between atoms: C_13  and  N_14
REMARK    9  A    between atoms: C_22  and  N_23
REMARK                            x       y       z     vdW  Elec       q    Type
REMARK                         _______ _______ _______ _____ _____    ______ ____
ROOT
ATOM      1  C   UNL     1       5.609   6.106  16.880  0.00  0.00    +0.000 A 
ATOM      2  C   UNL     1       4.364   6.051  17.531  0.00  0.00    +0.000 A 
ATOM      3  C   UNL     1       3.600   4.880  17.655  0.00  0.00    +0.000 A 
ATOM      4  C   UNL     1       4.062   3.750  16.969  0.00  0.00    +0.000 A 
ATOM      5  C   UNL     1       5.270   3.760  16.271  0.00  0.00    +0.000 A 
ATOM      6  C   UNL     1       6.041   4.932  16.257  0.00  0.00    +0.000 A 
ENDROOT
BRANCH   3   7
ATOM      7  N   UNL     1       2.462   4.851  18.433  0.00  0.00    +0.000 N 
ATOM      8  C   UNL     1       2.295   5.747  19.581  0.00  0.00    +0.000 C 
ATOM      9  C   UNL     1       2.023   4.900  20.819  0.00  0.00    +0.000 C 
ATOM     10  C   UNL     1       0.833   3.962  20.599  0.00  0.00    +0.000 C 
ATOM     11  C   UNL     1       1.005   3.134  19.323  0.00  0.00    +0.000 C 
ATOM     12  C   UNL     1       1.297   4.023  18.118  0.00  0.00    +0.000 C 
ENDBRANCH   3   7
BRANCH   6  13
ATOM     13  N   UNL     1       7.366   4.847  15.665  0.00  0.00    +0.000 N 
ATOM     14  O   UNL     1       7.526   5.352  14.547  0.00  0.00    +0.000 OA
ATOM     15  O   UNL     1       8.217   4.183  16.289  0.00  0.00    +0.000 OA
ENDBRANCH   6  13
BRANCH   1  16
ATOM     16  N   UNL     1       6.335   7.304  16.816  0.00  0.00    +0.000 N 
ATOM     17  H   UNL     1       5.712   8.109  16.845  0.00  0.00    +0.000 HD
BRANCH  16  18
ATOM     18  C   UNL     1       7.501   7.466  17.700  0.00  0.00    +0.000 C 
BRANCH  18  19
ATOM     19  C   UNL     1       7.945   8.934  17.810  0.00  0.00    +0.000 C 
BRANCH  19  20
ATOM     20  O   UNL     1       8.856   9.040  18.908  0.00  0.00    +0.000 OA
BRANCH  20  24
ATOM     21  C   UNL     1      10.168  12.949  19.438  0.00  0.00    +0.000 A 
ATOM     22  C   UNL     1      10.061  12.380  18.170  0.00  0.00    +0.000 A 
ATOM     23  C   UNL     1       9.632  11.058  18.027  0.00  0.00    +0.000 A 
ATOM     24  C   UNL     1       9.340  10.291  19.154  0.00  0.00    +0.000 A 
ATOM     25  C   UNL     1       9.480  10.847  20.424  0.00  0.00    +0.000 A 
ATOM     26  C   UNL     1       9.894  12.175  20.565  0.00  0.00    +0.000 A 
BRANCH  21  28
ATOM     27  C   UNL     1      11.510  14.623  18.458  0.00  0.00    +0.000 C 
ATOM     28  O   UNL     1      10.575  14.255  19.466  0.00  0.00    +0.000 OA
ENDBRANCH  21  28
ENDBRANCH  20  24
ENDBRANCH  19  20
ENDBRANCH  18  19
ENDBRANCH  16  18
ENDBRANCH   1  16
TORSDOF 8
ENDMDL
MODEL 2
REMARK VINA RESULT:      -8.3      1.003      1.349
REMARK  Name = 
REMARK  9 active torsions:
REMARK  status: ('A' for Active; 'I' for Inactive)
REMARK    1  A    between atoms: C_1  and  O_2
REMARK    2  A    between atoms: O_2  and  C_3
REMARK    3  A    between atoms: C_6  and  O_7
REMARK    4  A    between atoms: O_7  and  C_8
REMARK    5  A    between atoms: C_8  and  C_9
REMARK    6  A    between atoms: C_9  and  N_10
REMARK    7  A    between atoms: N_10  and  C_11
REMARK    8  A    between atoms: C_13  and  N_14
REMARK    9  A    between atoms: C_22  and  N_23
REMARK                            x       y       z     vdW  Elec       q    Type
REMARK                         _______ _______ _______ _____ _____    ______ ____
ROOT
ATOM      1  C   UNL     1       5.866   5.898  16.840  0.00  0.00    +0.000 A 
ATOM      2  C   UNL     1       5.058   5.673  17.968  0.00  0.00    +0.000 A 
ATOM      3  C   UNL     1       4.284   4.518  18.155  0.00  0.00    +0.000 A 
ATOM      4  C   UNL     1       4.227   3.617  17.084  0.00  0.00    +0.000 A 
ATOM      5  C   UNL     1       4.975   3.812  15.923  0.00  0.00    +0.000 A 
ATOM      6  C   UNL     1       5.805   4.939  15.826  0.00  0.00    +0.000 A 
ENDROOT
BRANCH   3   7
ATOM      7  N   UNL     1       3.631   4.282  19.346  0.00  0.00    +0.000 N 
ATOM      8  C   UNL     1       3.618   2.953  19.964  0.00  0.00    +0.000 C 
ATOM      9  C   UNL     1       2.168   2.532  20.174  0.00  0.00    +0.000 C 
ATOM     10  C   UNL     1       1.395   3.585  20.975  0.00  0.00    +0.000 C 
ATOM     11  C   UNL     1       1.540   4.975  20.351  0.00  0.00    +0.000 C 
ATOM     12  C   UNL     1       3.005   5.342  20.139  0.00  0.00    +0.000 C 
ENDBRANCH   3   7
BRANCH   6  13
ATOM     13  N   UNL     1       6.692   5.012  14.676  0.00  0.00    +0.000 N 
ATOM     14  O   UNL     1       6.301   4.500  13.619  0.00  0.00    +0.000 OA
ATOM     15  O   UNL     1       7.822   5.501  14.870  0.00  0.00    +0.000 OA
ENDBRANCH   6  13
BRANCH   1  16
ATOM     16  N   UNL     1       6.638   7.064  16.728  0.00  0.00    +0.000 N 
ATOM     17  H   UNL     1       6.054   7.866  16.497  0.00  0.00    +0.000 HD
BRANCH  16  18
ATOM     18  C   UNL     1       7.608   7.367  17.793  0.00  0.00    +0.000 C 
BRANCH  18  19
ATOM     19  C   UNL     1       8.067   8.834  17.759  0.00  0.00    +0.000 C 
BRANCH  19  20
ATOM     20  O   UNL     1       8.777   9.106  18.971  0.00  0.00    +0.000 OA
BRANCH  20  24
ATOM     21  C   UNL     1       9.968  13.079  19.248  0.00  0.00    +0.000 A 
ATOM     22  C   UNL     1       9.450  12.551  18.066  0.00  0.00    +0.000 A 
ATOM     23  C   UNL     1       9.073  11.208  18.001  0.00  0.00    +0.000 A 
ATOM     24  C   UNL     1       9.245  10.379  19.108  0.00  0.00    +0.000 A 
ATOM     25  C   UNL     1       9.795  10.895  20.280  0.00  0.00    +0.000 A 
ATOM     26  C   UNL     1      10.156  12.244  20.348  0.00  0.00    +0.000 A 
BRANCH  21  28
ATOM     27  C   UNL     1       9.456  15.209  18.373  0.00  0.00    +0.000 C 
ATOM     28  O   UNL     1      10.284  14.410  19.212  0.00  0.00    +0.000 OA
ENDBRANCH  21  28
ENDBRANCH  20  24
ENDBRANCH  19  20
ENDBRANCH  18  19
ENDBRANCH  16  18
ENDBRANCH   1  16
TORSDOF 8
ENDMDL
MODEL 3
REMARK VINA RESULT:      -8.3      0.949      1.645
REMARK  Name = 
REMARK  9 active torsions:
REMARK  status: ('A' for Active; 'I' for Inactive)
REMARK    1  A    between atoms: C_1  and  O_2
REMARK    2  A    between atoms: O_2  and  C_3
REMARK    3  A    between atoms: C_6  and  O_7
REMARK    4  A    between atoms: O_7  and  C_8
REMARK    5  A    between atoms: C_8  and  C_9
REMARK    6  A    between atoms: C_9  and  N_10
REMARK    7  A    between atoms: N_10  and  C_11
REMARK    8  A    between atoms: C_13  and  N_14
REMARK    9  A    between atoms: C_22  and  N_23
REMARK                            x       y       z     vdW  Elec       q    Type
REMARK                         _______ _______ _______ _____ _____    ______ ____
ROOT
ATOM      1  C   UNL     1       5.933   5.847  16.802  0.00  0.00    +0.000 A 
ATOM      2  C   UNL     1       5.112   5.665  17.928  0.00  0.00    +0.000 A 
ATOM      3  C   UNL     1       4.317   4.527  18.139  0.00  0.00    +0.000 A 
ATOM      4  C   UNL     1       4.254   3.599  17.091  0.00  0.00    +0.000 A 
ATOM      5  C   UNL     1       5.016   3.752  15.932  0.00  0.00    +0.000 A 
ATOM      6  C   UNL     1       5.866   4.862  15.813  0.00  0.00    +0.000 A 
ENDROOT
BRANCH   3   7
ATOM      7  N   UNL     1       3.650   4.334  19.329  0.00  0.00    +0.000 N 
ATOM      8  C   UNL     1       3.601   3.021  19.977  0.00  0.00    +0.000 C 
ATOM      9  C   UNL     1       2.141   2.637  20.185  0.00  0.00    +0.000 C 
ATOM     10  C   UNL     1       1.387   3.726  20.955  0.00  0.00    +0.000 C 
ATOM     11  C   UNL     1       1.567   5.097  20.301  0.00  0.00    +0.000 C 
ATOM     12  C   UNL     1       3.042   5.425  20.093  0.00  0.00    +0.000 C 
ENDBRANCH   3   7
BRANCH   6  13
ATOM     13  N   UNL     1       6.763   4.890  14.670  0.00  0.00    +0.000 N 
ATOM     14  O   UNL     1       7.829   5.507  14.796  0.00  0.00    +0.000 OA
ATOM     15  O   UNL     1       6.346   4.372  13.616  0.00  0.00    +0.000 OA
ENDBRANCH   6  13
BRANCH   1  16
ATOM     16  N   UNL     1       6.725   6.996  16.667  0.00  0.00    +0.000 N 
ATOM     17  H   UNL     1       6.164   7.793  16.369  0.00  0.00    +0.000 HD
BRANCH  16  18
ATOM     18  C   UNL     1       7.651   7.343  17.758  0.00  0.00    +0.000 C 
BRANCH  18  19
ATOM     19  C   UNL     1       7.968   8.847  17.794  0.00  0.00    +0.000 C 
BRANCH  19  20
ATOM     20  O   UNL     1       8.673   9.123  19.008  0.00  0.00    +0.000 OA
BRANCH  20  24
ATOM     21  C   UNL     1      10.769  12.694  19.372  0.00  0.00    +0.000 A 
ATOM     22  C   UNL     1      10.437  11.925  20.486  0.00  0.00    +0.000 A 
ATOM     23  C   UNL     1       9.718  10.737  20.331  0.00  0.00    +0.000 A 
ATOM     24  C   UNL     1       9.300  10.332  19.064  0.00  0.00    +0.000 A 
ATOM     25  C   UNL     1       9.600  11.118  17.953  0.00  0.00    +0.000 A 
ATOM     26  C   UNL     1      10.333  12.298  18.108  0.00  0.00    +0.000 A 
BRANCH  21  28
ATOM     27  C   UNL     1      10.886  15.045  19.214  0.00  0.00    +0.000 C 
ATOM     28  O   UNL     1      11.493  13.826  19.630  0.00  0.00    +0.000 OA
ENDBRANCH  21  28
ENDBRANCH  20  24
ENDBRANCH  19  20
ENDBRANCH  18  19
ENDBRANCH  16  18
ENDBRANCH   1  16
TORSDOF 8
ENDMDL
MODEL 4
REMARK VINA RESULT:      -7.8      0.834      1.203
REMARK  Name = 
REMARK  9 active torsions:
REMARK  status: ('A' for Active; 'I' for Inactive)
REMARK    1  A    between atoms: C_1  and  O_2
REMARK    2  A    between atoms: O_2  and  C_3
REMARK    3  A    between atoms: C_6  and  O_7
REMARK    4  A    between atoms: O_7  and  C_8
REMARK    5  A    between atoms: C_8  and  C_9
REMARK    6  A    between atoms: C_9  and  N_10
REMARK    7  A    between atoms: N_10  and  C_11
REMARK    8  A    between atoms: C_13  and  N_14
REMARK    9  A    between atoms: C_22  and  N_23
REMARK                            x       y       z     vdW  Elec       q    Type
REMARK                         _______ _______ _______ _____ _____    ______ ____
ROOT
ATOM      1  C   UNL     1       5.384   6.011  17.278  0.00  0.00    +0.000 A 
ATOM      2  C   UNL     1       4.244   5.808  18.076  0.00  0.00    +0.000 A 
ATOM      3  C   UNL     1       3.506   4.614  18.093  0.00  0.00    +0.000 A 
ATOM      4  C   UNL     1       3.868   3.636  17.156  0.00  0.00    +0.000 A 
ATOM      5  C   UNL     1       4.965   3.803  16.311  0.00  0.00    +0.000 A 
ATOM      6  C   UNL     1       5.725   4.979  16.400  0.00  0.00    +0.000 A 
ENDROOT
BRANCH   3   7
ATOM      7  N   UNL     1       2.490   4.417  19.003  0.00  0.00    +0.000 N 
ATOM      8  C   UNL     1       2.562   4.960  20.362  0.00  0.00    +0.000 C 
ATOM      9  C   UNL     1       2.395   3.812  21.351  0.00  0.00    +0.000 C 
ATOM     10  C   UNL     1       1.110   3.025  21.075  0.00  0.00    +0.000 C 
ATOM     11  C   UNL     1       1.031   2.583  19.613  0.00  0.00    +0.000 C 
ATOM     12  C   UNL     1       1.227   3.761  18.663  0.00  0.00    +0.000 C 
ENDBRANCH   3   7
BRANCH   6  13
ATOM     13  N   UNL     1       6.953   5.036  15.624  0.00  0.00    +0.000 N 
ATOM     14  O   UNL     1       6.913   5.617  14.533  0.00  0.00    +0.000 OA
ATOM     15  O   UNL     1       7.931   4.407  16.076  0.00  0.00    +0.000 OA
ENDBRANCH   6  13
BRANCH   1  16
ATOM     16  N   UNL     1       6.092   7.220  17.330  0.00  0.00    +0.000 N 
ATOM     17  H   UNL     1       5.475   7.994  17.574  0.00  0.00    +0.000 HD
BRANCH  16  18
ATOM     18  C   UNL     1       7.360   7.260  18.078  0.00  0.00    +0.000 C 
BRANCH  18  19
ATOM     19  C   UNL     1       8.305   8.355  17.559  0.00  0.00    +0.000 C 
BRANCH  19  20
ATOM     20  O   UNL     1       7.723   9.626  17.867  0.00  0.00    +0.000 OA
BRANCH  20  24
ATOM     21  C   UNL     1      10.534  12.279  19.396  0.00  0.00    +0.000 A 
ATOM     22  C   UNL     1      10.279  11.052  20.006  0.00  0.00    +0.000 A 
ATOM     23  C   UNL     1       9.317  10.189  19.476  0.00  0.00    +0.000 A 
ATOM     24  C   UNL     1       8.582  10.566  18.353  0.00  0.00    +0.000 A 
ATOM     25  C   UNL     1       8.810  11.807  17.762  0.00  0.00    +0.000 A 
ATOM     26  C   UNL     1       9.785  12.663  18.285  0.00  0.00    +0.000 A 
BRANCH  21  28
ATOM     27  C   UNL     1      12.202  13.921  19.103  0.00  0.00    +0.000 C 
ATOM     28  O   UNL     1      11.510  13.039  19.981  0.00  0.00    +0.000 OA
ENDBRANCH  21  28
ENDBRANCH  20  24
ENDBRANCH  19  20
ENDBRANCH  18  19
ENDBRANCH  16  18
ENDBRANCH   1  16
TORSDOF 8
ENDMDL
MODEL 5
REMARK VINA RESULT:      -7.8      1.229      1.550
REMARK  Name = 
REMARK  9 active torsions:
REMARK  status: ('A' for Active; 'I' for Inactive)
REMARK    1  A    between atoms: C_1  and  O_2
REMARK    2  A    between atoms: O_2  and  C_3
REMARK    3  A    between atoms: C_6  and  O_7
REMARK    4  A    between atoms: O_7  and  C_8
REMARK    5  A    between atoms: C_8  and  C_9
REMARK    6  A    between atoms: C_9  and  N_10
REMARK    7  A    between atoms: N_10  and  C_11
REMARK    8  A    between atoms: C_13  and  N_14
REMARK    9  A    between atoms: C_22  and  N_23
REMARK                            x       y       z     vdW  Elec       q    Type
REMARK                         _______ _______ _______ _____ _____    ______ ____
ROOT
ATOM      1  C   UNL     1       6.337   5.318  17.305  0.00  0.00    +0.000 A 
ATOM      2  C   UNL     1       5.454   5.130  18.382  0.00  0.00    +0.000 A 
ATOM      3  C   UNL     1       4.331   4.290  18.333  0.00  0.00    +0.000 A 
ATOM      4  C   UNL     1       4.022   3.724  17.089  0.00  0.00    +0.000 A 
ATOM      5  C   UNL     1       4.841   3.912  15.976  0.00  0.00    +0.000 A 
ATOM      6  C   UNL     1       6.003   4.687  16.105  0.00  0.00    +0.000 A 
ENDROOT
BRANCH   3   7
ATOM      7  N   UNL     1       3.587   4.026  19.463  0.00  0.00    +0.000 N 
ATOM      8  C   UNL     1       3.491   2.674  20.020  0.00  0.00    +0.000 C 
ATOM      9  C   UNL     1       2.018   2.291  20.108  0.00  0.00    +0.000 C 
ATOM     10  C   UNL     1       1.221   3.334  20.897  0.00  0.00    +0.000 C 
ATOM     11  C   UNL     1       1.450   4.743  20.346  0.00  0.00    +0.000 C 
ATOM     12  C   UNL     1       2.937   5.071  20.255  0.00  0.00    +0.000 C 
ENDBRANCH   3   7
BRANCH   6  13
ATOM     13  N   UNL     1       6.911   4.714  14.970  0.00  0.00    +0.000 N 
ATOM     14  O   UNL     1       7.740   5.632  14.923  0.00  0.00    +0.000 OA
ATOM     15  O   UNL     1       6.720   3.864  14.078  0.00  0.00    +0.000 OA
ENDBRANCH   6  13
BRANCH   1  16
ATOM     16  N   UNL     1       7.458   6.152  17.431  0.00  0.00    +0.000 N 
ATOM     17  H   UNL     1       8.193   5.874  16.783  0.00  0.00    +0.000 HD
BRANCH  16  18
ATOM     18  C   UNL     1       7.251   7.609  17.450  0.00  0.00    +0.000 C 
BRANCH  18  19
ATOM     19  C   UNL     1       8.361   8.343  18.221  0.00  0.00    +0.000 C 
BRANCH  19  20
ATOM     20  O   UNL     1       8.562   9.617  17.602  0.00  0.00    +0.000 OA
BRANCH  20  24
ATOM     21  C   UNL     1       9.692  12.804  20.021  0.00  0.00    +0.000 A 
ATOM     22  C   UNL     1       9.287  12.996  18.701  0.00  0.00    +0.000 A 
ATOM     23  C   UNL     1       8.929  11.902  17.909  0.00  0.00    +0.000 A 
ATOM     24  C   UNL     1       9.005  10.609  18.425  0.00  0.00    +0.000 A 
ATOM     25  C   UNL     1       9.443  10.412  19.734  0.00  0.00    +0.000 A 
ATOM     26  C   UNL     1       9.786  11.509  20.530  0.00  0.00    +0.000 A 
BRANCH  21  28
ATOM     27  C   UNL     1      11.239  14.550  20.370  0.00  0.00    +0.000 C 
ATOM     28  O   UNL     1       9.999  13.942  20.716  0.00  0.00    +0.000 OA
ENDBRANCH  21  28
ENDBRANCH  20  24
ENDBRANCH  19  20
ENDBRANCH  18  19
ENDBRANCH  16  18
ENDBRANCH   1  16
TORSDOF 8
ENDMDL
MODEL 6
REMARK VINA RESULT:      -7.6      5.123      7.415
REMARK  Name = 
REMARK  9 active torsions:
REMARK  status: ('A' for Active; 'I' for Inactive)
REMARK    1  A    between atoms: C_1  and  O_2
REMARK    2  A    between atoms: O_2  and  C_3
REMARK    3  A    between atoms: C_6  and  O_7
REMARK    4  A    between atoms: O_7  and  C_8
REMARK    5  A    between atoms: C_8  and  C_9
REMARK    6  A    between atoms: C_9  and  N_10
REMARK    7  A    between atoms: N_10  and  C_11
REMARK    8  A    between atoms: C_13  and  N_14
REMARK    9  A    between atoms: C_22  and  N_23
REMARK                            x       y       z     vdW  Elec       q    Type
REMARK                         _______ _______ _______ _____ _____    ______ ____
ROOT
ATOM      1  C   UNL     1       3.914   6.043  17.457  0.00  0.00    +0.000 A 
ATOM      2  C   UNL     1       3.178   5.175  18.283  0.00  0.00    +0.000 A 
ATOM      3  C   UNL     1       3.374   3.786  18.328  0.00  0.00    +0.000 A 
ATOM      4  C   UNL     1       4.265   3.246  17.392  0.00  0.00    +0.000 A 
ATOM      5  C   UNL     1       4.990   4.056  16.519  0.00  0.00    +0.000 A 
ATOM      6  C   UNL     1       4.824   5.448  16.580  0.00  0.00    +0.000 A 
ENDROOT
BRANCH   3   7
ATOM      7  N   UNL     1       2.730   3.005  19.263  0.00  0.00    +0.000 N 
ATOM      8  C   UNL     1       1.325   2.621  19.106  0.00  0.00    +0.000 C 
ATOM      9  C   UNL     1       0.558   3.075  20.343  0.00  0.00    +0.000 C 
ATOM     10  C   UNL     1       1.199   2.531  21.623  0.00  0.00    +0.000 C 
ATOM     11  C   UNL     1       2.693   2.859  21.680  0.00  0.00    +0.000 C 
ATOM     12  C   UNL     1       3.412   2.407  20.413  0.00  0.00    +0.000 C 
ENDBRANCH   3   7
BRANCH   6  13
ATOM     13  N   UNL     1       5.722   6.259  15.775  0.00  0.00    +0.000 N 
ATOM     14  O   UNL     1       5.212   7.073  14.994  0.00  0.00    +0.000 OA
ATOM     15  O   UNL     1       6.940   6.004  15.863  0.00  0.00    +0.000 OA
ENDBRANCH   6  13
BRANCH   1  16
ATOM     16  N   UNL     1       3.686   7.426  17.483  0.00  0.00    +0.000 N 
ATOM     17  H   UNL     1       3.584   7.796  16.539  0.00  0.00    +0.000 HD
BRANCH  16  18
ATOM     18  C   UNL     1       2.664   7.953  18.403  0.00  0.00    +0.000 C 
BRANCH  18  19
ATOM     19  C   UNL     1       1.637   8.841  17.681  0.00  0.00    +0.000 C 
BRANCH  19  20
ATOM     20  O   UNL     1       1.225   9.868  18.587  0.00  0.00    +0.000 OA
BRANCH  20  24
ATOM     21  C   UNL     1      -2.684  11.268  18.387  0.00  0.00    +0.000 A 
ATOM     22  C   UNL     1      -1.806  11.692  19.382  0.00  0.00    +0.000 A 
ATOM     23  C   UNL     1      -0.503  11.191  19.432  0.00  0.00    +0.000 A 
ATOM     24  C   UNL     1      -0.085  10.238  18.504  0.00  0.00    +0.000 A 
ATOM     25  C   UNL     1      -0.972   9.786  17.529  0.00  0.00    +0.000 A 
ATOM     26  C   UNL     1      -2.270  10.301  17.471  0.00  0.00    +0.000 A 
BRANCH  21  28
ATOM     27  C   UNL     1      -4.810  11.423  17.376  0.00  0.00    +0.000 C 
ATOM     28  O   UNL     1      -3.929  11.837  18.414  0.00  0.00    +0.000 OA
ENDBRANCH  21  28
ENDBRANCH  20  24
ENDBRANCH  19  20
ENDBRANCH  18  19
ENDBRANCH  16  18
ENDBRANCH   1  16
TORSDOF 8
ENDMDL
MODEL 7
REMARK VINA RESULT:      -7.6      1.450      1.958
REMARK  Name = 
REMARK  9 active torsions:
REMARK  status: ('A' for Active; 'I' for Inactive)
REMARK    1  A    between atoms: C_1  and  O_2
REMARK    2  A    between atoms: O_2  and  C_3
REMARK    3  A    between atoms: C_6  and  O_7
REMARK    4  A    between atoms: O_7  and  C_8
REMARK    5  A    between atoms: C_8  and  C_9
REMARK    6  A    between atoms: C_9  and  N_10
REMARK    7  A    between atoms: N_10  and  C_11
REMARK    8  A    between atoms: C_13  and  N_14
REMARK    9  A    between atoms: C_22  and  N_23
REMARK                            x       y       z     vdW  Elec       q    Type
REMARK                         _______ _______ _______ _____ _____    ______ ____
ROOT
ATOM      1  C   UNL     1       5.973   4.968  17.844  0.00  0.00    +0.000 A 
ATOM      2  C   UNL     1       5.024   4.436  18.733  0.00  0.00    +0.000 A 
ATOM      3  C   UNL     1       3.999   3.557  18.348  0.00  0.00    +0.000 A 
ATOM      4  C   UNL     1       3.857   3.319  16.975  0.00  0.00    +0.000 A 
ATOM      5  C   UNL     1       4.745   3.856  16.043  0.00  0.00    +0.000 A 
ATOM      6  C   UNL     1       5.808   4.653  16.492  0.00  0.00    +0.000 A 
ENDROOT
BRANCH   3   7
ATOM      7  N   UNL     1       3.191   2.950  19.285  0.00  0.00    +0.000 N 
ATOM      8  C   UNL     1       1.904   2.353  18.917  0.00  0.00    +0.000 C 
ATOM      9  C   UNL     1       0.813   2.988  19.771  0.00  0.00    +0.000 C 
ATOM     10  C   UNL     1       1.138   2.867  21.263  0.00  0.00    +0.000 C 
ATOM     11  C   UNL     1       2.539   3.398  21.573  0.00  0.00    +0.000 C 
ATOM     12  C   UNL     1       3.591   2.750  20.679  0.00  0.00    +0.000 C 
ENDBRANCH   3   7
BRANCH   6  13
ATOM     13  N   UNL     1       6.803   5.047  15.509  0.00  0.00    +0.000 N 
ATOM     14  O   UNL     1       6.414   5.696  14.529  0.00  0.00    +0.000 OA
ATOM     15  O   UNL     1       7.961   4.616  15.678  0.00  0.00    +0.000 OA
ENDBRANCH   6  13
BRANCH   1  16
ATOM     16  N   UNL     1       6.989   5.819  18.300  0.00  0.00    +0.000 N 
ATOM     17  H   UNL     1       7.908   5.454  18.055  0.00  0.00    +0.000 HD
BRANCH  16  18
ATOM     18  C   UNL     1       6.871   7.262  18.030  0.00  0.00    +0.000 C 
BRANCH  18  19
ATOM     19  C   UNL     1       8.213   7.994  18.194  0.00  0.00    +0.000 C 
BRANCH  19  20
ATOM     20  O   UNL     1       7.999   9.380  17.909  0.00  0.00    +0.000 OA
BRANCH  20  24
ATOM     21  C   UNL     1      11.038  11.768  19.439  0.00  0.00    +0.000 A 
ATOM     22  C   UNL     1      10.167  11.070  20.273  0.00  0.00    +0.000 A 
ATOM     23  C   UNL     1       9.146  10.289  19.728  0.00  0.00    +0.000 A 
ATOM     24  C   UNL     1       8.972  10.229  18.346  0.00  0.00    +0.000 A 
ATOM     25  C   UNL     1       9.821  10.953  17.511  0.00  0.00    +0.000 A 
ATOM     26  C   UNL     1      10.852  11.723  18.058  0.00  0.00    +0.000 A 
BRANCH  21  28
ATOM     27  C   UNL     1      12.087  13.863  19.720  0.00  0.00    +0.000 C 
ATOM     28  O   UNL     1      12.017  12.485  20.073  0.00  0.00    +0.000 OA
ENDBRANCH  21  28
ENDBRANCH  20  24
ENDBRANCH  19  20
ENDBRANCH  18  19
ENDBRANCH  16  18
ENDBRANCH   1  16
TORSDOF 8
ENDMDL
MODEL 8
REMARK VINA RESULT:      -7.5      4.913      7.558
REMARK  Name = 
REMARK  9 active torsions:
REMARK  status: ('A' for Active; 'I' for Inactive)
REMARK    1  A    between atoms: C_1  and  O_2
REMARK    2  A    between atoms: O_2  and  C_3
REMARK    3  A    between atoms: C_6  and  O_7
REMARK    4  A    between atoms: O_7  and  C_8
REMARK    5  A    between atoms: C_8  and  C_9
REMARK    6  A    between atoms: C_9  and  N_10
REMARK    7  A    between atoms: N_10  and  C_11
REMARK    8  A    between atoms: C_13  and  N_14
REMARK    9  A    between atoms: C_22  and  N_23
REMARK                            x       y       z     vdW  Elec       q    Type
REMARK                         _______ _______ _______ _____ _____    ______ ____
ROOT
ATOM      1  C   UNL     1       4.163   4.793  18.743  0.00  0.00    +0.000 A 
ATOM      2  C   UNL     1       3.637   6.097  18.740  0.00  0.00    +0.000 A 
ATOM      3  C   UNL     1       2.490   6.477  19.452  0.00  0.00    +0.000 A 
ATOM      4  C   UNL     1       1.773   5.454  20.086  0.00  0.00    +0.000 A 
ATOM      5  C   UNL     1       2.227   4.135  20.086  0.00  0.00    +0.000 A 
ATOM      6  C   UNL     1       3.430   3.825  19.435  0.00  0.00    +0.000 A 
ENDROOT
BRANCH   3   7
ATOM      7  N   UNL     1       2.107   7.799  19.534  0.00  0.00    +0.000 N 
ATOM      8  C   UNL     1       1.565   8.366  20.772  0.00  0.00    +0.000 C 
ATOM      9  C   UNL     1       0.198   8.969  20.471  0.00  0.00    +0.000 C 
ATOM     10  C   UNL     1       0.279   9.979  19.322  0.00  0.00    +0.000 C 
ATOM     11  C   UNL     1       0.959   9.371  18.093  0.00  0.00    +0.000 C 
ATOM     12  C   UNL     1       2.311   8.760  18.449  0.00  0.00    +0.000 C 
ENDBRANCH   3   7
BRANCH   6  13
ATOM     13  N   UNL     1       3.949   2.478  19.606  0.00  0.00    +0.000 N 
ATOM     14  O   UNL     1       4.984   2.344  20.271  0.00  0.00    +0.000 OA
ATOM     15  O   UNL     1       3.363   1.569  18.985  0.00  0.00    +0.000 OA
ENDBRANCH   6  13
BRANCH   1  16
ATOM     16  N   UNL     1       5.331   4.487  18.031  0.00  0.00    +0.000 N 
ATOM     17  H   UNL     1       5.169   3.722  17.377  0.00  0.00    +0.000 HD
BRANCH  16  18
ATOM     18  C   UNL     1       6.093   5.590  17.423  0.00  0.00    +0.000 C 
BRANCH  18  19
ATOM     19  C   UNL     1       7.292   5.085  16.604  0.00  0.00    +0.000 C 
BRANCH  19  20
ATOM     20  O   UNL     1       7.236   5.696  15.311  0.00  0.00    +0.000 OA
BRANCH  20  24
ATOM     21  C   UNL     1       5.888   3.218  12.258  0.00  0.00    +0.000 A 
ATOM     22  C   UNL     1       7.131   3.846  12.195  0.00  0.00    +0.000 A 
ATOM     23  C   UNL     1       7.548   4.686  13.230  0.00  0.00    +0.000 A 
ATOM     24  C   UNL     1       6.709   4.925  14.318  0.00  0.00    +0.000 A 
ATOM     25  C   UNL     1       5.452   4.326  14.366  0.00  0.00    +0.000 A 
ATOM     26  C   UNL     1       5.042   3.473  13.337  0.00  0.00    +0.000 A 
BRANCH  21  28
ATOM     27  C   UNL     1       6.515   1.348  10.964  0.00  0.00    +0.000 C 
ATOM     28  O   UNL     1       5.585   2.399  11.204  0.00  0.00    +0.000 OA
ENDBRANCH  21  28
ENDBRANCH  20  24
ENDBRANCH  19  20
ENDBRANCH  18  19
ENDBRANCH  16  18
ENDBRANCH   1  16
TORSDOF 8
ENDMDL
MODEL 9
REMARK VINA RESULT:      -7.5      5.075      6.613
REMARK  Name = 
REMARK  9 active torsions:
REMARK  status: ('A' for Active; 'I' for Inactive)
REMARK    1  A    between atoms: C_1  and  O_2
REMARK    2  A    between atoms: O_2  and  C_3
REMARK    3  A    between atoms: C_6  and  O_7
REMARK    4  A    between atoms: O_7  and  C_8
REMARK    5  A    between atoms: C_8  and  C_9
REMARK    6  A    between atoms: C_9  and  N_10
REMARK    7  A    between atoms: N_10  and  C_11
REMARK    8  A    between atoms: C_13  and  N_14
REMARK    9  A    between atoms: C_22  and  N_23
REMARK                            x       y       z     vdW  Elec       q    Type
REMARK                         _______ _______ _______ _____ _____    ______ ____
ROOT
ATOM      1  C   UNL     1       3.725   6.239  17.461  0.00  0.00    +0.000 A 
ATOM      2  C   UNL     1       3.001   5.320  18.241  0.00  0.00    +0.000 A 
ATOM      3  C   UNL     1       3.284   3.946  18.293  0.00  0.00    +0.000 A 
ATOM      4  C   UNL     1       4.260   3.470  17.407  0.00  0.00    +0.000 A 
ATOM      5  C   UNL     1       4.980   4.332  16.580  0.00  0.00    +0.000 A 
ATOM      6  C   UNL     1       4.721   5.709  16.636  0.00  0.00    +0.000 A 
ENDROOT
BRANCH   3   7
ATOM      7  N   UNL     1       2.640   3.119  19.188  0.00  0.00    +0.000 N 
ATOM      8  C   UNL     1       1.187   2.933  19.152  0.00  0.00    +0.000 C 
ATOM      9  C   UNL     1       0.619   3.290  20.521  0.00  0.00    +0.000 C 
ATOM     10  C   UNL     1       1.310   2.492  21.632  0.00  0.00    +0.000 C 
ATOM     11  C   UNL     1       2.832   2.627  21.551  0.00  0.00    +0.000 C 
ATOM     12  C   UNL     1       3.349   2.282  20.157  0.00  0.00    +0.000 C 
ENDBRANCH   3   7
BRANCH   6  13
ATOM     13  N   UNL     1       5.608   6.582  15.885  0.00  0.00    +0.000 N 
ATOM     14  O   UNL     1       6.737   6.786  16.350  0.00  0.00    +0.000 OA
ATOM     15  O   UNL     1       5.128   7.138  14.877  0.00  0.00    +0.000 OA
ENDBRANCH   6  13
BRANCH   1  16
ATOM     16  N   UNL     1       3.407   7.604  17.477  0.00  0.00    +0.000 N 
ATOM     17  H   UNL     1       3.779   8.075  16.653  0.00  0.00    +0.000 HD
BRANCH  16  18
ATOM     18  C   UNL     1       2.018   7.999  17.767  0.00  0.00    +0.000 C 
BRANCH  18  19
ATOM     19  C   UNL     1       1.935   9.038  18.897  0.00  0.00    +0.000 C 
BRANCH  19  20
ATOM     20  O   UNL     1       1.390   8.395  20.052  0.00  0.00    +0.000 OA
BRANCH  20  24
ATOM     21  C   UNL     1      -0.551  11.013  22.633  0.00  0.00    +0.000 A 
ATOM     22  C   UNL     1      -0.150  11.407  21.358  0.00  0.00    +0.000 A 
ATOM     23  C   UNL     1       0.515  10.508  20.520  0.00  0.00    +0.000 A 
ATOM     24  C   UNL     1       0.809   9.221  20.968  0.00  0.00    +0.000 A 
ATOM     25  C   UNL     1       0.439   8.836  22.255  0.00  0.00    +0.000 A 
ATOM     26  C   UNL     1      -0.240   9.732  23.086  0.00  0.00    +0.000 A 
BRANCH  21  28
ATOM     27  C   UNL     1      -1.411  13.209  22.705  0.00  0.00    +0.000 C 
ATOM     28  O   UNL     1      -1.214  11.962  23.363  0.00  0.00    +0.000 OA
ENDBRANCH  21  28
ENDBRANCH  20  24
ENDBRANCH  19  20
ENDBRANCH  18  19
ENDBRANCH  16  18
ENDBRANCH   1  16
TORSDOF 8
ENDMDL
