MODEL 1
REMARK VINA RESULT:      -8.6      0.000      0.000
REMARK  Name = 
REMARK  5 active torsions:
REMARK  status: ('A' for Active; 'I' for Inactive)
REMARK    1  A    between atoms: C_2  and  C_3
REMARK    2  A    between atoms: C_2  and  O_16
REMARK    3  A    between atoms: C_3  and  C_4
REMARK    4  A    between atoms: C_4  and  N_5
REMARK    5  A    between atoms: O_16  and  C_17
REMARK                            x       y       z     vdW  Elec       q    Type
REMARK                         _______ _______ _______ _____ _____    ______ ____
ROOT
ATOM      1  O   UNL     1      -0.737   8.113  21.582  0.00  0.00    +0.000 OA
ATOM      2  C   UNL     1       0.333   8.706  21.553  0.00  0.00    +0.000 C 
ENDROOT
BRANCH   2   3
ATOM      3  C   UNL     1       0.472  10.202  21.738  0.00  0.00    +0.000 C 
BRANCH   3   4
ATOM      4  C   UNL     1       0.749  10.895  20.401  0.00  0.00    +0.000 C 
BRANCH   4   5
ATOM      5  N   UNL     1      -0.396  10.813  19.502  0.00  0.00    +0.000 N 
ATOM      6  C   UNL     1      -1.571  11.487  19.710  0.00  0.00    +0.000 C 
ATOM      7  O   UNL     1      -1.882  12.208  20.635  0.00  0.00    +0.000 OA
ATOM      8  C   UNL     1      -2.423  11.214  18.556  0.00  0.00    +0.000 A 
ATOM      9  C   UNL     1      -3.694  11.669  18.262  0.00  0.00    +0.000 A 
ATOM     10  C   UNL     1      -4.249  11.272  17.041  0.00  0.00    +0.000 A 
ATOM     11  C   UNL     1      -3.529  10.437  16.160  0.00  0.00    +0.000 A 
ATOM     12  C   UNL     1      -2.242   9.989  16.484  0.00  0.00    +0.000 A 
ATOM     13  C   UNL     1      -1.713  10.400  17.694  0.00  0.00    +0.000 A 
ATOM     14  C   UNL     1      -0.401  10.157  18.300  0.00  0.00    +0.000 C 
ATOM     15  O   UNL     1       0.491   9.518  17.773  0.00  0.00    +0.000 OA
ENDBRANCH   4   5
ENDBRANCH   3   4
ENDBRANCH   2   3
BRANCH   2  16
ATOM     16  O   UNL     1       1.594   8.131  21.323  0.00  0.00    +0.000 OA
BRANCH  16  17
ATOM     17  C   UNL     1       1.803   7.089  20.379  0.00  0.00    +0.000 A 
ATOM     18  C   UNL     1       2.393   7.303  19.137  0.00  0.00    +0.000 A 
ATOM     19  C   UNL     1       2.535   6.240  18.242  0.00  0.00    +0.000 A 
ATOM     20  C   UNL     1       2.153   4.937  18.595  0.00  0.00    +0.000 A 
ATOM     21  C   UNL     1       2.311   3.868  17.698  0.00  0.00    +0.000 A 
ATOM     22  C   UNL     1       1.984   2.565  18.075  0.00  0.00    +0.000 A 
ATOM     23  C   UNL     1       1.489   2.320  19.351  0.00  0.00    +0.000 A 
ATOM     24  C   UNL     1       1.298   3.378  20.244  0.00  0.00    +0.000 A 
ATOM     25  C   UNL     1       1.620   4.702  19.887  0.00  0.00    +0.000 A 
ATOM     26  C   UNL     1       1.438   5.795  20.763  0.00  0.00    +0.000 A 
ENDBRANCH  16  17
ENDBRANCH   2  16
TORSDOF 5
ENDMDL
MODEL 2
REMARK VINA RESULT:      -8.5      4.711      6.877
REMARK  Name = 
REMARK  5 active torsions:
REMARK  status: ('A' for Active; 'I' for Inactive)
REMARK    1  A    between atoms: C_2  and  C_3
REMARK    2  A    between atoms: C_2  and  O_16
REMARK    3  A    between atoms: C_3  and  C_4
REMARK    4  A    between atoms: C_4  and  N_5
REMARK    5  A    between atoms: O_16  and  C_17
REMARK                            x       y       z     vdW  Elec       q    Type
REMARK                         _______ _______ _______ _____ _____    ______ ____
ROOT
ATOM      1  O   UNL     1       5.838   4.362  14.555  0.00  0.00    +0.000 OA
ATOM      2  C   UNL     1       6.000   3.849  15.655  0.00  0.00    +0.000 C 
ENDROOT
BRANCH   2   3
ATOM      3  C   UNL     1       7.117   4.227  16.604  0.00  0.00    +0.000 C 
BRANCH   3   4
ATOM      4  C   UNL     1       7.153   5.742  16.830  0.00  0.00    +0.000 C 
BRANCH   4   5
ATOM      5  N   UNL     1       5.912   6.230  17.418  0.00  0.00    +0.000 N 
ATOM      6  C   UNL     1       4.961   6.922  16.715  0.00  0.00    +0.000 C 
ATOM      7  O   UNL     1       4.979   7.271  15.553  0.00  0.00    +0.000 OA
ATOM      8  C   UNL     1       3.845   7.152  17.627  0.00  0.00    +0.000 A 
ATOM      9  C   UNL     1       2.633   7.780  17.410  0.00  0.00    +0.000 A 
ATOM     10  C   UNL     1       1.727   7.807  18.474  0.00  0.00    +0.000 A 
ATOM     11  C   UNL     1       2.054   7.218  19.714  0.00  0.00    +0.000 A 
ATOM     12  C   UNL     1       3.290   6.589  19.908  0.00  0.00    +0.000 A 
ATOM     13  C   UNL     1       4.167   6.570  18.838  0.00  0.00    +0.000 A 
ATOM     14  C   UNL     1       5.493   5.962  18.694  0.00  0.00    +0.000 C 
ATOM     15  O   UNL     1       6.052   5.320  19.565  0.00  0.00    +0.000 OA
ENDBRANCH   4   5
ENDBRANCH   3   4
ENDBRANCH   2   3
BRANCH   2  16
ATOM     16  O   UNL     1       5.219   2.824  16.215  0.00  0.00    +0.000 OA
BRANCH  16  17
ATOM     17  C   UNL     1       4.130   3.079  17.093  0.00  0.00    +0.000 A 
ATOM     18  C   UNL     1       2.931   3.638  16.664  0.00  0.00    +0.000 A 
ATOM     19  C   UNL     1       1.914   3.896  17.587  0.00  0.00    +0.000 A 
ATOM     20  C   UNL     1       2.052   3.539  18.937  0.00  0.00    +0.000 A 
ATOM     21  C   UNL     1       1.023   3.786  19.860  0.00  0.00    +0.000 A 
ATOM     22  C   UNL     1       1.140   3.377  21.189  0.00  0.00    +0.000 A 
ATOM     23  C   UNL     1       2.294   2.723  21.609  0.00  0.00    +0.000 A 
ATOM     24  C   UNL     1       3.339   2.498  20.710  0.00  0.00    +0.000 A 
ATOM     25  C   UNL     1       3.244   2.902  19.364  0.00  0.00    +0.000 A 
ATOM     26  C   UNL     1       4.281   2.692  18.428  0.00  0.00    +0.000 A 
ENDBRANCH  16  17
ENDBRANCH   2  16
TORSDOF 5
ENDMDL
MODEL 3
REMARK VINA RESULT:      -8.4      4.695      6.835
REMARK  Name = 
REMARK  5 active torsions:
REMARK  status: ('A' for Active; 'I' for Inactive)
REMARK    1  A    between atoms: C_2  and  C_3
REMARK    2  A    between atoms: C_2  and  O_16
REMARK    3  A    between atoms: C_3  and  C_4
REMARK    4  A    between atoms: C_4  and  N_5
REMARK    5  A    between atoms: O_16  and  C_17
REMARK                            x       y       z     vdW  Elec       q    Type
REMARK                         _______ _______ _______ _____ _____    ______ ____
ROOT
ATOM      1  O   UNL     1       5.527   4.275  14.527  0.00  0.00    +0.000 OA
ATOM      2  C   UNL     1       5.846   3.787  15.604  0.00  0.00    +0.000 C 
ENDROOT
BRANCH   2   3
ATOM      3  C   UNL     1       7.083   4.191  16.377  0.00  0.00    +0.000 C 
BRANCH   3   4
ATOM      4  C   UNL     1       7.065   5.689  16.693  0.00  0.00    +0.000 C 
BRANCH   4   5
ATOM      5  N   UNL     1       5.787   6.108  17.255  0.00  0.00    +0.000 N 
ATOM      6  C   UNL     1       5.410   5.857  18.549  0.00  0.00    +0.000 C 
ATOM      7  O   UNL     1       6.009   5.250  19.412  0.00  0.00    +0.000 OA
ATOM      8  C   UNL     1       4.117   6.507  18.745  0.00  0.00    +0.000 A 
ATOM      9  C   UNL     1       3.319   6.577  19.871  0.00  0.00    +0.000 A 
ATOM     10  C   UNL     1       2.140   7.322  19.773  0.00  0.00    +0.000 A 
ATOM     11  C   UNL     1       1.790   7.963  18.565  0.00  0.00    +0.000 A 
ATOM     12  C   UNL     1       2.617   7.874  17.439  0.00  0.00    +0.000 A 
ATOM     13  C   UNL     1       3.782   7.137  17.562  0.00  0.00    +0.000 A 
ATOM     14  C   UNL     1       4.868   6.892  16.610  0.00  0.00    +0.000 C 
ATOM     15  O   UNL     1       4.912   7.353  15.484  0.00  0.00    +0.000 OA
ENDBRANCH   4   5
ENDBRANCH   3   4
ENDBRANCH   2   3
BRANCH   2  16
ATOM     16  O   UNL     1       5.159   2.771  16.290  0.00  0.00    +0.000 OA
BRANCH  16  17
ATOM     17  C   UNL     1       4.067   3.035  17.160  0.00  0.00    +0.000 A 
ATOM     18  C   UNL     1       2.876   3.608  16.725  0.00  0.00    +0.000 A 
ATOM     19  C   UNL     1       1.855   3.872  17.641  0.00  0.00    +0.000 A 
ATOM     20  C   UNL     1       1.979   3.509  18.990  0.00  0.00    +0.000 A 
ATOM     21  C   UNL     1       0.945   3.764  19.906  0.00  0.00    +0.000 A 
ATOM     22  C   UNL     1       1.048   3.349  21.234  0.00  0.00    +0.000 A 
ATOM     23  C   UNL     1       2.192   2.682  21.661  0.00  0.00    +0.000 A 
ATOM     24  C   UNL     1       3.241   2.448  20.769  0.00  0.00    +0.000 A 
ATOM     25  C   UNL     1       3.161   2.858  19.424  0.00  0.00    +0.000 A 
ATOM     26  C   UNL     1       4.203   2.641  18.496  0.00  0.00    +0.000 A 
ENDBRANCH  16  17
ENDBRANCH   2  16
TORSDOF 5
ENDMDL
MODEL 4
REMARK VINA RESULT:      -8.1      3.700      7.939
REMARK  Name = 
REMARK  5 active torsions:
REMARK  status: ('A' for Active; 'I' for Inactive)
REMARK    1  A    between atoms: C_2  and  C_3
REMARK    2  A    between atoms: C_2  and  O_16
REMARK    3  A    between atoms: C_3  and  C_4
REMARK    4  A    between atoms: C_4  and  N_5
REMARK    5  A    between atoms: O_16  and  C_17
REMARK                            x       y       z     vdW  Elec       q    Type
REMARK                         _______ _______ _______ _____ _____    ______ ____
ROOT
ATOM      1  O   UNL     1       0.548   4.067  20.338  0.00  0.00    +0.000 OA
ATOM      2  C   UNL     1       1.768   4.025  20.246  0.00  0.00    +0.000 C 
ENDROOT
BRANCH   2   3
ATOM      3  C   UNL     1       2.550   2.753  19.998  0.00  0.00    +0.000 C 
BRANCH   3   4
ATOM      4  C   UNL     1       4.053   2.992  20.175  0.00  0.00    +0.000 C 
BRANCH   4   5
ATOM      5  N   UNL     1       4.670   3.480  18.948  0.00  0.00    +0.000 N 
ATOM      6  C   UNL     1       4.223   3.156  17.694  0.00  0.00    +0.000 C 
ATOM      7  O   UNL     1       3.310   2.422  17.378  0.00  0.00    +0.000 OA
ATOM      8  C   UNL     1       5.043   3.906  16.747  0.00  0.00    +0.000 A 
ATOM      9  C   UNL     1       4.987   3.955  15.367  0.00  0.00    +0.000 A 
ATOM     10  C   UNL     1       5.882   4.814  14.721  0.00  0.00    +0.000 A 
ATOM     11  C   UNL     1       6.800   5.588  15.462  0.00  0.00    +0.000 A 
ATOM     12  C   UNL     1       6.836   5.518  16.860  0.00  0.00    +0.000 A 
ATOM     13  C   UNL     1       5.937   4.665  17.476  0.00  0.00    +0.000 A 
ATOM     14  C   UNL     1       5.683   4.400  18.895  0.00  0.00    +0.000 C 
ATOM     15  O   UNL     1       6.265   4.951  19.812  0.00  0.00    +0.000 OA
ENDBRANCH   4   5
ENDBRANCH   3   4
ENDBRANCH   2   3
BRANCH   2  16
ATOM     16  O   UNL     1       2.647   5.113  20.375  0.00  0.00    +0.000 OA
BRANCH  16  17
ATOM     17  C   UNL     1       2.417   6.367  19.746  0.00  0.00    +0.000 A 
ATOM     18  C   UNL     1       2.808   6.639  18.439  0.00  0.00    +0.000 A 
ATOM     19  C   UNL     1       2.582   7.905  17.894  0.00  0.00    +0.000 A 
ATOM     20  C   UNL     1       1.904   8.897  18.620  0.00  0.00    +0.000 A 
ATOM     21  C   UNL     1       1.666  10.164  18.064  0.00  0.00    +0.000 A 
ATOM     22  C   UNL     1       0.940  11.128  18.765  0.00  0.00    +0.000 A 
ATOM     23  C   UNL     1       0.453  10.834  20.035  0.00  0.00    +0.000 A 
ATOM     24  C   UNL     1       0.708   9.588  20.613  0.00  0.00    +0.000 A 
ATOM     25  C   UNL     1       1.438   8.600  19.925  0.00  0.00    +0.000 A 
ATOM     26  C   UNL     1       1.717   7.331  20.479  0.00  0.00    +0.000 A 
ENDBRANCH  16  17
ENDBRANCH   2  16
TORSDOF 5
ENDMDL
MODEL 5
REMARK VINA RESULT:      -8.1      3.960      7.764
REMARK  Name = 
REMARK  5 active torsions:
REMARK  status: ('A' for Active; 'I' for Inactive)
REMARK    1  A    between atoms: C_2  and  C_3
REMARK    2  A    between atoms: C_2  and  O_16
REMARK    3  A    between atoms: C_3  and  C_4
REMARK    4  A    between atoms: C_4  and  N_5
REMARK    5  A    between atoms: O_16  and  C_17
REMARK                            x       y       z     vdW  Elec       q    Type
REMARK                         _______ _______ _______ _____ _____    ______ ____
ROOT
ATOM      1  O   UNL     1       1.110   2.845  22.104  0.00  0.00    +0.000 OA
ATOM      2  C   UNL     1       1.566   3.358  21.090  0.00  0.00    +0.000 C 
ENDROOT
BRANCH   2   3
ATOM      3  C   UNL     1       1.246   2.882  19.689  0.00  0.00    +0.000 C 
BRANCH   3   4
ATOM      4  C   UNL     1       2.418   2.092  19.099  0.00  0.00    +0.000 C 
BRANCH   4   5
ATOM      5  N   UNL     1       3.386   2.966  18.449  0.00  0.00    +0.000 N 
ATOM      6  C   UNL     1       4.631   3.228  18.958  0.00  0.00    +0.000 C 
ATOM      7  O   UNL     1       5.127   2.839  19.995  0.00  0.00    +0.000 OA
ATOM      8  C   UNL     1       5.319   4.067  17.980  0.00  0.00    +0.000 A 
ATOM      9  C   UNL     1       6.600   4.586  17.998  0.00  0.00    +0.000 A 
ATOM     10  C   UNL     1       7.006   5.324  16.882  0.00  0.00    +0.000 A 
ATOM     11  C   UNL     1       6.131   5.525  15.793  0.00  0.00    +0.000 A 
ATOM     12  C   UNL     1       4.838   4.988  15.802  0.00  0.00    +0.000 A 
ATOM     13  C   UNL     1       4.461   4.256  16.914  0.00  0.00    +0.000 A 
ATOM     14  C   UNL     1       3.222   3.532  17.213  0.00  0.00    +0.000 C 
ATOM     15  O   UNL     1       2.274   3.451  16.453  0.00  0.00    +0.000 OA
ENDBRANCH   4   5
ENDBRANCH   3   4
ENDBRANCH   2   3
BRANCH   2  16
ATOM     16  O   UNL     1       2.467   4.435  21.039  0.00  0.00    +0.000 OA
BRANCH  16  17
ATOM     17  C   UNL     1       2.074   5.750  20.668  0.00  0.00    +0.000 A 
ATOM     18  C   UNL     1       1.240   6.538  21.455  0.00  0.00    +0.000 A 
ATOM     19  C   UNL     1       0.863   7.809  21.013  0.00  0.00    +0.000 A 
ATOM     20  C   UNL     1       1.365   8.339  19.815  0.00  0.00    +0.000 A 
ATOM     21  C   UNL     1       0.996   9.622  19.380  0.00  0.00    +0.000 A 
ATOM     22  C   UNL     1       1.542  10.168  18.219  0.00  0.00    +0.000 A 
ATOM     23  C   UNL     1       2.458   9.431  17.475  0.00  0.00    +0.000 A 
ATOM     24  C   UNL     1       2.811   8.141  17.878  0.00  0.00    +0.000 A 
ATOM     25  C   UNL     1       2.273   7.568  19.046  0.00  0.00    +0.000 A 
ATOM     26  C   UNL     1       2.606   6.266  19.482  0.00  0.00    +0.000 A 
ENDBRANCH  16  17
ENDBRANCH   2  16
TORSDOF 5
ENDMDL
MODEL 6
REMARK VINA RESULT:      -8.1      3.717      7.868
REMARK  Name = 
REMARK  5 active torsions:
REMARK  status: ('A' for Active; 'I' for Inactive)
REMARK    1  A    between atoms: C_2  and  C_3
REMARK    2  A    between atoms: C_2  and  O_16
REMARK    3  A    between atoms: C_3  and  C_4
REMARK    4  A    between atoms: C_4  and  N_5
REMARK    5  A    between atoms: O_16  and  C_17
REMARK                            x       y       z     vdW  Elec       q    Type
REMARK                         _______ _______ _______ _____ _____    ______ ____
ROOT
ATOM      1  O   UNL     1       5.910   7.444  17.172  0.00  0.00    +0.000 OA
ATOM      2  C   UNL     1       5.234   6.423  17.173  0.00  0.00    +0.000 C 
ENDROOT
BRANCH   2   3
ATOM      3  C   UNL     1       5.818   5.027  17.137  0.00  0.00    +0.000 C 
BRANCH   3   4
ATOM      4  C   UNL     1       4.768   4.006  16.688  0.00  0.00    +0.000 C 
BRANCH   4   5
ATOM      5  N   UNL     1       3.917   3.585  17.794  0.00  0.00    +0.000 N 
ATOM      6  C   UNL     1       4.380   3.366  19.065  0.00  0.00    +0.000 C 
ATOM      7  O   UNL     1       5.516   3.441  19.484  0.00  0.00    +0.000 OA
ATOM      8  C   UNL     1       3.217   3.047  19.888  0.00  0.00    +0.000 A 
ATOM      9  C   UNL     1       3.134   2.768  21.239  0.00  0.00    +0.000 A 
ATOM     10  C   UNL     1       1.859   2.545  21.768  0.00  0.00    +0.000 A 
ATOM     11  C   UNL     1       0.716   2.600  20.942  0.00  0.00    +0.000 A 
ATOM     12  C   UNL     1       0.829   2.884  19.576  0.00  0.00    +0.000 A 
ATOM     13  C   UNL     1       2.100   3.107  19.077  0.00  0.00    +0.000 A 
ATOM     14  C   UNL     1       2.554   3.470  17.731  0.00  0.00    +0.000 C 
ATOM     15  O   UNL     1       1.812   3.658  16.784  0.00  0.00    +0.000 OA
ENDBRANCH   4   5
ENDBRANCH   3   4
ENDBRANCH   2   3
BRANCH   2  16
ATOM     16  O   UNL     1       3.830   6.358  17.179  0.00  0.00    +0.000 OA
BRANCH  16  17
ATOM     17  C   UNL     1       3.032   7.059  18.123  0.00  0.00    +0.000 A 
ATOM     18  C   UNL     1       2.866   6.632  19.437  0.00  0.00    +0.000 A 
ATOM     19  C   UNL     1       2.039   7.351  20.303  0.00  0.00    +0.000 A 
ATOM     20  C   UNL     1       1.418   8.541  19.893  0.00  0.00    +0.000 A 
ATOM     21  C   UNL     1       0.597   9.268  20.770  0.00  0.00    +0.000 A 
ATOM     22  C   UNL     1       0.029  10.481  20.378  0.00  0.00    +0.000 A 
ATOM     23  C   UNL     1       0.270  10.973  19.100  0.00  0.00    +0.000 A 
ATOM     24  C   UNL     1       1.060  10.245  18.205  0.00  0.00    +0.000 A 
ATOM     25  C   UNL     1       1.643   9.019  18.578  0.00  0.00    +0.000 A 
ATOM     26  C   UNL     1       2.444   8.256  17.700  0.00  0.00    +0.000 A 
ENDBRANCH  16  17
ENDBRANCH   2  16
TORSDOF 5
ENDMDL
MODEL 7
REMARK VINA RESULT:      -8.1      4.080      7.630
REMARK  Name = 
REMARK  5 active torsions:
REMARK  status: ('A' for Active; 'I' for Inactive)
REMARK    1  A    between atoms: C_2  and  C_3
REMARK    2  A    between atoms: C_2  and  O_16
REMARK    3  A    between atoms: C_3  and  C_4
REMARK    4  A    between atoms: C_4  and  N_5
REMARK    5  A    between atoms: O_16  and  C_17
REMARK                            x       y       z     vdW  Elec       q    Type
REMARK                         _______ _______ _______ _____ _____    ______ ____
ROOT
ATOM      1  O   UNL     1       6.284   7.349  17.274  0.00  0.00    +0.000 OA
ATOM      2  C   UNL     1       5.583   6.348  17.199  0.00  0.00    +0.000 C 
ENDROOT
BRANCH   2   3
ATOM      3  C   UNL     1       6.124   4.935  17.238  0.00  0.00    +0.000 C 
BRANCH   3   4
ATOM      4  C   UNL     1       5.077   3.934  16.741  0.00  0.00    +0.000 C 
BRANCH   4   5
ATOM      5  N   UNL     1       4.130   3.577  17.790  0.00  0.00    +0.000 N 
ATOM      6  C   UNL     1       4.471   3.469  19.113  0.00  0.00    +0.000 C 
ATOM      7  O   UNL     1       5.559   3.607  19.632  0.00  0.00    +0.000 OA
ATOM      8  C   UNL     1       3.239   3.184  19.844  0.00  0.00    +0.000 A 
ATOM      9  C   UNL     1       3.030   3.009  21.199  0.00  0.00    +0.000 A 
ATOM     10  C   UNL     1       1.714   2.793  21.619  0.00  0.00    +0.000 A 
ATOM     11  C   UNL     1       0.656   2.753  20.686  0.00  0.00    +0.000 A 
ATOM     12  C   UNL     1       0.898   2.933  19.318  0.00  0.00    +0.000 A 
ATOM     13  C   UNL     1       2.207   3.151  18.927  0.00  0.00    +0.000 A 
ATOM     14  C   UNL     1       2.782   3.421  17.607  0.00  0.00    +0.000 C 
ATOM     15  O   UNL     1       2.133   3.516  16.581  0.00  0.00    +0.000 OA
ENDBRANCH   4   5
ENDBRANCH   3   4
ENDBRANCH   2   3
BRANCH   2  16
ATOM     16  O   UNL     1       4.187   6.324  17.037  0.00  0.00    +0.000 OA
BRANCH  16  17
ATOM     17  C   UNL     1       3.319   7.217  17.723  0.00  0.00    +0.000 A 
ATOM     18  C   UNL     1       2.897   8.427  17.179  0.00  0.00    +0.000 A 
ATOM     19  C   UNL     1       2.072   9.274  17.923  0.00  0.00    +0.000 A 
ATOM     20  C   UNL     1       1.600   8.899  19.190  0.00  0.00    +0.000 A 
ATOM     21  C   UNL     1       0.759   9.746  19.929  0.00  0.00    +0.000 A 
ATOM     22  C   UNL     1       0.245   9.345  21.162  0.00  0.00    +0.000 A 
ATOM     23  C   UNL     1       0.575   8.094  21.672  0.00  0.00    +0.000 A 
ATOM     24  C   UNL     1       1.435   7.252  20.963  0.00  0.00    +0.000 A 
ATOM     25  C   UNL     1       1.967   7.635  19.716  0.00  0.00    +0.000 A 
ATOM     26  C   UNL     1       2.841   6.811  18.973  0.00  0.00    +0.000 A 
ENDBRANCH  16  17
ENDBRANCH   2  16
TORSDOF 5
ENDMDL
MODEL 8
REMARK VINA RESULT:      -8.0      3.798      7.664
REMARK  Name = 
REMARK  5 active torsions:
REMARK  status: ('A' for Active; 'I' for Inactive)
REMARK    1  A    between atoms: C_2  and  C_3
REMARK    2  A    between atoms: C_2  and  O_16
REMARK    3  A    between atoms: C_3  and  C_4
REMARK    4  A    between atoms: C_4  and  N_5
REMARK    5  A    between atoms: O_16  and  C_17
REMARK                            x       y       z     vdW  Elec       q    Type
REMARK                         _______ _______ _______ _____ _____    ______ ____
ROOT
ATOM      1  O   UNL     1       5.427   7.236  17.696  0.00  0.00    +0.000 OA
ATOM      2  C   UNL     1       4.599   6.515  17.155  0.00  0.00    +0.000 C 
ENDROOT
BRANCH   2   3
ATOM      3  C   UNL     1       4.936   5.502  16.083  0.00  0.00    +0.000 C 
BRANCH   3   4
ATOM      4  C   UNL     1       5.114   4.106  16.686  0.00  0.00    +0.000 C 
BRANCH   4   5
ATOM      5  N   UNL     1       4.176   3.864  17.776  0.00  0.00    +0.000 N 
ATOM      6  C   UNL     1       2.871   3.492  17.583  0.00  0.00    +0.000 C 
ATOM      7  O   UNL     1       2.271   3.334  16.541  0.00  0.00    +0.000 OA
ATOM      8  C   UNL     1       2.297   3.267  18.907  0.00  0.00    +0.000 A 
ATOM      9  C   UNL     1       1.028   2.856  19.267  0.00  0.00    +0.000 A 
ATOM     10  C   UNL     1       0.777   2.677  20.631  0.00  0.00    +0.000 A 
ATOM     11  C   UNL     1       1.788   2.915  21.587  0.00  0.00    +0.000 A 
ATOM     12  C   UNL     1       3.066   3.331  21.194  0.00  0.00    +0.000 A 
ATOM     13  C   UNL     1       3.291   3.496  19.839  0.00  0.00    +0.000 A 
ATOM     14  C   UNL     1       4.505   3.865  19.105  0.00  0.00    +0.000 C 
ATOM     15  O   UNL     1       5.583   4.083  19.627  0.00  0.00    +0.000 OA
ENDBRANCH   4   5
ENDBRANCH   3   4
ENDBRANCH   2   3
BRANCH   2  16
ATOM     16  O   UNL     1       3.215   6.513  17.402  0.00  0.00    +0.000 OA
BRANCH  16  17
ATOM     17  C   UNL     1       2.557   7.561  18.100  0.00  0.00    +0.000 A 
ATOM     18  C   UNL     1       2.191   8.758  17.494  0.00  0.00    +0.000 A 
ATOM     19  C   UNL     1       1.578   9.762  18.248  0.00  0.00    +0.000 A 
ATOM     20  C   UNL     1       1.261   9.562  19.600  0.00  0.00    +0.000 A 
ATOM     21  C   UNL     1       0.632  10.568  20.352  0.00  0.00    +0.000 A 
ATOM     22  C   UNL     1       0.266  10.345  21.680  0.00  0.00    +0.000 A 
ATOM     23  C   UNL     1       0.533   9.114  22.270  0.00  0.00    +0.000 A 
ATOM     24  C   UNL     1       1.185   8.114  21.544  0.00  0.00    +0.000 A 
ATOM     25  C   UNL     1       1.566   8.317  20.203  0.00  0.00    +0.000 A 
ATOM     26  C   UNL     1       2.228   7.330  19.440  0.00  0.00    +0.000 A 
ENDBRANCH  16  17
ENDBRANCH   2  16
TORSDOF 5
ENDMDL
MODEL 9
REMARK VINA RESULT:      -8.0      6.152      8.635
REMARK  Name = 
REMARK  5 active torsions:
REMARK  status: ('A' for Active; 'I' for Inactive)
REMARK    1  A    between atoms: C_2  and  C_3
REMARK    2  A    between atoms: C_2  and  O_16
REMARK    3  A    between atoms: C_3  and  C_4
REMARK    4  A    between atoms: C_4  and  N_5
REMARK    5  A    between atoms: O_16  and  C_17
REMARK                            x       y       z     vdW  Elec       q    Type
REMARK                         _______ _______ _______ _____ _____    ______ ____
ROOT
ATOM      1  O   UNL     1       8.343   6.711  18.998  0.00  0.00    +0.000 OA
ATOM      2  C   UNL     1       7.582   5.769  18.814  0.00  0.00    +0.000 C 
ENDROOT
BRANCH   2   3
ATOM      3  C   UNL     1       7.501   4.994  17.516  0.00  0.00    +0.000 C 
BRANCH   3   4
ATOM      4  C   UNL     1       7.048   5.898  16.366  0.00  0.00    +0.000 C 
BRANCH   4   5
ATOM      5  N   UNL     1       6.745   5.131  15.164  0.00  0.00    +0.000 N 
ATOM      6  C   UNL     1       5.597   4.399  15.002  0.00  0.00    +0.000 C 
ATOM      7  O   UNL     1       4.687   4.228  15.786  0.00  0.00    +0.000 OA
ATOM      8  C   UNL     1       5.630   3.858  13.646  0.00  0.00    +0.000 A 
ATOM      9  C   UNL     1       4.707   3.076  12.979  0.00  0.00    +0.000 A 
ATOM     10  C   UNL     1       4.990   2.746  11.650  0.00  0.00    +0.000 A 
ATOM     11  C   UNL     1       6.176   3.197  11.033  0.00  0.00    +0.000 A 
ATOM     12  C   UNL     1       7.095   3.988  11.733  0.00  0.00    +0.000 A 
ATOM     13  C   UNL     1       6.790   4.306  13.044  0.00  0.00    +0.000 A 
ATOM     14  C   UNL     1       7.498   5.140  14.020  0.00  0.00    +0.000 C 
ATOM     15  O   UNL     1       8.535   5.734  13.791  0.00  0.00    +0.000 OA
ENDBRANCH   4   5
ENDBRANCH   3   4
ENDBRANCH   2   3
BRANCH   2  16
ATOM     16  O   UNL     1       6.650   5.264  19.735  0.00  0.00    +0.000 OA
BRANCH  16  17
ATOM     17  C   UNL     1       5.292   5.013  19.396  0.00  0.00    +0.000 A 
ATOM     18  C   UNL     1       4.433   6.005  18.936  0.00  0.00    +0.000 A 
ATOM     19  C   UNL     1       3.100   5.696  18.655  0.00  0.00    +0.000 A 
ATOM     20  C   UNL     1       2.621   4.381  18.765  0.00  0.00    +0.000 A 
ATOM     21  C   UNL     1       1.284   4.071  18.468  0.00  0.00    +0.000 A 
ATOM     22  C   UNL     1       0.827   2.754  18.522  0.00  0.00    +0.000 A 
ATOM     23  C   UNL     1       1.703   1.735  18.881  0.00  0.00    +0.000 A 
ATOM     24  C   UNL     1       3.028   2.032  19.209  0.00  0.00    +0.000 A 
ATOM     25  C   UNL     1       3.512   3.353  19.163  0.00  0.00    +0.000 A 
ATOM     26  C   UNL     1       4.844   3.691  19.490  0.00  0.00    +0.000 A 
ENDBRANCH  16  17
ENDBRANCH   2  16
TORSDOF 5
ENDMDL
