MODEL 1
REMARK VINA RESULT:      -8.2      0.000      0.000
REMARK  Name = 
REMARK  11 active torsions:
REMARK  status: ('A' for Active; 'I' for Inactive)
REMARK    1  A    between atoms: C_2  and  C_3
REMARK    2  A    between atoms: C_3  and  O_4
REMARK    3  A    between atoms: O_4  and  C_5
REMARK    4  A    between atoms: C_5  and  C_7
REMARK    5  A    between atoms: C_9  and  C_10
REMARK    6  A    between atoms: C_13  and  C_14
REMARK    7  A    between atoms: C_21  and  O_22
REMARK    8  A    between atoms: O_22  and  C_23
REMARK    9  A    between atoms: C_23  and  C_24
REMARK   10  A    between atoms: C_27  and  C_28
REMARK   11  A    between atoms: C_28  and  O_29
REMARK                            x       y       z     vdW  Elec       q    Type
REMARK                         _______ _______ _______ _____ _____    ______ ____
ROOT
ATOM      1  C   UNL     1       7.010   6.199  17.238  0.00  0.00    +0.000 C 
ATOM      2  C   UNL     1       6.817   4.895  17.503  0.00  0.00    +0.000 C 
ATOM      3  C   UNL     1       5.786   4.048  16.809  0.00  0.00    +0.000 C 
ATOM      4  C   UNL     1       5.377   4.746  15.498  0.00  0.00    +0.000 C 
ATOM      5  C   UNL     1       5.200   6.256  15.676  0.00  0.00    +0.000 C 
ATOM      6  O   UNL     1       6.354   6.888  16.240  0.00  0.00    +0.000 OA
ENDROOT
BRANCH   3   7
ATOM      7  C   UNL     1       4.602   3.688  17.716  0.00  0.00    +0.000 A 
ATOM      8  C   UNL     1       4.680   3.780  19.118  0.00  0.00    +0.000 A 
ATOM      9  C   UNL     1       3.567   3.548  19.927  0.00  0.00    +0.000 A 
ATOM     10  C   UNL     1       2.334   3.219  19.360  0.00  0.00    +0.000 A 
ATOM     11  C   UNL     1       2.264   3.027  17.974  0.00  0.00    +0.000 A 
ATOM     12  C   UNL     1       3.387   3.251  17.164  0.00  0.00    +0.000 A 
BRANCH  10  13
ATOM     13  C   UNL     1       1.097   3.140  20.219  0.00  0.00    +0.000 C 
ATOM     14  F   UNL     1       0.670   4.354  20.670  0.00  0.00    +0.000 F 
ATOM     15  F   UNL     1       0.037   2.608  19.548  0.00  0.00    +0.000 F 
ATOM     16  F   UNL     1       1.264   2.368  21.327  0.00  0.00    +0.000 F 
ENDBRANCH  10  13
ENDBRANCH   3   7
BRANCH   1  17
ATOM     17  C   UNL     1       7.882   6.963  18.197  0.00  0.00    +0.000 C 
ATOM     18  O   UNL     1       8.363   6.480  19.210  0.00  0.00    +0.000 OA
BRANCH  17  19
ATOM     19  O   UNL     1       7.903   8.275  17.852  0.00  0.00    +0.000 OA
BRANCH  19  20
ATOM     20  C   UNL     1       8.667   9.112  18.729  0.00  0.00    +0.000 C 
BRANCH  20  22
ATOM     21  C   UNL     1       9.823  11.331  18.629  0.00  0.00    +0.000 C 
ATOM     22  C   UNL     1       9.068  10.387  18.052  0.00  0.00    +0.000 C 
ENDBRANCH  20  22
ENDBRANCH  19  20
ENDBRANCH  17  19
ENDBRANCH   1  17
BRANCH   5  23
ATOM     23  O   UNL     1       4.009   6.530  16.420  0.00  0.00    +0.000 OA
BRANCH  23  24
ATOM     24  C   UNL     1       4.037   7.830  17.014  0.00  0.00    +0.000 C 
BRANCH  24  25
ATOM     25  C   UNL     1       2.968   7.993  18.072  0.00  0.00    +0.000 A 
ATOM     26  C   UNL     1       2.852   7.100  19.144  0.00  0.00    +0.000 A 
ATOM     27  C   UNL     1       1.978   7.360  20.203  0.00  0.00    +0.000 A 
ATOM     28  C   UNL     1       1.207   8.528  20.223  0.00  0.00    +0.000 A 
ATOM     29  C   UNL     1       1.261   9.384  19.115  0.00  0.00    +0.000 A 
ATOM     30  C   UNL     1       2.140   9.124  18.055  0.00  0.00    +0.000 A 
BRANCH  28  31
ATOM     31  C   UNL     1       0.320   8.823  21.405  0.00  0.00    +0.000 C 
BRANCH  31  32
ATOM     32  O   UNL     1       1.047   9.437  22.465  0.00  0.00    +0.000 OA
ATOM     33  H   UNL     1       0.460  10.108  22.852  0.00  0.00    +0.000 HD
ENDBRANCH  31  32
ENDBRANCH  28  31
ENDBRANCH  24  25
ENDBRANCH  23  24
ENDBRANCH   5  23
TORSDOF 11
ENDMDL
MODEL 2
REMARK VINA RESULT:      -7.6      4.280      6.898
REMARK  Name = 
REMARK  11 active torsions:
REMARK  status: ('A' for Active; 'I' for Inactive)
REMARK    1  A    between atoms: C_2  and  C_3
REMARK    2  A    between atoms: C_3  and  O_4
REMARK    3  A    between atoms: O_4  and  C_5
REMARK    4  A    between atoms: C_5  and  C_7
REMARK    5  A    between atoms: C_9  and  C_10
REMARK    6  A    between atoms: C_13  and  C_14
REMARK    7  A    between atoms: C_21  and  O_22
REMARK    8  A    between atoms: O_22  and  C_23
REMARK    9  A    between atoms: C_23  and  C_24
REMARK   10  A    between atoms: C_27  and  C_28
REMARK   11  A    between atoms: C_28  and  O_29
REMARK                            x       y       z     vdW  Elec       q    Type
REMARK                         _______ _______ _______ _____ _____    ______ ____
ROOT
ATOM      1  C   UNL     1       6.290   4.605  15.567  0.00  0.00    +0.000 C 
ATOM      2  C   UNL     1       7.373   4.860  16.321  0.00  0.00    +0.000 C 
ATOM      3  C   UNL     1       7.304   5.253  17.771  0.00  0.00    +0.000 C 
ATOM      4  C   UNL     1       5.926   4.846  18.326  0.00  0.00    +0.000 C 
ATOM      5  C   UNL     1       4.791   5.160  17.346  0.00  0.00    +0.000 C 
ATOM      6  O   UNL     1       5.000   4.582  16.053  0.00  0.00    +0.000 OA
ENDROOT
BRANCH   3   7
ATOM      7  C   UNL     1       7.659   6.727  18.007  0.00  0.00    +0.000 A 
ATOM      8  C   UNL     1       8.456   7.139  19.090  0.00  0.00    +0.000 A 
ATOM      9  C   UNL     1       8.857   8.468  19.237  0.00  0.00    +0.000 A 
ATOM     10  C   UNL     1       8.475   9.431  18.299  0.00  0.00    +0.000 A 
ATOM     11  C   UNL     1       7.601   9.056  17.271  0.00  0.00    +0.000 A 
ATOM     12  C   UNL     1       7.192   7.722  17.132  0.00  0.00    +0.000 A 
BRANCH  10  13
ATOM     13  C   UNL     1       9.049  10.824  18.364  0.00  0.00    +0.000 C 
ATOM     14  F   UNL     1       9.250  11.271  19.637  0.00  0.00    +0.000 F 
ATOM     15  F   UNL     1      10.265  10.909  17.753  0.00  0.00    +0.000 F 
ATOM     16  F   UNL     1       8.262  11.756  17.761  0.00  0.00    +0.000 F 
ENDBRANCH  10  13
ENDBRANCH   3   7
BRANCH   1  17
ATOM     17  C   UNL     1       6.510   4.493  14.082  0.00  0.00    +0.000 C 
ATOM     18  O   UNL     1       7.345   5.137  13.468  0.00  0.00    +0.000 OA
BRANCH  17  19
ATOM     19  O   UNL     1       5.545   3.713  13.533  0.00  0.00    +0.000 OA
BRANCH  19  20
ATOM     20  C   UNL     1       5.765   3.364  12.161  0.00  0.00    +0.000 C 
BRANCH  20  22
ATOM     21  C   UNL     1       3.711   3.602  10.748  0.00  0.00    +0.000 C 
ATOM     22  C   UNL     1       4.510   2.854  11.521  0.00  0.00    +0.000 C 
ENDBRANCH  20  22
ENDBRANCH  19  20
ENDBRANCH  17  19
ENDBRANCH   1  17
BRANCH   5  23
ATOM     23  O   UNL     1       4.566   6.570  17.284  0.00  0.00    +0.000 OA
BRANCH  23  24
ATOM     24  C   UNL     1       3.197   6.904  17.520  0.00  0.00    +0.000 C 
BRANCH  24  25
ATOM     25  C   UNL     1       2.518   5.903  18.430  0.00  0.00    +0.000 A 
ATOM     26  C   UNL     1       1.819   4.802  17.922  0.00  0.00    +0.000 A 
ATOM     27  C   UNL     1       1.348   3.797  18.770  0.00  0.00    +0.000 A 
ATOM     28  C   UNL     1       1.579   3.860  20.149  0.00  0.00    +0.000 A 
ATOM     29  C   UNL     1       2.208   4.998  20.671  0.00  0.00    +0.000 A 
ATOM     30  C   UNL     1       2.681   6.004  19.820  0.00  0.00    +0.000 A 
BRANCH  28  31
ATOM     31  C   UNL     1       1.122   2.732  21.040  0.00  0.00    +0.000 C 
BRANCH  31  32
ATOM     32  O   UNL     1       1.848   2.707  22.265  0.00  0.00    +0.000 OA
ATOM     33  H   UNL     1       2.717   2.319  22.063  0.00  0.00    +0.000 HD
ENDBRANCH  31  32
ENDBRANCH  28  31
ENDBRANCH  24  25
ENDBRANCH  23  24
ENDBRANCH   5  23
TORSDOF 11
ENDMDL
MODEL 3
REMARK VINA RESULT:      -7.5      0.437      1.178
REMARK  Name = 
REMARK  11 active torsions:
REMARK  status: ('A' for Active; 'I' for Inactive)
REMARK    1  A    between atoms: C_2  and  C_3
REMARK    2  A    between atoms: C_3  and  O_4
REMARK    3  A    between atoms: O_4  and  C_5
REMARK    4  A    between atoms: C_5  and  C_7
REMARK    5  A    between atoms: C_9  and  C_10
REMARK    6  A    between atoms: C_13  and  C_14
REMARK    7  A    between atoms: C_21  and  O_22
REMARK    8  A    between atoms: O_22  and  C_23
REMARK    9  A    between atoms: C_23  and  C_24
REMARK   10  A    between atoms: C_27  and  C_28
REMARK   11  A    between atoms: C_28  and  O_29
REMARK                            x       y       z     vdW  Elec       q    Type
REMARK                         _______ _______ _______ _____ _____    ______ ____
ROOT
ATOM      1  C   UNL     1       6.995   6.075  17.064  0.00  0.00    +0.000 C 
ATOM      2  C   UNL     1       6.851   4.787  17.418  0.00  0.00    +0.000 C 
ATOM      3  C   UNL     1       5.813   3.872  16.827  0.00  0.00    +0.000 C 
ATOM      4  C   UNL     1       5.326   4.474  15.496  0.00  0.00    +0.000 C 
ATOM      5  C   UNL     1       5.115   5.989  15.588  0.00  0.00    +0.000 C 
ATOM      6  O   UNL     1       6.275   6.684  16.057  0.00  0.00    +0.000 OA
ENDROOT
BRANCH   3   7
ATOM      7  C   UNL     1       4.682   3.541  17.811  0.00  0.00    +0.000 A 
ATOM      8  C   UNL     1       4.799   3.782  19.192  0.00  0.00    +0.000 A 
ATOM      9  C   UNL     1       3.728   3.572  20.062  0.00  0.00    +0.000 A 
ATOM     10  C   UNL     1       2.499   3.117  19.577  0.00  0.00    +0.000 A 
ATOM     11  C   UNL     1       2.397   2.780  18.221  0.00  0.00    +0.000 A 
ATOM     12  C   UNL     1       3.478   2.983  17.351  0.00  0.00    +0.000 A 
BRANCH  10  13
ATOM     13  C   UNL     1       1.298   3.057  20.486  0.00  0.00    +0.000 C 
ATOM     14  F   UNL     1       1.432   2.160  21.505  0.00  0.00    +0.000 F 
ATOM     15  F   UNL     1       1.047   4.254  21.088  0.00  0.00    +0.000 F 
ATOM     16  F   UNL     1       0.151   2.717  19.837  0.00  0.00    +0.000 F 
ENDBRANCH  10  13
ENDBRANCH   3   7
BRANCH   1  17
ATOM     17  C   UNL     1       7.889   6.921  17.931  0.00  0.00    +0.000 C 
ATOM     18  O   UNL     1       8.159   6.654  19.091  0.00  0.00    +0.000 OA
BRANCH  17  19
ATOM     19  O   UNL     1       8.193   8.075  17.287  0.00  0.00    +0.000 OA
BRANCH  19  20
ATOM     20  C   UNL     1       7.880   9.268  18.017  0.00  0.00    +0.000 C 
BRANCH  20  22
ATOM     21  C   UNL     1       9.311  11.182  18.766  0.00  0.00    +0.000 C 
ATOM     22  C   UNL     1       9.106   9.864  18.639  0.00  0.00    +0.000 C 
ENDBRANCH  20  22
ENDBRANCH  19  20
ENDBRANCH  17  19
ENDBRANCH   1  17
BRANCH   5  23
ATOM     23  O   UNL     1       3.952   6.279  16.369  0.00  0.00    +0.000 OA
BRANCH  23  24
ATOM     24  C   UNL     1       3.807   7.681  16.609  0.00  0.00    +0.000 C 
BRANCH  24  25
ATOM     25  C   UNL     1       3.034   7.961  17.879  0.00  0.00    +0.000 A 
ATOM     26  C   UNL     1       2.274   9.126  18.036  0.00  0.00    +0.000 A 
ATOM     27  C   UNL     1       1.430   9.290  19.138  0.00  0.00    +0.000 A 
ATOM     28  C   UNL     1       1.314   8.284  20.104  0.00  0.00    +0.000 A 
ATOM     29  C   UNL     1       2.132   7.152  19.992  0.00  0.00    +0.000 A 
ATOM     30  C   UNL     1       2.975   6.987  18.887  0.00  0.00    +0.000 A 
BRANCH  28  31
ATOM     31  C   UNL     1       0.348   8.450  21.249  0.00  0.00    +0.000 C 
BRANCH  31  32
ATOM     32  O   UNL     1       0.347   9.786  21.743  0.00  0.00    +0.000 OA
ATOM     33  H   UNL     1       1.261  10.109  21.670  0.00  0.00    +0.000 HD
ENDBRANCH  31  32
ENDBRANCH  28  31
ENDBRANCH  24  25
ENDBRANCH  23  24
ENDBRANCH   5  23
TORSDOF 11
ENDMDL
MODEL 4
REMARK VINA RESULT:      -7.3      3.853      6.052
REMARK  Name = 
REMARK  11 active torsions:
REMARK  status: ('A' for Active; 'I' for Inactive)
REMARK    1  A    between atoms: C_2  and  C_3
REMARK    2  A    between atoms: C_3  and  O_4
REMARK    3  A    between atoms: O_4  and  C_5
REMARK    4  A    between atoms: C_5  and  C_7
REMARK    5  A    between atoms: C_9  and  C_10
REMARK    6  A    between atoms: C_13  and  C_14
REMARK    7  A    between atoms: C_21  and  O_22
REMARK    8  A    between atoms: O_22  and  C_23
REMARK    9  A    between atoms: C_23  and  C_24
REMARK   10  A    between atoms: C_27  and  C_28
REMARK   11  A    between atoms: C_28  and  O_29
REMARK                            x       y       z     vdW  Elec       q    Type
REMARK                         _______ _______ _______ _____ _____    ______ ____
ROOT
ATOM      1  C   UNL     1       5.051   3.964  19.399  0.00  0.00    +0.000 C 
ATOM      2  C   UNL     1       6.146   3.735  18.654  0.00  0.00    +0.000 C 
ATOM      3  C   UNL     1       6.832   4.793  17.834  0.00  0.00    +0.000 C 
ATOM      4  C   UNL     1       6.401   6.176  18.356  0.00  0.00    +0.000 C 
ATOM      5  C   UNL     1       4.903   6.237  18.669  0.00  0.00    +0.000 C 
ATOM      6  O   UNL     1       4.483   5.209  19.572  0.00  0.00    +0.000 OA
ENDROOT
BRANCH   3   7
ATOM      7  C   UNL     1       6.623   4.605  16.325  0.00  0.00    +0.000 A 
ATOM      8  C   UNL     1       7.402   5.287  15.373  0.00  0.00    +0.000 A 
ATOM      9  C   UNL     1       7.273   5.032  14.007  0.00  0.00    +0.000 A 
ATOM     10  C   UNL     1       6.360   4.080  13.546  0.00  0.00    +0.000 A 
ATOM     11  C   UNL     1       5.510   3.464  14.474  0.00  0.00    +0.000 A 
ATOM     12  C   UNL     1       5.635   3.730  15.845  0.00  0.00    +0.000 A 
BRANCH  10  13
ATOM     13  C   UNL     1       6.344   3.682  12.092  0.00  0.00    +0.000 C 
ATOM     14  F   UNL     1       7.137   4.466  11.306  0.00  0.00    +0.000 F 
ATOM     15  F   UNL     1       6.791   2.408  11.902  0.00  0.00    +0.000 F 
ATOM     16  F   UNL     1       5.103   3.731  11.537  0.00  0.00    +0.000 F 
ENDBRANCH  10  13
ENDBRANCH   3   7
BRANCH   1  17
ATOM     17  C   UNL     1       4.333   2.756  19.938  0.00  0.00    +0.000 C 
ATOM     18  O   UNL     1       4.838   1.953  20.706  0.00  0.00    +0.000 OA
BRANCH  17  19
ATOM     19  O   UNL     1       3.134   2.620  19.318  0.00  0.00    +0.000 OA
BRANCH  19  20
ATOM     20  C   UNL     1       2.069   2.172  20.165  0.00  0.00    +0.000 C 
BRANCH  20  22
ATOM     21  C   UNL     1       0.825   4.325  20.469  0.00  0.00    +0.000 C 
ATOM     22  C   UNL     1       1.515   3.298  20.984  0.00  0.00    +0.000 C 
ENDBRANCH  20  22
ENDBRANCH  19  20
ENDBRANCH  17  19
ENDBRANCH   1  17
BRANCH   5  23
ATOM     23  O   UNL     1       4.145   6.243  17.457  0.00  0.00    +0.000 OA
BRANCH  23  24
ATOM     24  C   UNL     1       2.737   6.264  17.708  0.00  0.00    +0.000 C 
BRANCH  24  25
ATOM     25  C   UNL     1       2.301   7.547  18.383  0.00  0.00    +0.000 A 
ATOM     26  C   UNL     1       2.150   8.740  17.667  0.00  0.00    +0.000 A 
ATOM     27  C   UNL     1       1.582   9.868  18.264  0.00  0.00    +0.000 A 
ATOM     28  C   UNL     1       1.135   9.826  19.590  0.00  0.00    +0.000 A 
ATOM     29  C   UNL     1       1.356   8.659  20.333  0.00  0.00    +0.000 A 
ATOM     30  C   UNL     1       1.924   7.528  19.734  0.00  0.00    +0.000 A 
BRANCH  28  31
ATOM     31  C   UNL     1       0.463  11.032  20.196  0.00  0.00    +0.000 C 
BRANCH  31  32
ATOM     32  O   UNL     1       1.257  11.609  21.228  0.00  0.00    +0.000 OA
ATOM     33  H   UNL     1       1.158  12.573  21.147  0.00  0.00    +0.000 HD
ENDBRANCH  31  32
ENDBRANCH  28  31
ENDBRANCH  24  25
ENDBRANCH  23  24
ENDBRANCH   5  23
TORSDOF 11
ENDMDL
MODEL 5
REMARK VINA RESULT:      -7.1      0.985      1.310
REMARK  Name = 
REMARK  11 active torsions:
REMARK  status: ('A' for Active; 'I' for Inactive)
REMARK    1  A    between atoms: C_2  and  C_3
REMARK    2  A    between atoms: C_3  and  O_4
REMARK    3  A    between atoms: O_4  and  C_5
REMARK    4  A    between atoms: C_5  and  C_7
REMARK    5  A    between atoms: C_9  and  C_10
REMARK    6  A    between atoms: C_13  and  C_14
REMARK    7  A    between atoms: C_21  and  O_22
REMARK    8  A    between atoms: O_22  and  C_23
REMARK    9  A    between atoms: C_23  and  C_24
REMARK   10  A    between atoms: C_27  and  C_28
REMARK   11  A    between atoms: C_28  and  O_29
REMARK                            x       y       z     vdW  Elec       q    Type
REMARK                         _______ _______ _______ _____ _____    ______ ____
ROOT
ATOM      1  C   UNL     1       6.889   6.162  16.992  0.00  0.00    +0.000 C 
ATOM      2  C   UNL     1       6.684   4.855  17.227  0.00  0.00    +0.000 C 
ATOM      3  C   UNL     1       5.585   4.055  16.582  0.00  0.00    +0.000 C 
ATOM      4  C   UNL     1       5.100   4.806  15.328  0.00  0.00    +0.000 C 
ATOM      5  C   UNL     1       4.972   6.313  15.569  0.00  0.00    +0.000 C 
ATOM      6  O   UNL     1       6.179   6.900  16.068  0.00  0.00    +0.000 OA
ENDROOT
BRANCH   3   7
ATOM      7  C   UNL     1       4.461   3.690  17.561  0.00  0.00    +0.000 A 
ATOM      8  C   UNL     1       4.640   3.739  18.956  0.00  0.00    +0.000 A 
ATOM      9  C   UNL     1       3.582   3.503  19.836  0.00  0.00    +0.000 A 
ATOM     10  C   UNL     1       2.305   3.214  19.348  0.00  0.00    +0.000 A 
ATOM     11  C   UNL     1       2.134   3.065  17.966  0.00  0.00    +0.000 A 
ATOM     12  C   UNL     1       3.201   3.292  17.085  0.00  0.00    +0.000 A 
BRANCH  10  13
ATOM     13  C   UNL     1       1.132   3.131  20.291  0.00  0.00    +0.000 C 
ATOM     14  F   UNL     1       0.704   4.349  20.733  0.00  0.00    +0.000 F 
ATOM     15  F   UNL     1       0.043   2.554  19.708  0.00  0.00    +0.000 F 
ATOM     16  F   UNL     1       1.392   2.399  21.408  0.00  0.00    +0.000 F 
ENDBRANCH  10  13
ENDBRANCH   3   7
BRANCH   1  17
ATOM     17  C   UNL     1       7.846   6.874  17.910  0.00  0.00    +0.000 C 
ATOM     18  O   UNL     1       8.071   6.526  19.058  0.00  0.00    +0.000 OA
BRANCH  17  19
ATOM     19  O   UNL     1       8.270   8.023  17.327  0.00  0.00    +0.000 OA
BRANCH  19  20
ATOM     20  C   UNL     1       7.862   9.221  18.000  0.00  0.00    +0.000 C 
BRANCH  20  22
ATOM     21  C   UNL     1       9.424  11.139  18.391  0.00  0.00    +0.000 C 
ATOM     22  C   UNL     1       9.022   9.892  18.670  0.00  0.00    +0.000 C 
ENDBRANCH  20  22
ENDBRANCH  19  20
ENDBRANCH  17  19
ENDBRANCH   1  17
BRANCH   5  23
ATOM     23  O   UNL     1       3.846   6.587  16.405  0.00  0.00    +0.000 OA
BRANCH  23  24
ATOM     24  C   UNL     1       4.234   7.176  17.649  0.00  0.00    +0.000 C 
BRANCH  24  25
ATOM     25  C   UNL     1       3.116   7.987  18.266  0.00  0.00    +0.000 A 
ATOM     26  C   UNL     1       2.580   9.110  17.624  0.00  0.00    +0.000 A 
ATOM     27  C   UNL     1       1.438   9.743  18.119  0.00  0.00    +0.000 A 
ATOM     28  C   UNL     1       0.791   9.258  19.262  0.00  0.00    +0.000 A 
ATOM     29  C   UNL     1       1.369   8.184  19.952  0.00  0.00    +0.000 A 
ATOM     30  C   UNL     1       2.513   7.549  19.454  0.00  0.00    +0.000 A 
BRANCH  28  31
ATOM     31  C   UNL     1      -0.479   9.914  19.743  0.00  0.00    +0.000 C 
BRANCH  31  32
ATOM     32  O   UNL     1      -1.407  10.097  18.679  0.00  0.00    +0.000 OA
ATOM     33  H   UNL     1      -1.035   9.641  17.905  0.00  0.00    +0.000 HD
ENDBRANCH  31  32
ENDBRANCH  28  31
ENDBRANCH  24  25
ENDBRANCH  23  24
ENDBRANCH   5  23
TORSDOF 11
ENDMDL
MODEL 6
REMARK VINA RESULT:      -7.1      3.785      5.963
REMARK  Name = 
REMARK  11 active torsions:
REMARK  status: ('A' for Active; 'I' for Inactive)
REMARK    1  A    between atoms: C_2  and  C_3
REMARK    2  A    between atoms: C_3  and  O_4
REMARK    3  A    between atoms: O_4  and  C_5
REMARK    4  A    between atoms: C_5  and  C_7
REMARK    5  A    between atoms: C_9  and  C_10
REMARK    6  A    between atoms: C_13  and  C_14
REMARK    7  A    between atoms: C_21  and  O_22
REMARK    8  A    between atoms: O_22  and  C_23
REMARK    9  A    between atoms: C_23  and  C_24
REMARK   10  A    between atoms: C_27  and  C_28
REMARK   11  A    between atoms: C_28  and  O_29
REMARK                            x       y       z     vdW  Elec       q    Type
REMARK                         _______ _______ _______ _____ _____    ______ ____
ROOT
ATOM      1  C   UNL     1       5.085   4.187  19.478  0.00  0.00    +0.000 C 
ATOM      2  C   UNL     1       6.130   3.876  18.691  0.00  0.00    +0.000 C 
ATOM      3  C   UNL     1       6.804   4.859  17.774  0.00  0.00    +0.000 C 
ATOM      4  C   UNL     1       6.449   6.285  18.235  0.00  0.00    +0.000 C 
ATOM      5  C   UNL     1       4.974   6.418  18.624  0.00  0.00    +0.000 C 
ATOM      6  O   UNL     1       4.570   5.460  19.607  0.00  0.00    +0.000 OA
ENDROOT
BRANCH   3   7
ATOM      7  C   UNL     1       6.506   4.593  16.293  0.00  0.00    +0.000 A 
ATOM      8  C   UNL     1       7.283   5.154  15.262  0.00  0.00    +0.000 A 
ATOM      9  C   UNL     1       7.067   4.824  13.923  0.00  0.00    +0.000 A 
ATOM     10  C   UNL     1       6.066   3.915  13.570  0.00  0.00    +0.000 A 
ATOM     11  C   UNL     1       5.222   3.424  14.574  0.00  0.00    +0.000 A 
ATOM     12  C   UNL     1       5.436   3.765  15.917  0.00  0.00    +0.000 A 
BRANCH  10  13
ATOM     13  C   UNL     1       5.948   3.429  12.148  0.00  0.00    +0.000 C 
ATOM     14  F   UNL     1       5.937   2.069  12.037  0.00  0.00    +0.000 F 
ATOM     15  F   UNL     1       4.796   3.850  11.553  0.00  0.00    +0.000 F 
ATOM     16  F   UNL     1       6.962   3.860  11.348  0.00  0.00    +0.000 F 
ENDBRANCH  10  13
ENDBRANCH   3   7
BRANCH   1  17
ATOM     17  C   UNL     1       4.359   3.039  20.126  0.00  0.00    +0.000 C 
ATOM     18  O   UNL     1       4.842   1.929  20.278  0.00  0.00    +0.000 OA
BRANCH  17  19
ATOM     19  O   UNL     1       3.065   3.383  20.348  0.00  0.00    +0.000 OA
BRANCH  19  20
ATOM     20  C   UNL     1       2.104   2.424  19.888  0.00  0.00    +0.000 C 
BRANCH  20  22
ATOM     21  C   UNL     1       2.345   2.688  17.409  0.00  0.00    +0.000 C 
ATOM     22  C   UNL     1       1.600   2.772  18.520  0.00  0.00    +0.000 C 
ENDBRANCH  20  22
ENDBRANCH  19  20
ENDBRANCH  17  19
ENDBRANCH   1  17
BRANCH   5  23
ATOM     23  O   UNL     1       4.150   6.382  17.456  0.00  0.00    +0.000 OA
BRANCH  23  24
ATOM     24  C   UNL     1       2.759   6.329  17.784  0.00  0.00    +0.000 C 
BRANCH  24  25
ATOM     25  C   UNL     1       2.279   7.611  18.428  0.00  0.00    +0.000 A 
ATOM     26  C   UNL     1       2.099   8.785  17.687  0.00  0.00    +0.000 A 
ATOM     27  C   UNL     1       1.493   9.908  18.256  0.00  0.00    +0.000 A 
ATOM     28  C   UNL     1       1.036   9.879  19.579  0.00  0.00    +0.000 A 
ATOM     29  C   UNL     1       1.286   8.735  20.348  0.00  0.00    +0.000 A 
ATOM     30  C   UNL     1       1.892   7.610  19.776  0.00  0.00    +0.000 A 
BRANCH  28  31
ATOM     31  C   UNL     1       0.324  11.077  20.154  0.00  0.00    +0.000 C 
BRANCH  31  32
ATOM     32  O   UNL     1       0.670  12.273  19.462  0.00  0.00    +0.000 OA
ATOM     33  H   UNL     1      -0.142  12.587  19.029  0.00  0.00    +0.000 HD
ENDBRANCH  31  32
ENDBRANCH  28  31
ENDBRANCH  24  25
ENDBRANCH  23  24
ENDBRANCH   5  23
TORSDOF 11
ENDMDL
MODEL 7
REMARK VINA RESULT:      -7.1      3.979      6.459
REMARK  Name = 
REMARK  11 active torsions:
REMARK  status: ('A' for Active; 'I' for Inactive)
REMARK    1  A    between atoms: C_2  and  C_3
REMARK    2  A    between atoms: C_3  and  O_4
REMARK    3  A    between atoms: O_4  and  C_5
REMARK    4  A    between atoms: C_5  and  C_7
REMARK    5  A    between atoms: C_9  and  C_10
REMARK    6  A    between atoms: C_13  and  C_14
REMARK    7  A    between atoms: C_21  and  O_22
REMARK    8  A    between atoms: O_22  and  C_23
REMARK    9  A    between atoms: C_23  and  C_24
REMARK   10  A    between atoms: C_27  and  C_28
REMARK   11  A    between atoms: C_28  and  O_29
REMARK                            x       y       z     vdW  Elec       q    Type
REMARK                         _______ _______ _______ _____ _____    ______ ____
ROOT
ATOM      1  C   UNL     1       5.955   3.997  15.212  0.00  0.00    +0.000 C 
ATOM      2  C   UNL     1       7.081   4.179  15.923  0.00  0.00    +0.000 C 
ATOM      3  C   UNL     1       7.099   4.407  17.409  0.00  0.00    +0.000 C 
ATOM      4  C   UNL     1       5.760   3.924  17.998  0.00  0.00    +0.000 C 
ATOM      5  C   UNL     1       4.566   4.332  17.129  0.00  0.00    +0.000 C 
ATOM      6  O   UNL     1       4.697   3.905  15.769  0.00  0.00    +0.000 OA
ENDROOT
BRANCH   3   7
ATOM      7  C   UNL     1       7.460   5.850  17.787  0.00  0.00    +0.000 A 
ATOM      8  C   UNL     1       8.085   6.168  19.007  0.00  0.00    +0.000 A 
ATOM      9  C   UNL     1       8.501   7.469  19.296  0.00  0.00    +0.000 A 
ATOM     10  C   UNL     1       8.309   8.497  18.369  0.00  0.00    +0.000 A 
ATOM     11  C   UNL     1       7.602   8.215  17.193  0.00  0.00    +0.000 A 
ATOM     12  C   UNL     1       7.176   6.909  16.910  0.00  0.00    +0.000 A 
BRANCH  10  13
ATOM     13  C   UNL     1       8.912   9.858  18.608  0.00  0.00    +0.000 C 
ATOM     14  F   UNL     1       9.841  10.212  17.674  0.00  0.00    +0.000 F 
ATOM     15  F   UNL     1       7.974  10.848  18.580  0.00  0.00    +0.000 F 
ATOM     16  F   UNL     1       9.534   9.965  19.813  0.00  0.00    +0.000 F 
ENDBRANCH  10  13
ENDBRANCH   3   7
BRANCH   1  17
ATOM     17  C   UNL     1       6.084   4.054  13.713  0.00  0.00    +0.000 C 
ATOM     18  O   UNL     1       7.078   4.459  13.132  0.00  0.00    +0.000 OA
BRANCH  17  19
ATOM     19  O   UNL     1       4.892   3.754  13.139  0.00  0.00    +0.000 OA
BRANCH  19  20
ATOM     20  C   UNL     1       4.959   3.458  11.738  0.00  0.00    +0.000 C 
BRANCH  20  22
ATOM     21  C   UNL     1       3.134   3.524  10.024  0.00  0.00    +0.000 C 
ATOM     22  C   UNL     1       3.614   3.084  11.196  0.00  0.00    +0.000 C 
ENDBRANCH  20  22
ENDBRANCH  19  20
ENDBRANCH  17  19
ENDBRANCH   1  17
BRANCH   5  23
ATOM     23  O   UNL     1       4.331   5.738  17.240  0.00  0.00    +0.000 OA
BRANCH  23  24
ATOM     24  C   UNL     1       4.041   6.127  18.585  0.00  0.00    +0.000 C 
BRANCH  24  25
ATOM     25  C   UNL     1       2.969   7.193  18.648  0.00  0.00    +0.000 A 
ATOM     26  C   UNL     1       2.171   7.368  19.785  0.00  0.00    +0.000 A 
ATOM     27  C   UNL     1       1.310   8.462  19.896  0.00  0.00    +0.000 A 
ATOM     28  C   UNL     1       1.237   9.420  18.878  0.00  0.00    +0.000 A 
ATOM     29  C   UNL     1       1.974   9.207  17.705  0.00  0.00    +0.000 A 
ATOM     30  C   UNL     1       2.838   8.111  17.596  0.00  0.00    +0.000 A 
BRANCH  28  31
ATOM     31  C   UNL     1       0.352  10.629  19.045  0.00  0.00    +0.000 C 
BRANCH  31  32
ATOM     32  O   UNL     1       0.835  11.738  18.294  0.00  0.00    +0.000 OA
ATOM     33  H   UNL     1       1.581  11.410  17.764  0.00  0.00    +0.000 HD
ENDBRANCH  31  32
ENDBRANCH  28  31
ENDBRANCH  24  25
ENDBRANCH  23  24
ENDBRANCH   5  23
TORSDOF 11
ENDMDL
MODEL 8
REMARK VINA RESULT:      -7.0      0.924      1.315
REMARK  Name = 
REMARK  11 active torsions:
REMARK  status: ('A' for Active; 'I' for Inactive)
REMARK    1  A    between atoms: C_2  and  C_3
REMARK    2  A    between atoms: C_3  and  O_4
REMARK    3  A    between atoms: O_4  and  C_5
REMARK    4  A    between atoms: C_5  and  C_7
REMARK    5  A    between atoms: C_9  and  C_10
REMARK    6  A    between atoms: C_13  and  C_14
REMARK    7  A    between atoms: C_21  and  O_22
REMARK    8  A    between atoms: O_22  and  C_23
REMARK    9  A    between atoms: C_23  and  C_24
REMARK   10  A    between atoms: C_27  and  C_28
REMARK   11  A    between atoms: C_28  and  O_29
REMARK                            x       y       z     vdW  Elec       q    Type
REMARK                         _______ _______ _______ _____ _____    ______ ____
ROOT
ATOM      1  C   UNL     1       6.834   6.462  17.159  0.00  0.00    +0.000 C 
ATOM      2  C   UNL     1       6.705   5.131  17.295  0.00  0.00    +0.000 C 
ATOM      3  C   UNL     1       5.507   4.357  16.817  0.00  0.00    +0.000 C 
ATOM      4  C   UNL     1       4.754   5.209  15.778  0.00  0.00    +0.000 C 
ATOM      5  C   UNL     1       4.657   6.679  16.195  0.00  0.00    +0.000 C 
ATOM      6  O   UNL     1       5.932   7.259  16.487  0.00  0.00    +0.000 OA
ENDROOT
BRANCH   3   7
ATOM      7  C   UNL     1       4.624   3.855  17.968  0.00  0.00    +0.000 A 
ATOM      8  C   UNL     1       5.044   3.910  19.309  0.00  0.00    +0.000 A 
ATOM      9  C   UNL     1       4.194   3.545  20.355  0.00  0.00    +0.000 A 
ATOM     10  C   UNL     1       2.890   3.118  20.092  0.00  0.00    +0.000 A 
ATOM     11  C   UNL     1       2.491   2.965  18.758  0.00  0.00    +0.000 A 
ATOM     12  C   UNL     1       3.351   3.322  17.709  0.00  0.00    +0.000 A 
BRANCH  10  13
ATOM     13  C   UNL     1       1.921   2.892  21.225  0.00  0.00    +0.000 C 
ATOM     14  F   UNL     1       2.208   3.624  22.339  0.00  0.00    +0.000 F 
ATOM     15  F   UNL     1       0.645   3.233  20.886  0.00  0.00    +0.000 F 
ATOM     16  F   UNL     1       1.866   1.595  21.633  0.00  0.00    +0.000 F 
ENDBRANCH  10  13
ENDBRANCH   3   7
BRANCH   1  17
ATOM     17  C   UNL     1       7.954   7.115  17.923  0.00  0.00    +0.000 C 
ATOM     18  O   UNL     1       8.379   6.704  18.991  0.00  0.00    +0.000 OA
BRANCH  17  19
ATOM     19  O   UNL     1       8.284   8.293  17.335  0.00  0.00    +0.000 OA
BRANCH  19  20
ATOM     20  C   UNL     1       7.997   9.456  18.122  0.00  0.00    +0.000 C 
BRANCH  20  22
ATOM     21  C   UNL     1       9.520  10.647  19.714  0.00  0.00    +0.000 C 
ATOM     22  C   UNL     1       9.251  10.192  18.483  0.00  0.00    +0.000 C 
ENDBRANCH  20  22
ENDBRANCH  19  20
ENDBRANCH  17  19
ENDBRANCH   1  17
BRANCH   5  23
ATOM     23  O   UNL     1       3.730   6.827  17.274  0.00  0.00    +0.000 OA
BRANCH  23  24
ATOM     24  C   UNL     1       2.857   7.942  17.080  0.00  0.00    +0.000 C 
BRANCH  24  25
ATOM     25  C   UNL     1       2.215   8.392  18.375  0.00  0.00    +0.000 A 
ATOM     26  C   UNL     1       1.506   9.595  18.465  0.00  0.00    +0.000 A 
ATOM     27  C   UNL     1       0.774   9.912  19.612  0.00  0.00    +0.000 A 
ATOM     28  C   UNL     1       0.721   9.025  20.694  0.00  0.00    +0.000 A 
ATOM     29  C   UNL     1       1.493   7.857  20.639  0.00  0.00    +0.000 A 
ATOM     30  C   UNL     1       2.224   7.539  19.488  0.00  0.00    +0.000 A 
BRANCH  28  31
ATOM     31  C   UNL     1      -0.128   9.355  21.895  0.00  0.00    +0.000 C 
BRANCH  31  32
ATOM     32  O   UNL     1      -0.766  10.620  21.753  0.00  0.00    +0.000 OA
ATOM     33  H   UNL     1      -1.479  10.499  21.102  0.00  0.00    +0.000 HD
ENDBRANCH  31  32
ENDBRANCH  28  31
ENDBRANCH  24  25
ENDBRANCH  23  24
ENDBRANCH   5  23
TORSDOF 11
ENDMDL
MODEL 9
REMARK VINA RESULT:      -7.0      0.995      1.308
REMARK  Name = 
REMARK  11 active torsions:
REMARK  status: ('A' for Active; 'I' for Inactive)
REMARK    1  A    between atoms: C_2  and  C_3
REMARK    2  A    between atoms: C_3  and  O_4
REMARK    3  A    between atoms: O_4  and  C_5
REMARK    4  A    between atoms: C_5  and  C_7
REMARK    5  A    between atoms: C_9  and  C_10
REMARK    6  A    between atoms: C_13  and  C_14
REMARK    7  A    between atoms: C_21  and  O_22
REMARK    8  A    between atoms: O_22  and  C_23
REMARK    9  A    between atoms: C_23  and  C_24
REMARK   10  A    between atoms: C_27  and  C_28
REMARK   11  A    between atoms: C_28  and  O_29
REMARK                            x       y       z     vdW  Elec       q    Type
REMARK                         _______ _______ _______ _____ _____    ______ ____
ROOT
ATOM      1  C   UNL     1       6.957   6.164  17.123  0.00  0.00    +0.000 C 
ATOM      2  C   UNL     1       6.781   4.896  17.532  0.00  0.00    +0.000 C 
ATOM      3  C   UNL     1       5.683   4.002  17.025  0.00  0.00    +0.000 C 
ATOM      4  C   UNL     1       5.156   4.575  15.696  0.00  0.00    +0.000 C 
ATOM      5  C   UNL     1       5.006   6.098  15.741  0.00  0.00    +0.000 C 
ATOM      6  O   UNL     1       6.213   6.764  16.129  0.00  0.00    +0.000 OA
ENDROOT
BRANCH   3   7
ATOM      7  C   UNL     1       4.588   3.750  18.071  0.00  0.00    +0.000 A 
ATOM      8  C   UNL     1       3.652   2.709  17.937  0.00  0.00    +0.000 A 
ATOM      9  C   UNL     1       2.726   2.426  18.942  0.00  0.00    +0.000 A 
ATOM     10  C   UNL     1       2.709   3.176  20.121  0.00  0.00    +0.000 A 
ATOM     11  C   UNL     1       3.568   4.277  20.227  0.00  0.00    +0.000 A 
ATOM     12  C   UNL     1       4.490   4.564  19.210  0.00  0.00    +0.000 A 
BRANCH  10  13
ATOM     13  C   UNL     1       1.829   2.761  21.273  0.00  0.00    +0.000 C 
ATOM     14  F   UNL     1       2.002   3.523  22.391  0.00  0.00    +0.000 F 
ATOM     15  F   UNL     1       0.504   2.859  20.970  0.00  0.00    +0.000 F 
ATOM     16  F   UNL     1       2.030   1.473  21.664  0.00  0.00    +0.000 F 
ENDBRANCH  10  13
ENDBRANCH   3   7
BRANCH   1  17
ATOM     17  C   UNL     1       7.921   7.004  17.917  0.00  0.00    +0.000 C 
ATOM     18  O   UNL     1       8.290   6.729  19.047  0.00  0.00    +0.000 OA
BRANCH  17  19
ATOM     19  O   UNL     1       8.169   8.163  17.257  0.00  0.00    +0.000 OA
BRANCH  19  20
ATOM     20  C   UNL     1       7.783   9.349  17.964  0.00  0.00    +0.000 C 
BRANCH  20  22
ATOM     21  C   UNL     1       9.633  11.032  18.080  0.00  0.00    +0.000 C 
ATOM     22  C   UNL     1       8.963  10.003  18.615  0.00  0.00    +0.000 C 
ENDBRANCH  20  22
ENDBRANCH  19  20
ENDBRANCH  17  19
ENDBRANCH   1  17
BRANCH   5  23
ATOM     23  O   UNL     1       3.894   6.462  16.562  0.00  0.00    +0.000 OA
BRANCH  23  24
ATOM     24  C   UNL     1       4.122   7.690  17.258  0.00  0.00    +0.000 C 
BRANCH  24  25
ATOM     25  C   UNL     1       2.906   8.132  18.042  0.00  0.00    +0.000 A 
ATOM     26  C   UNL     1       2.543   7.518  19.246  0.00  0.00    +0.000 A 
ATOM     27  C   UNL     1       1.525   8.047  20.043  0.00  0.00    +0.000 A 
ATOM     28  C   UNL     1       0.854   9.216  19.664  0.00  0.00    +0.000 A 
ATOM     29  C   UNL     1       1.160   9.788  18.422  0.00  0.00    +0.000 A 
ATOM     30  C   UNL     1       2.182   9.258  17.624  0.00  0.00    +0.000 A 
BRANCH  28  31
ATOM     31  C   UNL     1      -0.194   9.809  20.570  0.00  0.00    +0.000 C 
BRANCH  31  32
ATOM     32  O   UNL     1      -1.069  10.678  19.858  0.00  0.00    +0.000 OA
ATOM     33  H   UNL     1      -1.824  10.137  19.570  0.00  0.00    +0.000 HD
ENDBRANCH  31  32
ENDBRANCH  28  31
ENDBRANCH  24  25
ENDBRANCH  23  24
ENDBRANCH   5  23
TORSDOF 11
ENDMDL
