MODEL 1
REMARK VINA RESULT:      -8.1      0.000      0.000
REMARK  Name = 
REMARK  4 active torsions:
REMARK  status: ('A' for Active; 'I' for Inactive)
REMARK    1  A    between atoms: C_2  and  C_10
REMARK    2  A    between atoms: N_3  and  N_4
REMARK    3  A    between atoms: C_15  and  C_16
REMARK    4  A    between atoms: C_17  and  C_18
REMARK                            x       y       z     vdW  Elec       q    Type
REMARK                         _______ _______ _______ _____ _____    ______ ____
ROOT
ATOM      1  C   UNL     1       1.000   9.144  20.521  0.00  0.00    +0.000 A 
ATOM      2  C   UNL     1       1.196   9.644  19.196  0.00  0.00    +0.000 A 
ATOM      3  C   UNL     1       1.866   8.886  18.221  0.00  0.00    +0.000 A 
ATOM      4  C   UNL     1       2.314   7.625  18.578  0.00  0.00    +0.000 A 
ATOM      5  N   UNL     1       2.892   6.698  17.791  0.00  0.00    +0.000 NA
ATOM      6  C   UNL     1       3.066   5.642  18.625  0.00  0.00    +0.000 A 
ATOM      7  N   UNL     1       2.637   5.889  19.884  0.00  0.00    +0.000 N 
ATOM      8  C   UNL     1       2.159   7.139  19.839  0.00  0.00    +0.000 A 
ATOM      9  C   UNL     1       1.533   7.868  20.849  0.00  0.00    +0.000 A 
ATOM     10  H   UNL     1       2.637   5.234  20.701  0.00  0.00    +0.000 HD
ENDROOT
BRANCH   1  12
ATOM     11  N   UNL     1      -0.280   9.263  22.564  0.00  0.00    +0.000 NA
ATOM     12  C   UNL     1       0.176   9.885  21.533  0.00  0.00    +0.000 C 
ATOM     13  N   UNL     1      -0.185  11.246  21.295  0.00  0.00    +0.000 N 
ATOM     14  H   UNL     1      -0.858   9.731  23.279  0.00  0.00    +0.000 HD
ATOM     15  H   UNL     1       0.294  11.758  20.553  0.00  0.00    +0.000 HD
BRANCH  13  16
ATOM     16  N   UNL     1      -1.328  11.820  21.866  0.00  0.00    +0.000 NA
ATOM     17  C   UNL     1      -2.156  12.443  20.803  0.00  0.00    +0.000 C 
ATOM     18  C   UNL     1      -1.458  13.683  20.195  0.00  0.00    +0.000 C 
ATOM     19  O   UNL     1      -1.148  14.633  21.198  0.00  0.00    +0.000 OA
ATOM     20  C   UNL     1      -0.284  14.057  22.161  0.00  0.00    +0.000 C 
ATOM     21  C   UNL     1      -0.958  12.852  22.847  0.00  0.00    +0.000 C 
ENDBRANCH  13  16
ENDBRANCH   1  12
BRANCH   6  22
ATOM     22  C   UNL     1       3.538   4.322  18.172  0.00  0.00    +0.000 C 
ATOM     23  C   UNL     1       4.820   4.044  17.900  0.00  0.00    +0.000 C 
BRANCH  23  24
ATOM     24  C   UNL     1       5.882   5.050  18.039  0.00  0.00    +0.000 A 
ATOM     25  C   UNL     1       6.585   5.132  19.247  0.00  0.00    +0.000 A 
ATOM     26  C   UNL     1       7.616   6.061  19.397  0.00  0.00    +0.000 A 
ATOM     27  C   UNL     1       7.947   6.913  18.342  0.00  0.00    +0.000 A 
ATOM     28  C   UNL     1       7.243   6.845  17.137  0.00  0.00    +0.000 A 
ATOM     29  C   UNL     1       6.207   5.916  16.978  0.00  0.00    +0.000 A 
ATOM     30 CL   UNL     1       5.341   5.858  15.447  0.00  0.00    +0.000 Cl
ENDBRANCH  23  24
ENDBRANCH   6  22
TORSDOF 4
ENDMDL
MODEL 2
REMARK VINA RESULT:      -8.0      4.100      8.693
REMARK  Name = 
REMARK  4 active torsions:
REMARK  status: ('A' for Active; 'I' for Inactive)
REMARK    1  A    between atoms: C_2  and  C_10
REMARK    2  A    between atoms: N_3  and  N_4
REMARK    3  A    between atoms: C_15  and  C_16
REMARK    4  A    between atoms: C_17  and  C_18
REMARK                            x       y       z     vdW  Elec       q    Type
REMARK                         _______ _______ _______ _____ _____    ______ ____
ROOT
ATOM      1  C   UNL     1       2.441   7.080  18.745  0.00  0.00    +0.000 A 
ATOM      2  C   UNL     1       2.090   7.157  20.129  0.00  0.00    +0.000 A 
ATOM      3  C   UNL     1       1.406   8.269  20.648  0.00  0.00    +0.000 A 
ATOM      4  C   UNL     1       1.062   9.284  19.771  0.00  0.00    +0.000 A 
ATOM      5  N   UNL     1       0.333  10.387  20.025  0.00  0.00    +0.000 NA
ATOM      6  C   UNL     1       0.249  10.994  18.814  0.00  0.00    +0.000 A 
ATOM      7  N   UNL     1       0.906  10.321  17.841  0.00  0.00    +0.000 N 
ATOM      8  C   UNL     1       1.406   9.242  18.455  0.00  0.00    +0.000 A 
ATOM      9  C   UNL     1       2.116   8.178  17.902  0.00  0.00    +0.000 A 
ATOM     10  H   UNL     1       0.968  10.566  16.825  0.00  0.00    +0.000 HD
ENDROOT
BRANCH   1  12
ATOM     11  N   UNL     1       2.460   4.712  18.279  0.00  0.00    +0.000 NA
ATOM     12  C   UNL     1       3.056   5.846  18.151  0.00  0.00    +0.000 C 
ATOM     13  N   UNL     1       4.344   5.919  17.540  0.00  0.00    +0.000 N 
ATOM     14  H   UNL     1       2.851   3.838  17.896  0.00  0.00    +0.000 HD
ATOM     15  H   UNL     1       4.734   6.838  17.325  0.00  0.00    +0.000 HD
BRANCH  13  16
ATOM     16  N   UNL     1       5.187   4.804  17.453  0.00  0.00    +0.000 NA
ATOM     17  C   UNL     1       6.539   5.163  17.950  0.00  0.00    +0.000 C 
ATOM     18  C   UNL     1       7.246   6.158  16.999  0.00  0.00    +0.000 C 
ATOM     19  O   UNL     1       7.326   5.635  15.685  0.00  0.00    +0.000 OA
ATOM     20  C   UNL     1       6.025   5.380  15.185  0.00  0.00    +0.000 C 
ATOM     21  C   UNL     1       5.298   4.341  16.062  0.00  0.00    +0.000 C 
ENDBRANCH  13  16
ENDBRANCH   1  12
BRANCH   6  22
ATOM     22  C   UNL     1      -0.588  12.179  18.560  0.00  0.00    +0.000 C 
ATOM     23  C   UNL     1      -0.171  13.438  18.748  0.00  0.00    +0.000 C 
BRANCH  23  24
ATOM     24  C   UNL     1       1.184  13.746  19.226  0.00  0.00    +0.000 A 
ATOM     25  C   UNL     1       2.207  13.936  18.288  0.00  0.00    +0.000 A 
ATOM     26  C   UNL     1       3.497  14.255  18.715  0.00  0.00    +0.000 A 
ATOM     27  C   UNL     1       3.771  14.384  20.078  0.00  0.00    +0.000 A 
ATOM     28  C   UNL     1       2.758  14.187  21.019  0.00  0.00    +0.000 A 
ATOM     29  C   UNL     1       1.461  13.866  20.600  0.00  0.00    +0.000 A 
ATOM     30 CL   UNL     1       0.209  13.623  21.814  0.00  0.00    +0.000 Cl
ENDBRANCH  23  24
ENDBRANCH   6  22
TORSDOF 4
ENDMDL
MODEL 3
REMARK VINA RESULT:      -7.9      1.694      2.356
REMARK  Name = 
REMARK  4 active torsions:
REMARK  status: ('A' for Active; 'I' for Inactive)
REMARK    1  A    between atoms: C_2  and  C_10
REMARK    2  A    between atoms: N_3  and  N_4
REMARK    3  A    between atoms: C_15  and  C_16
REMARK    4  A    between atoms: C_17  and  C_18
REMARK                            x       y       z     vdW  Elec       q    Type
REMARK                         _______ _______ _______ _____ _____    ______ ____
ROOT
ATOM      1  C   UNL     1       1.732   7.382  20.373  0.00  0.00    +0.000 A 
ATOM      2  C   UNL     1       1.515   6.172  21.102  0.00  0.00    +0.000 A 
ATOM      3  C   UNL     1       1.894   4.925  20.578  0.00  0.00    +0.000 A 
ATOM      4  C   UNL     1       2.508   4.905  19.336  0.00  0.00    +0.000 A 
ATOM      5  N   UNL     1       3.032   3.848  18.688  0.00  0.00    +0.000 NA
ATOM      6  C   UNL     1       3.553   4.396  17.562  0.00  0.00    +0.000 A 
ATOM      7  N   UNL     1       3.356   5.733  17.487  0.00  0.00    +0.000 N 
ATOM      8  C   UNL     1       2.703   6.042  18.615  0.00  0.00    +0.000 A 
ATOM      9  C   UNL     1       2.312   7.296  19.077  0.00  0.00    +0.000 A 
ATOM     10  H   UNL     1       3.682   6.387  16.738  0.00  0.00    +0.000 HD
ENDROOT
BRANCH   1  12
ATOM     11  N   UNL     1       1.568   8.899  22.242  0.00  0.00    +0.000 NA
ATOM     12  C   UNL     1       1.451   8.729  20.972  0.00  0.00    +0.000 C 
ATOM     13  N   UNL     1       0.956   9.783  20.146  0.00  0.00    +0.000 N 
ATOM     14  H   UNL     1       1.375   9.805  22.697  0.00  0.00    +0.000 HD
ATOM     15  H   UNL     1       1.002   9.675  19.131  0.00  0.00    +0.000 HD
BRANCH  13  16
ATOM     16  N   UNL     1       0.194  10.837  20.666  0.00  0.00    +0.000 NA
ATOM     17  C   UNL     1      -1.070  10.963  19.898  0.00  0.00    +0.000 C 
ATOM     18  C   UNL     1      -0.808  11.456  18.454  0.00  0.00    +0.000 C 
ATOM     19  O   UNL     1      -0.108  12.686  18.457  0.00  0.00    +0.000 OA
ATOM     20  C   UNL     1       1.137  12.533  19.114  0.00  0.00    +0.000 C 
ATOM     21  C   UNL     1       0.932  12.106  20.581  0.00  0.00    +0.000 C 
ENDBRANCH  13  16
ENDBRANCH   1  12
BRANCH   6  22
ATOM     22  C   UNL     1       4.371   3.641  16.597  0.00  0.00    +0.000 C 
ATOM     23  C   UNL     1       5.663   3.897  16.358  0.00  0.00    +0.000 C 
BRANCH  23  24
ATOM     24  C   UNL     1       6.388   4.968  17.055  0.00  0.00    +0.000 A 
ATOM     25  C   UNL     1       7.154   4.645  18.183  0.00  0.00    +0.000 A 
ATOM     26  C   UNL     1       7.873   5.640  18.849  0.00  0.00    +0.000 A 
ATOM     27  C   UNL     1       7.828   6.959  18.393  0.00  0.00    +0.000 A 
ATOM     28  C   UNL     1       7.059   7.289  17.275  0.00  0.00    +0.000 A 
ATOM     29  C   UNL     1       6.334   6.299  16.601  0.00  0.00    +0.000 A 
ATOM     30 CL   UNL     1       5.374   6.751  15.197  0.00  0.00    +0.000 Cl
ENDBRANCH  23  24
ENDBRANCH   6  22
TORSDOF 4
ENDMDL
MODEL 4
REMARK VINA RESULT:      -7.8      4.170      9.133
REMARK  Name = 
REMARK  4 active torsions:
REMARK  status: ('A' for Active; 'I' for Inactive)
REMARK    1  A    between atoms: C_2  and  C_10
REMARK    2  A    between atoms: N_3  and  N_4
REMARK    3  A    between atoms: C_15  and  C_16
REMARK    4  A    between atoms: C_17  and  C_18
REMARK                            x       y       z     vdW  Elec       q    Type
REMARK                         _______ _______ _______ _____ _____    ______ ____
ROOT
ATOM      1  C   UNL     1       2.421   7.146  18.662  0.00  0.00    +0.000 A 
ATOM      2  C   UNL     1       1.896   7.185  19.991  0.00  0.00    +0.000 A 
ATOM      3  C   UNL     1       1.356   8.365  20.529  0.00  0.00    +0.000 A 
ATOM      4  C   UNL     1       1.327   9.490  19.721  0.00  0.00    +0.000 A 
ATOM      5  N   UNL     1       0.778  10.689  19.990  0.00  0.00    +0.000 NA
ATOM      6  C   UNL     1       0.977  11.390  18.845  0.00  0.00    +0.000 A 
ATOM      7  N   UNL     1       1.634  10.679  17.900  0.00  0.00    +0.000 N 
ATOM      8  C   UNL     1       1.842   9.481  18.461  0.00  0.00    +0.000 A 
ATOM      9  C   UNL     1       2.420   8.345  17.898  0.00  0.00    +0.000 A 
ATOM     10  H   UNL     1       1.883  10.981  16.929  0.00  0.00    +0.000 HD
ENDROOT
BRANCH   1  12
ATOM     11  N   UNL     1       2.108   4.836  18.035  0.00  0.00    +0.000 NA
ATOM     12  C   UNL     1       2.883   5.865  18.030  0.00  0.00    +0.000 C 
ATOM     13  N   UNL     1       4.213   5.764  17.522  0.00  0.00    +0.000 N 
ATOM     14  H   UNL     1       2.389   3.934  17.621  0.00  0.00    +0.000 HD
ATOM     15  H   UNL     1       4.758   6.618  17.401  0.00  0.00    +0.000 HD
BRANCH  13  16
ATOM     16  N   UNL     1       4.875   4.534  17.420  0.00  0.00    +0.000 NA
ATOM     17  C   UNL     1       6.108   4.563  18.247  0.00  0.00    +0.000 C 
ATOM     18  C   UNL     1       7.162   5.531  17.659  0.00  0.00    +0.000 C 
ATOM     19  O   UNL     1       7.475   5.189  16.321  0.00  0.00    +0.000 OA
ATOM     20  C   UNL     1       6.308   5.252  15.520  0.00  0.00    +0.000 C 
ATOM     21  C   UNL     1       5.245   4.256  16.024  0.00  0.00    +0.000 C 
ENDBRANCH  13  16
ENDBRANCH   1  12
BRANCH   6  22
ATOM     22  C   UNL     1       0.410  12.729  18.606  0.00  0.00    +0.000 C 
ATOM     23  C   UNL     1      -0.847  12.941  18.198  0.00  0.00    +0.000 C 
BRANCH  23  24
ATOM     24  C   UNL     1      -1.785  11.837  17.955  0.00  0.00    +0.000 A 
ATOM     25  C   UNL     1      -1.538  10.958  16.893  0.00  0.00    +0.000 A 
ATOM     26  C   UNL     1      -2.400   9.885  16.657  0.00  0.00    +0.000 A 
ATOM     27  C   UNL     1      -3.512   9.688  17.478  0.00  0.00    +0.000 A 
ATOM     28  C   UNL     1      -3.770  10.567  18.533  0.00  0.00    +0.000 A 
ATOM     29  C   UNL     1      -2.912  11.646  18.777  0.00  0.00    +0.000 A 
ATOM     30 CL   UNL     1      -3.268  12.734  20.114  0.00  0.00    +0.000 Cl
ENDBRANCH  23  24
ENDBRANCH   6  22
TORSDOF 4
ENDMDL
MODEL 5
REMARK VINA RESULT:      -7.7      1.459      1.648
REMARK  Name = 
REMARK  4 active torsions:
REMARK  status: ('A' for Active; 'I' for Inactive)
REMARK    1  A    between atoms: C_2  and  C_10
REMARK    2  A    between atoms: N_3  and  N_4
REMARK    3  A    between atoms: C_15  and  C_16
REMARK    4  A    between atoms: C_17  and  C_18
REMARK                            x       y       z     vdW  Elec       q    Type
REMARK                         _______ _______ _______ _____ _____    ______ ____
ROOT
ATOM      1  C   UNL     1       1.047   9.602  19.615  0.00  0.00    +0.000 A 
ATOM      2  C   UNL     1       1.396   9.593  18.229  0.00  0.00    +0.000 A 
ATOM      3  C   UNL     1       2.110   8.523  17.663  0.00  0.00    +0.000 A 
ATOM      4  C   UNL     1       2.447   7.463  18.487  0.00  0.00    +0.000 A 
ATOM      5  N   UNL     1       3.041   6.304  18.145  0.00  0.00    +0.000 NA
ATOM      6  C   UNL     1       3.073   5.611  19.310  0.00  0.00    +0.000 A 
ATOM      7  N   UNL     1       2.543   6.300  20.347  0.00  0.00    +0.000 N 
ATOM      8  C   UNL     1       2.145   7.461  19.813  0.00  0.00    +0.000 A 
ATOM      9  C   UNL     1       1.471   8.515  20.427  0.00  0.00    +0.000 A 
ATOM     10  H   UNL     1       2.426   5.978  21.337  0.00  0.00    +0.000 HD
ENDROOT
BRANCH   1  12
ATOM     11  N   UNL     1      -1.100  10.510  20.241  0.00  0.00    +0.000 NA
ATOM     12  C   UNL     1       0.177  10.673  20.206  0.00  0.00    +0.000 C 
ATOM     13  N   UNL     1       0.758  11.907  20.628  0.00  0.00    +0.000 N 
ATOM     14  H   UNL     1      -1.736  11.224  20.628  0.00  0.00    +0.000 HD
ATOM     15  H   UNL     1       1.773  11.964  20.722  0.00  0.00    +0.000 HD
BRANCH  13  16
ATOM     16  N   UNL     1       0.019  13.096  20.678  0.00  0.00    +0.000 NA
ATOM     17  C   UNL     1       0.115  13.795  19.372  0.00  0.00    +0.000 C 
ATOM     18  C   UNL     1       1.545  14.332  19.121  0.00  0.00    +0.000 C 
ATOM     19  O   UNL     1       1.957  15.188  20.171  0.00  0.00    +0.000 OA
ATOM     20  C   UNL     1       1.949  14.485  21.401  0.00  0.00    +0.000 C 
ATOM     21  C   UNL     1       0.529  13.983  21.733  0.00  0.00    +0.000 C 
ENDBRANCH  13  16
ENDBRANCH   1  12
BRANCH   6  22
ATOM     22  C   UNL     1       3.507   4.206  19.405  0.00  0.00    +0.000 C 
ATOM     23  C   UNL     1       4.717   3.775  19.027  0.00  0.00    +0.000 C 
BRANCH  23  24
ATOM     24  C   UNL     1       5.734   4.686  18.482  0.00  0.00    +0.000 A 
ATOM     25  C   UNL     1       6.594   5.349  19.367  0.00  0.00    +0.000 A 
ATOM     26  C   UNL     1       7.585   6.199  18.874  0.00  0.00    +0.000 A 
ATOM     27  C   UNL     1       7.720   6.392  17.498  0.00  0.00    +0.000 A 
ATOM     28  C   UNL     1       6.859   5.742  16.610  0.00  0.00    +0.000 A 
ATOM     29  C   UNL     1       5.861   4.888  17.095  0.00  0.00    +0.000 A 
ATOM     30 CL   UNL     1       4.794   4.085  15.949  0.00  0.00    +0.000 Cl
ENDBRANCH  23  24
ENDBRANCH   6  22
TORSDOF 4
ENDMDL
MODEL 6
REMARK VINA RESULT:      -7.7      1.369      2.256
REMARK  Name = 
REMARK  4 active torsions:
REMARK  status: ('A' for Active; 'I' for Inactive)
REMARK    1  A    between atoms: C_2  and  C_10
REMARK    2  A    between atoms: N_3  and  N_4
REMARK    3  A    between atoms: C_15  and  C_16
REMARK    4  A    between atoms: C_17  and  C_18
REMARK                            x       y       z     vdW  Elec       q    Type
REMARK                         _______ _______ _______ _____ _____    ______ ____
ROOT
ATOM      1  C   UNL     1       1.660   8.985  18.938  0.00  0.00    +0.000 A 
ATOM      2  C   UNL     1       1.561   8.465  20.266  0.00  0.00    +0.000 A 
ATOM      3  C   UNL     1       1.927   7.141  20.560  0.00  0.00    +0.000 A 
ATOM      4  C   UNL     1       2.409   6.357  19.525  0.00  0.00    +0.000 A 
ATOM      5  N   UNL     1       2.899   5.105  19.593  0.00  0.00    +0.000 NA
ATOM      6  C   UNL     1       3.282   4.848  18.317  0.00  0.00    +0.000 A 
ATOM      7  N   UNL     1       3.033   5.877  17.475  0.00  0.00    +0.000 N 
ATOM      8  C   UNL     1       2.490   6.824  18.250  0.00  0.00    +0.000 A 
ATOM      9  C   UNL     1       2.105   8.118  17.903  0.00  0.00    +0.000 A 
ATOM     10  H   UNL     1       3.257   5.938  16.454  0.00  0.00    +0.000 HD
ENDROOT
BRANCH   1  12
ATOM     11  N   UNL     1       2.181  11.066  17.833  0.00  0.00    +0.000 NA
ATOM     12  C   UNL     1       1.397  10.431  18.631  0.00  0.00    +0.000 C 
ATOM     13  N   UNL     1       0.343  11.118  19.307  0.00  0.00    +0.000 N 
ATOM     14  H   UNL     1       2.043  12.063  17.602  0.00  0.00    +0.000 HD
ATOM     15  H   UNL     1      -0.347  10.572  19.824  0.00  0.00    +0.000 HD
BRANCH  13  16
ATOM     16  N   UNL     1       0.363  12.506  19.491  0.00  0.00    +0.000 NA
ATOM     17  C   UNL     1       0.740  12.816  20.893  0.00  0.00    +0.000 C 
ATOM     18  C   UNL     1      -0.369  12.390  21.884  0.00  0.00    +0.000 C 
ATOM     19  O   UNL     1      -1.604  13.002  21.559  0.00  0.00    +0.000 OA
ATOM     20  C   UNL     1      -2.000  12.627  20.252  0.00  0.00    +0.000 C 
ATOM     21  C   UNL     1      -0.958  13.088  19.213  0.00  0.00    +0.000 C 
ENDBRANCH  13  16
ENDBRANCH   1  12
BRANCH   6  22
ATOM     22  C   UNL     1       4.021   3.636  17.922  0.00  0.00    +0.000 C 
ATOM     23  C   UNL     1       5.341   3.610  17.699  0.00  0.00    +0.000 C 
BRANCH  23  24
ATOM     24  C   UNL     1       6.179   4.810  17.838  0.00  0.00    +0.000 A 
ATOM     25  C   UNL     1       6.793   5.068  19.069  0.00  0.00    +0.000 A 
ATOM     26  C   UNL     1       7.615   6.187  19.220  0.00  0.00    +0.000 A 
ATOM     27  C   UNL     1       7.823   7.052  18.144  0.00  0.00    +0.000 A 
ATOM     28  C   UNL     1       7.205   6.805  16.916  0.00  0.00    +0.000 A 
ATOM     29  C   UNL     1       6.379   5.686  16.755  0.00  0.00    +0.000 A 
ATOM     30 CL   UNL     1       5.616   5.407  15.194  0.00  0.00    +0.000 Cl
ENDBRANCH  23  24
ENDBRANCH   6  22
TORSDOF 4
ENDMDL
MODEL 7
REMARK VINA RESULT:      -7.7      4.124      8.593
REMARK  Name = 
REMARK  4 active torsions:
REMARK  status: ('A' for Active; 'I' for Inactive)
REMARK    1  A    between atoms: C_2  and  C_10
REMARK    2  A    between atoms: N_3  and  N_4
REMARK    3  A    between atoms: C_15  and  C_16
REMARK    4  A    between atoms: C_17  and  C_18
REMARK                            x       y       z     vdW  Elec       q    Type
REMARK                         _______ _______ _______ _____ _____    ______ ____
ROOT
ATOM      1  C   UNL     1       2.716   7.215  18.799  0.00  0.00    +0.000 A 
ATOM      2  C   UNL     1       2.170   7.187  20.120  0.00  0.00    +0.000 A 
ATOM      3  C   UNL     1       1.357   8.230  20.596  0.00  0.00    +0.000 A 
ATOM      4  C   UNL     1       1.082   9.279  19.736  0.00  0.00    +0.000 A 
ATOM      5  N   UNL     1       0.262  10.327  19.944  0.00  0.00    +0.000 NA
ATOM      6  C   UNL     1       0.314  11.004  18.769  0.00  0.00    +0.000 A 
ATOM      7  N   UNL     1       1.138  10.427  17.864  0.00  0.00    +0.000 N 
ATOM      8  C   UNL     1       1.609   9.337  18.483  0.00  0.00    +0.000 A 
ATOM      9  C   UNL     1       2.449   8.346  17.980  0.00  0.00    +0.000 A 
ATOM     10  H   UNL     1       1.329  10.737  16.883  0.00  0.00    +0.000 HD
ENDROOT
BRANCH   1  12
ATOM     11  N   UNL     1       4.062   6.168  17.091  0.00  0.00    +0.000 NA
ATOM     12  C   UNL     1       3.477   6.052  18.232  0.00  0.00    +0.000 C 
ATOM     13  N   UNL     1       3.462   4.796  18.910  0.00  0.00    +0.000 N 
ATOM     14  H   UNL     1       4.587   5.392  16.660  0.00  0.00    +0.000 HD
ATOM     15  H   UNL     1       3.116   4.761  19.870  0.00  0.00    +0.000 HD
BRANCH  13  16
ATOM     16  N   UNL     1       3.667   3.586  18.234  0.00  0.00    +0.000 NA
ATOM     17  C   UNL     1       2.437   3.220  17.488  0.00  0.00    +0.000 C 
ATOM     18  C   UNL     1       1.283   2.845  18.448  0.00  0.00    +0.000 C 
ATOM     19  O   UNL     1       1.665   1.792  19.315  0.00  0.00    +0.000 OA
ATOM     20  C   UNL     1       2.785   2.185  20.088  0.00  0.00    +0.000 C 
ATOM     21  C   UNL     1       3.989   2.508  19.181  0.00  0.00    +0.000 C 
ENDBRANCH  13  16
ENDBRANCH   1  12
BRANCH   6  22
ATOM     22  C   UNL     1      -0.546  12.161  18.463  0.00  0.00    +0.000 C 
ATOM     23  C   UNL     1      -0.177  13.433  18.659  0.00  0.00    +0.000 C 
BRANCH  23  24
ATOM     24  C   UNL     1       1.143  13.788  19.199  0.00  0.00    +0.000 A 
ATOM     25  C   UNL     1       2.199  14.021  18.309  0.00  0.00    +0.000 A 
ATOM     26  C   UNL     1       3.456  14.384  18.795  0.00  0.00    +0.000 A 
ATOM     27  C   UNL     1       3.664  14.514  20.169  0.00  0.00    +0.000 A 
ATOM     28  C   UNL     1       2.618  14.274  21.063  0.00  0.00    +0.000 A 
ATOM     29  C   UNL     1       1.353  13.908  20.585  0.00  0.00    +0.000 A 
ATOM     30 CL   UNL     1       0.058  13.611  21.739  0.00  0.00    +0.000 Cl
ENDBRANCH  23  24
ENDBRANCH   6  22
TORSDOF 4
ENDMDL
MODEL 8
REMARK VINA RESULT:      -7.6      1.822      3.140
REMARK  Name = 
REMARK  4 active torsions:
REMARK  status: ('A' for Active; 'I' for Inactive)
REMARK    1  A    between atoms: C_2  and  C_10
REMARK    2  A    between atoms: N_3  and  N_4
REMARK    3  A    between atoms: C_15  and  C_16
REMARK    4  A    between atoms: C_17  and  C_18
REMARK                            x       y       z     vdW  Elec       q    Type
REMARK                         _______ _______ _______ _____ _____    ______ ____
ROOT
ATOM      1  C   UNL     1       1.010   9.040  20.209  0.00  0.00    +0.000 A 
ATOM      2  C   UNL     1       1.073   9.525  18.866  0.00  0.00    +0.000 A 
ATOM      3  C   UNL     1       1.873   8.893  17.899  0.00  0.00    +0.000 A 
ATOM      4  C   UNL     1       2.584   7.769  18.282  0.00  0.00    +0.000 A 
ATOM      5  N   UNL     1       3.333   6.959  17.510  0.00  0.00    +0.000 NA
ATOM      6  C   UNL     1       3.742   5.993  18.371  0.00  0.00    +0.000 A 
ATOM      7  N   UNL     1       3.291   6.187  19.632  0.00  0.00    +0.000 N 
ATOM      8  C   UNL     1       2.557   7.304  19.561  0.00  0.00    +0.000 A 
ATOM      9  C   UNL     1       1.807   7.918  20.562  0.00  0.00    +0.000 A 
ATOM     10  H   UNL     1       3.443   5.574  20.467  0.00  0.00    +0.000 HD
ENDROOT
BRANCH   1  12
ATOM     11  N   UNL     1      -0.582   8.845  22.013  0.00  0.00    +0.000 NA
ATOM     12  C   UNL     1       0.064   9.624  21.218  0.00  0.00    +0.000 C 
ATOM     13  N   UNL     1      -0.192  11.029  21.220  0.00  0.00    +0.000 N 
ATOM     14  H   UNL     1      -1.249   9.202  22.714  0.00  0.00    +0.000 HD
ATOM     15  H   UNL     1       0.425  11.641  20.685  0.00  0.00    +0.000 HD
BRANCH  13  16
ATOM     16  N   UNL     1      -1.387  11.564  21.720  0.00  0.00    +0.000 NA
ATOM     17  C   UNL     1      -2.101  12.282  20.635  0.00  0.00    +0.000 C 
ATOM     18  C   UNL     1      -1.344  13.563  20.210  0.00  0.00    +0.000 C 
ATOM     19  O   UNL     1      -1.137  14.421  21.317  0.00  0.00    +0.000 OA
ATOM     20  C   UNL     1      -0.376  13.757  22.309  0.00  0.00    +0.000 C 
ATOM     21  C   UNL     1      -1.118  12.504  22.818  0.00  0.00    +0.000 C 
ENDBRANCH  13  16
ENDBRANCH   1  12
BRANCH   6  22
ATOM     22  C   UNL     1       4.476   4.788  17.947  0.00  0.00    +0.000 C 
ATOM     23  C   UNL     1       4.202   3.556  18.393  0.00  0.00    +0.000 C 
BRANCH  23  24
ATOM     24  C   UNL     1       3.123   3.298  19.357  0.00  0.00    +0.000 A 
ATOM     25  C   UNL     1       3.456   2.912  20.661  0.00  0.00    +0.000 A 
ATOM     26  C   UNL     1       2.451   2.686  21.603  0.00  0.00    +0.000 A 
ATOM     27  C   UNL     1       1.110   2.841  21.245  0.00  0.00    +0.000 A 
ATOM     28  C   UNL     1       0.770   3.215  19.943  0.00  0.00    +0.000 A 
ATOM     29  C   UNL     1       1.772   3.444  18.992  0.00  0.00    +0.000 A 
ATOM     30 CL   UNL     1       1.307   3.914  17.360  0.00  0.00    +0.000 Cl
ENDBRANCH  23  24
ENDBRANCH   6  22
TORSDOF 4
ENDMDL
MODEL 9
REMARK VINA RESULT:      -7.5      2.164      3.509
REMARK  Name = 
REMARK  4 active torsions:
REMARK  status: ('A' for Active; 'I' for Inactive)
REMARK    1  A    between atoms: C_2  and  C_10
REMARK    2  A    between atoms: N_3  and  N_4
REMARK    3  A    between atoms: C_15  and  C_16
REMARK    4  A    between atoms: C_17  and  C_18
REMARK                            x       y       z     vdW  Elec       q    Type
REMARK                         _______ _______ _______ _____ _____    ______ ____
ROOT
ATOM      1  C   UNL     1       1.457   8.781  19.437  0.00  0.00    +0.000 A 
ATOM      2  C   UNL     1       1.803   8.959  18.061  0.00  0.00    +0.000 A 
ATOM      3  C   UNL     1       2.746   8.129  17.432  0.00  0.00    +0.000 A 
ATOM      4  C   UNL     1       3.316   7.114  18.182  0.00  0.00    +0.000 A 
ATOM      5  N   UNL     1       4.162   6.153  17.768  0.00  0.00    +0.000 NA
ATOM      6  C   UNL     1       4.350   5.398  18.880  0.00  0.00    +0.000 A 
ATOM      7  N   UNL     1       3.672   5.865  19.954  0.00  0.00    +0.000 N 
ATOM      8  C   UNL     1       3.018   6.941  19.499  0.00  0.00    +0.000 A 
ATOM      9  C   UNL     1       2.118   7.762  20.175  0.00  0.00    +0.000 A 
ATOM     10  H   UNL     1       3.630   5.450  20.914  0.00  0.00    +0.000 HD
ENDROOT
BRANCH   1  12
ATOM     11  N   UNL     1      -0.410   9.010  20.950  0.00  0.00    +0.000 NA
ATOM     12  C   UNL     1       0.361   9.575  20.087  0.00  0.00    +0.000 C 
ATOM     13  N   UNL     1       0.114  10.918  19.669  0.00  0.00    +0.000 N 
ATOM     14  H   UNL     1      -1.181   9.515  21.413  0.00  0.00    +0.000 HD
ATOM     15  H   UNL     1       0.813  11.389  19.093  0.00  0.00    +0.000 HD
BRANCH  13  16
ATOM     16  N   UNL     1      -1.144  11.518  19.809  0.00  0.00    +0.000 NA
ATOM     17  C   UNL     1      -1.512  12.201  18.544  0.00  0.00    +0.000 C 
ATOM     18  C   UNL     1      -0.611  13.431  18.281  0.00  0.00    +0.000 C 
ATOM     19  O   UNL     1      -0.665  14.340  19.365  0.00  0.00    +0.000 OA
ATOM     20  C   UNL     1      -0.225  13.704  20.552  0.00  0.00    +0.000 C 
ATOM     21  C   UNL     1      -1.131  12.506  20.898  0.00  0.00    +0.000 C 
ENDBRANCH  13  16
ENDBRANCH   1  12
BRANCH   6  22
ATOM     22  C   UNL     1       5.096   4.127  18.879  0.00  0.00    +0.000 C 
ATOM     23  C   UNL     1       4.567   2.955  19.251  0.00  0.00    +0.000 C 
BRANCH  23  24
ATOM     24  C   UNL     1       3.170   2.835  19.691  0.00  0.00    +0.000 A 
ATOM     25  C   UNL     1       2.896   2.742  21.061  0.00  0.00    +0.000 A 
ATOM     26  C   UNL     1       1.576   2.653  21.508  0.00  0.00    +0.000 A 
ATOM     27  C   UNL     1       0.526   2.654  20.588  0.00  0.00    +0.000 A 
ATOM     28  C   UNL     1       0.792   2.737  19.219  0.00  0.00    +0.000 A 
ATOM     29  C   UNL     1       2.112   2.826  18.762  0.00  0.00    +0.000 A 
ATOM     30 CL   UNL     1       2.411   2.927  17.030  0.00  0.00    +0.000 Cl
ENDBRANCH  23  24
ENDBRANCH   6  22
TORSDOF 4
ENDMDL
