MODEL 1
REMARK VINA RESULT:      -8.0      0.000      0.000
REMARK  Name = 
REMARK  6 active torsions:
REMARK  status: ('A' for Active; 'I' for Inactive)
REMARK    1  A    between atoms: C_1  and  C_2
REMARK    2  A    between atoms: C_5  and  C_6
REMARK    3  A    between atoms: C_9  and  C_10
REMARK    4  A    between atoms: N_12  and  C_13
REMARK    5  A    between atoms: C_13  and  C_14
REMARK    6  A    between atoms: C_13  and  C_20
REMARK                            x       y       z     vdW  Elec       q    Type
REMARK                         _______ _______ _______ _____ _____    ______ ____
ROOT
ATOM      1  C   UNL     1       5.069   5.805  18.259  0.00  0.00    +0.000 C 
ATOM      2  O   UNL     1       5.312   5.336  19.367  0.00  0.00    +0.000 OA
ATOM      3  N   UNL     1       3.872   6.417  17.974  0.00  0.00    +0.000 N 
ATOM      4  H   UNL     1       3.706   6.889  17.101  0.00  0.00    +0.000 HD
ENDROOT
BRANCH   1  10
ATOM      5  C   UNL     1       5.669   3.643  15.650  0.00  0.00    +0.000 C 
ATOM      6  C   UNL     1       6.319   4.901  16.086  0.00  0.00    +0.000 A 
ATOM      7  N   UNL     1       7.355   5.325  15.350  0.00  0.00    +0.000 NA
ATOM      8  O   UNL     1       7.883   6.400  16.018  0.00  0.00    +0.000 OA
ATOM      9  C   UNL     1       7.156   6.640  17.137  0.00  0.00    +0.000 A 
ATOM     10  C   UNL     1       6.080   5.763  17.201  0.00  0.00    +0.000 A 
BRANCH   9  11
ATOM     11  C   UNL     1       7.688   7.711  18.007  0.00  0.00    +0.000 C 
ATOM     12  F   UNL     1       8.607   7.202  18.875  0.00  0.00    +0.000 F 
ATOM     13  F   UNL     1       8.351   8.656  17.281  0.00  0.00    +0.000 F 
ENDBRANCH   9  11
ENDBRANCH   1  10
BRANCH   3  14
ATOM     14  C   UNL     1       2.813   6.593  18.976  0.00  0.00    +0.000 C 
BRANCH  14  15
ATOM     15  C   UNL     1       2.082   5.283  19.298  0.00  0.00    +0.000 A 
ATOM     16  N   UNL     1       1.874   4.961  20.598  0.00  0.00    +0.000 NA
ATOM     17  C   UNL     1       1.343   3.741  20.827  0.00  0.00    +0.000 A 
ATOM     18  C   UNL     1       1.030   2.840  19.837  0.00  0.00    +0.000 A 
ATOM     19  C   UNL     1       1.271   3.261  18.554  0.00  0.00    +0.000 A 
ATOM     20  N   UNL     1       1.785   4.469  18.258  0.00  0.00    +0.000 NA
ENDBRANCH  14  15
BRANCH  14  21
ATOM     21  C   UNL     1       1.808   7.600  18.440  0.00  0.00    +0.000 C 
ATOM     22  C   UNL     1       1.568   8.955  19.087  0.00  0.00    +0.000 C 
ATOM     23  C   UNL     1       2.303   8.869  17.783  0.00  0.00    +0.000 C 
ENDBRANCH  14  21
ENDBRANCH   3  14
TORSDOF 5
ENDMDL
MODEL 2
REMARK VINA RESULT:      -7.9      0.219      1.022
REMARK  Name = 
REMARK  6 active torsions:
REMARK  status: ('A' for Active; 'I' for Inactive)
REMARK    1  A    between atoms: C_1  and  C_2
REMARK    2  A    between atoms: C_5  and  C_6
REMARK    3  A    between atoms: C_9  and  C_10
REMARK    4  A    between atoms: N_12  and  C_13
REMARK    5  A    between atoms: C_13  and  C_14
REMARK    6  A    between atoms: C_13  and  C_20
REMARK                            x       y       z     vdW  Elec       q    Type
REMARK                         _______ _______ _______ _____ _____    ______ ____
ROOT
ATOM      1  C   UNL     1       5.157   5.748  18.256  0.00  0.00    +0.000 C 
ATOM      2  O   UNL     1       5.424   5.205  19.324  0.00  0.00    +0.000 OA
ATOM      3  N   UNL     1       3.963   6.395  18.047  0.00  0.00    +0.000 N 
ATOM      4  H   UNL     1       3.779   6.925  17.211  0.00  0.00    +0.000 HD
ENDROOT
BRANCH   1  10
ATOM      5  C   UNL     1       5.745   3.653  15.589  0.00  0.00    +0.000 C 
ATOM      6  C   UNL     1       6.367   4.924  16.029  0.00  0.00    +0.000 A 
ATOM      7  N   UNL     1       7.366   5.396  15.271  0.00  0.00    +0.000 NA
ATOM      8  O   UNL     1       7.879   6.475  15.942  0.00  0.00    +0.000 OA
ATOM      9  C   UNL     1       7.180   6.672  17.087  0.00  0.00    +0.000 A 
ATOM     10  C   UNL     1       6.136   5.758  17.167  0.00  0.00    +0.000 A 
BRANCH   9  11
ATOM     11  C   UNL     1       7.703   7.743  17.961  0.00  0.00    +0.000 C 
ATOM     12  F   UNL     1       8.632   7.240  18.821  0.00  0.00    +0.000 F 
ATOM     13  F   UNL     1       8.353   8.699  17.237  0.00  0.00    +0.000 F 
ENDBRANCH   9  11
ENDBRANCH   1  10
BRANCH   3  14
ATOM     14  C   UNL     1       2.937   6.523  19.090  0.00  0.00    +0.000 C 
BRANCH  14  15
ATOM     15  C   UNL     1       2.314   5.175  19.472  0.00  0.00    +0.000 A 
ATOM     16  N   UNL     1       1.766   4.414  18.493  0.00  0.00    +0.000 NA
ATOM     17  C   UNL     1       1.120   3.301  18.901  0.00  0.00    +0.000 A 
ATOM     18  C   UNL     1       0.987   2.927  20.218  0.00  0.00    +0.000 A 
ATOM     19  C   UNL     1       1.582   3.758  21.133  0.00  0.00    +0.000 A 
ATOM     20  N   UNL     1       2.251   4.874  20.791  0.00  0.00    +0.000 NA
ENDBRANCH  14  15
BRANCH  14  21
ATOM     21  C   UNL     1       1.843   7.445  18.576  0.00  0.00    +0.000 C 
ATOM     22  C   UNL     1       1.623   8.849  19.116  0.00  0.00    +0.000 C 
ATOM     23  C   UNL     1       2.216   8.657  17.752  0.00  0.00    +0.000 C 
ENDBRANCH  14  21
ENDBRANCH   3  14
TORSDOF 5
ENDMDL
MODEL 3
REMARK VINA RESULT:      -7.5      2.463      4.116
REMARK  Name = 
REMARK  6 active torsions:
REMARK  status: ('A' for Active; 'I' for Inactive)
REMARK    1  A    between atoms: C_1  and  C_2
REMARK    2  A    between atoms: C_5  and  C_6
REMARK    3  A    between atoms: C_9  and  C_10
REMARK    4  A    between atoms: N_12  and  C_13
REMARK    5  A    between atoms: C_13  and  C_14
REMARK    6  A    between atoms: C_13  and  C_20
REMARK                            x       y       z     vdW  Elec       q    Type
REMARK                         _______ _______ _______ _____ _____    ______ ____
ROOT
ATOM      1  C   UNL     1       4.396   4.835  17.615  0.00  0.00    +0.000 C 
ATOM      2  O   UNL     1       3.594   4.070  17.087  0.00  0.00    +0.000 OA
ATOM      3  N   UNL     1       3.997   5.824  18.481  0.00  0.00    +0.000 N 
ATOM      4  H   UNL     1       4.657   6.389  18.991  0.00  0.00    +0.000 HD
ENDROOT
BRANCH   1  10
ATOM      5  C   UNL     1       7.200   5.472  19.507  0.00  0.00    +0.000 C 
ATOM      6  C   UNL     1       7.006   4.906  18.151  0.00  0.00    +0.000 A 
ATOM      7  N   UNL     1       8.114   4.555  17.485  0.00  0.00    +0.000 NA
ATOM      8  O   UNL     1       7.707   4.209  16.222  0.00  0.00    +0.000 OA
ATOM      9  C   UNL     1       6.359   4.324  16.132  0.00  0.00    +0.000 A 
ATOM     10  C   UNL     1       5.831   4.688  17.365  0.00  0.00    +0.000 A 
BRANCH   9  11
ATOM     11  C   UNL     1       5.801   4.081  14.785  0.00  0.00    +0.000 C 
ATOM     12  F   UNL     1       5.109   5.175  14.357  0.00  0.00    +0.000 F 
ATOM     13  F   UNL     1       6.791   3.891  13.866  0.00  0.00    +0.000 F 
ENDBRANCH   9  11
ENDBRANCH   1  10
BRANCH   3  14
ATOM     14  C   UNL     1       2.595   6.018  18.874  0.00  0.00    +0.000 C 
BRANCH  14  15
ATOM     15  C   UNL     1       2.198   7.499  18.930  0.00  0.00    +0.000 A 
ATOM     16  N   UNL     1       1.637   7.976  20.068  0.00  0.00    +0.000 NA
ATOM     17  C   UNL     1       1.190   9.249  20.018  0.00  0.00    +0.000 A 
ATOM     18  C   UNL     1       1.265  10.048  18.901  0.00  0.00    +0.000 A 
ATOM     19  C   UNL     1       1.855   9.476  17.802  0.00  0.00    +0.000 A 
ATOM     20  N   UNL     1       2.333   8.218  17.791  0.00  0.00    +0.000 NA
ENDBRANCH  14  15
BRANCH  14  21
ATOM     21  C   UNL     1       2.391   5.399  20.247  0.00  0.00    +0.000 C 
ATOM     22  C   UNL     1       1.268   4.423  20.557  0.00  0.00    +0.000 C 
ATOM     23  C   UNL     1       2.680   3.929  20.452  0.00  0.00    +0.000 C 
ENDBRANCH  14  21
ENDBRANCH   3  14
TORSDOF 5
ENDMDL
MODEL 4
REMARK VINA RESULT:      -7.4      1.036      1.226
REMARK  Name = 
REMARK  6 active torsions:
REMARK  status: ('A' for Active; 'I' for Inactive)
REMARK    1  A    between atoms: C_1  and  C_2
REMARK    2  A    between atoms: C_5  and  C_6
REMARK    3  A    between atoms: C_9  and  C_10
REMARK    4  A    between atoms: N_12  and  C_13
REMARK    5  A    between atoms: C_13  and  C_14
REMARK    6  A    between atoms: C_13  and  C_20
REMARK                            x       y       z     vdW  Elec       q    Type
REMARK                         _______ _______ _______ _____ _____    ______ ____
ROOT
ATOM      1  C   UNL     1       5.530   5.344  18.299  0.00  0.00    +0.000 C 
ATOM      2  O   UNL     1       5.995   4.923  19.354  0.00  0.00    +0.000 OA
ATOM      3  N   UNL     1       4.191   5.618  18.151  0.00  0.00    +0.000 N 
ATOM      4  H   UNL     1       3.822   6.054  17.322  0.00  0.00    +0.000 HD
ENDROOT
BRANCH   1  10
ATOM      5  C   UNL     1       6.149   3.672  15.354  0.00  0.00    +0.000 C 
ATOM      6  C   UNL     1       6.646   4.953  15.910  0.00  0.00    +0.000 A 
ATOM      7  N   UNL     1       7.515   5.637  15.154  0.00  0.00    +0.000 NA
ATOM      8  O   UNL     1       7.947   6.687  15.922  0.00  0.00    +0.000 OA
ATOM      9  C   UNL     1       7.324   6.655  17.126  0.00  0.00    +0.000 A 
ATOM     10  C   UNL     1       6.408   5.610  17.158  0.00  0.00    +0.000 A 
BRANCH   9  11
ATOM     11  C   UNL     1       7.783   7.675  18.093  0.00  0.00    +0.000 C 
ATOM     12  F   UNL     1       8.688   7.135  18.956  0.00  0.00    +0.000 F 
ATOM     13  F   UNL     1       8.436   8.694  17.465  0.00  0.00    +0.000 F 
ENDBRANCH   9  11
ENDBRANCH   1  10
BRANCH   3  14
ATOM     14  C   UNL     1       3.225   5.469  19.247  0.00  0.00    +0.000 C 
BRANCH  14  15
ATOM     15  C   UNL     1       2.573   4.081  19.274  0.00  0.00    +0.000 A 
ATOM     16  N   UNL     1       3.372   2.989  19.191  0.00  0.00    +0.000 NA
ATOM     17  C   UNL     1       2.741   1.800  19.090  0.00  0.00    +0.000 A 
ATOM     18  C   UNL     1       1.373   1.656  19.057  0.00  0.00    +0.000 A 
ATOM     19  C   UNL     1       0.652   2.819  19.155  0.00  0.00    +0.000 A 
ATOM     20  N   UNL     1       1.221   4.032  19.271  0.00  0.00    +0.000 NA
ENDBRANCH  14  15
BRANCH  14  21
ATOM     21  C   UNL     1       2.141   6.521  19.077  0.00  0.00    +0.000 C 
ATOM     22  C   UNL     1       2.056   7.770  19.939  0.00  0.00    +0.000 C 
ATOM     23  C   UNL     1       2.500   7.876  18.511  0.00  0.00    +0.000 C 
ENDBRANCH  14  21
ENDBRANCH   3  14
TORSDOF 5
ENDMDL
MODEL 5
REMARK VINA RESULT:      -7.4      1.897      2.574
REMARK  Name = 
REMARK  6 active torsions:
REMARK  status: ('A' for Active; 'I' for Inactive)
REMARK    1  A    between atoms: C_1  and  C_2
REMARK    2  A    between atoms: C_5  and  C_6
REMARK    3  A    between atoms: C_9  and  C_10
REMARK    4  A    between atoms: N_12  and  C_13
REMARK    5  A    between atoms: C_13  and  C_14
REMARK    6  A    between atoms: C_13  and  C_20
REMARK                            x       y       z     vdW  Elec       q    Type
REMARK                         _______ _______ _______ _____ _____    ______ ____
ROOT
ATOM      1  C   UNL     1       5.069   5.992  18.427  0.00  0.00    +0.000 C 
ATOM      2  O   UNL     1       5.310   5.551  19.547  0.00  0.00    +0.000 OA
ATOM      3  N   UNL     1       3.836   6.502  18.095  0.00  0.00    +0.000 N 
ATOM      4  H   UNL     1       3.663   6.954  17.212  0.00  0.00    +0.000 HD
ENDROOT
BRANCH   1  10
ATOM      5  C   UNL     1       7.670   8.152  17.783  0.00  0.00    +0.000 C 
ATOM      6  C   UNL     1       7.228   6.889  17.147  0.00  0.00    +0.000 A 
ATOM      7  N   UNL     1       7.953   6.457  16.107  0.00  0.00    +0.000 NA
ATOM      8  O   UNL     1       7.280   5.377  15.594  0.00  0.00    +0.000 OA
ATOM      9  C   UNL     1       6.169   5.142  16.334  0.00  0.00    +0.000 A 
ATOM     10  C   UNL     1       6.116   6.027  17.404  0.00  0.00    +0.000 A 
BRANCH   9  11
ATOM     11  C   UNL     1       5.294   4.066  15.821  0.00  0.00    +0.000 C 
ATOM     12  F   UNL     1       6.005   3.218  15.026  0.00  0.00    +0.000 F 
ATOM     13  F   UNL     1       4.808   3.297  16.836  0.00  0.00    +0.000 F 
ENDBRANCH   9  11
ENDBRANCH   1  10
BRANCH   3  14
ATOM     14  C   UNL     1       2.732   6.598  19.058  0.00  0.00    +0.000 C 
BRANCH  14  15
ATOM     15  C   UNL     1       2.011   5.258  19.263  0.00  0.00    +0.000 A 
ATOM     16  N   UNL     1       1.677   4.889  20.523  0.00  0.00    +0.000 NA
ATOM     17  C   UNL     1       1.163   3.649  20.660  0.00  0.00    +0.000 A 
ATOM     18  C   UNL     1       0.982   2.772  19.615  0.00  0.00    +0.000 A 
ATOM     19  C   UNL     1       1.344   3.241  18.378  0.00  0.00    +0.000 A 
ATOM     20  N   UNL     1       1.849   4.471  18.174  0.00  0.00    +0.000 NA
ENDBRANCH  14  15
BRANCH  14  21
ATOM     21  C   UNL     1       1.733   7.622  18.544  0.00  0.00    +0.000 C 
ATOM     22  C   UNL     1       1.579   9.006  19.154  0.00  0.00    +0.000 C 
ATOM     23  C   UNL     1       2.233   8.848  17.814  0.00  0.00    +0.000 C 
ENDBRANCH  14  21
ENDBRANCH   3  14
TORSDOF 5
ENDMDL
MODEL 6
REMARK VINA RESULT:      -7.3      1.890      2.768
REMARK  Name = 
REMARK  6 active torsions:
REMARK  status: ('A' for Active; 'I' for Inactive)
REMARK    1  A    between atoms: C_1  and  C_2
REMARK    2  A    between atoms: C_5  and  C_6
REMARK    3  A    between atoms: C_9  and  C_10
REMARK    4  A    between atoms: N_12  and  C_13
REMARK    5  A    between atoms: C_13  and  C_14
REMARK    6  A    between atoms: C_13  and  C_20
REMARK                            x       y       z     vdW  Elec       q    Type
REMARK                         _______ _______ _______ _____ _____    ______ ____
ROOT
ATOM      1  C   UNL     1       5.140   5.956  18.317  0.00  0.00    +0.000 C 
ATOM      2  O   UNL     1       5.375   5.414  19.394  0.00  0.00    +0.000 OA
ATOM      3  N   UNL     1       3.923   6.533  18.043  0.00  0.00    +0.000 N 
ATOM      4  H   UNL     1       3.759   7.062  17.203  0.00  0.00    +0.000 HD
ENDROOT
BRANCH   1  10
ATOM      5  C   UNL     1       7.751   8.131  17.776  0.00  0.00    +0.000 C 
ATOM      6  C   UNL     1       7.296   6.909  17.073  0.00  0.00    +0.000 A 
ATOM      7  N   UNL     1       8.010   6.531  16.004  0.00  0.00    +0.000 NA
ATOM      8  O   UNL     1       7.326   5.487  15.437  0.00  0.00    +0.000 OA
ATOM      9  C   UNL     1       6.219   5.217  16.171  0.00  0.00    +0.000 A 
ATOM     10  C   UNL     1       6.180   6.041  17.290  0.00  0.00    +0.000 A 
BRANCH   9  11
ATOM     11  C   UNL     1       5.332   4.179  15.605  0.00  0.00    +0.000 C 
ATOM     12  F   UNL     1       5.995   3.459  14.656  0.00  0.00    +0.000 F 
ATOM     13  F   UNL     1       4.957   3.276  16.556  0.00  0.00    +0.000 F 
ENDBRANCH   9  11
ENDBRANCH   1  10
BRANCH   3  14
ATOM     14  C   UNL     1       2.830   6.583  19.022  0.00  0.00    +0.000 C 
BRANCH  14  15
ATOM     15  C   UNL     1       2.189   5.210  19.261  0.00  0.00    +0.000 A 
ATOM     16  N   UNL     1       1.912   4.430  18.188  0.00  0.00    +0.000 NA
ATOM     17  C   UNL     1       1.234   3.291  18.444  0.00  0.00    +0.000 A 
ATOM     18  C   UNL     1       0.815   2.910  19.698  0.00  0.00    +0.000 A 
ATOM     19  C   UNL     1       1.149   3.763  20.719  0.00  0.00    +0.000 A 
ATOM     20  N   UNL     1       1.836   4.905  20.531  0.00  0.00    +0.000 NA
ENDBRANCH  14  15
BRANCH  14  21
ATOM     21  C   UNL     1       1.769   7.542  18.508  0.00  0.00    +0.000 C 
ATOM     22  C   UNL     1       1.547   8.925  19.097  0.00  0.00    +0.000 C 
ATOM     23  C   UNL     1       2.188   8.781  17.749  0.00  0.00    +0.000 C 
ENDBRANCH  14  21
ENDBRANCH   3  14
TORSDOF 5
ENDMDL
MODEL 7
REMARK VINA RESULT:      -7.3      3.246      6.448
REMARK  Name = 
REMARK  6 active torsions:
REMARK  status: ('A' for Active; 'I' for Inactive)
REMARK    1  A    between atoms: C_1  and  C_2
REMARK    2  A    between atoms: C_5  and  C_6
REMARK    3  A    between atoms: C_9  and  C_10
REMARK    4  A    between atoms: N_12  and  C_13
REMARK    5  A    between atoms: C_13  and  C_14
REMARK    6  A    between atoms: C_13  and  C_20
REMARK                            x       y       z     vdW  Elec       q    Type
REMARK                         _______ _______ _______ _____ _____    ______ ____
ROOT
ATOM      1  C   UNL     1       3.685   5.533  18.081  0.00  0.00    +0.000 C 
ATOM      2  O   UNL     1       3.335   6.616  17.621  0.00  0.00    +0.000 OA
ATOM      3  N   UNL     1       4.943   5.023  17.867  0.00  0.00    +0.000 N 
ATOM      4  H   UNL     1       5.267   4.185  18.321  0.00  0.00    +0.000 HD
ENDROOT
BRANCH   1  10
ATOM      5  C   UNL     1       1.683   6.336  20.763  0.00  0.00    +0.000 C 
ATOM      6  C   UNL     1       1.901   5.080  20.008  0.00  0.00    +0.000 A 
ATOM      7  N   UNL     1       1.201   4.010  20.411  0.00  0.00    +0.000 NA
ATOM      8  O   UNL     1       1.670   2.949  19.681  0.00  0.00    +0.000 OA
ATOM      9  C   UNL     1       2.629   3.377  18.824  0.00  0.00    +0.000 A 
ATOM     10  C   UNL     1       2.771   4.756  18.921  0.00  0.00    +0.000 A 
BRANCH   9  11
ATOM     11  C   UNL     1       3.297   2.308  18.050  0.00  0.00    +0.000 C 
ATOM     12  F   UNL     1       3.593   1.254  18.861  0.00  0.00    +0.000 F 
ATOM     13  F   UNL     1       2.473   1.808  17.084  0.00  0.00    +0.000 F 
ENDBRANCH   9  11
ENDBRANCH   1  10
BRANCH   3  14
ATOM     14  C   UNL     1       5.974   5.746  17.111  0.00  0.00    +0.000 C 
BRANCH  14  15
ATOM     15  C   UNL     1       6.135   5.218  15.679  0.00  0.00    +0.000 A 
ATOM     16  N   UNL     1       5.193   4.374  15.192  0.00  0.00    +0.000 NA
ATOM     17  C   UNL     1       5.449   3.841  13.978  0.00  0.00    +0.000 A 
ATOM     18  C   UNL     1       6.586   4.098  13.249  0.00  0.00    +0.000 A 
ATOM     19  C   UNL     1       7.475   4.970  13.825  0.00  0.00    +0.000 A 
ATOM     20  N   UNL     1       7.273   5.545  15.024  0.00  0.00    +0.000 NA
ENDBRANCH  14  15
BRANCH  14  21
ATOM     21  C   UNL     1       7.298   5.598  17.843  0.00  0.00    +0.000 C 
ATOM     22  C   UNL     1       8.003   6.760  18.523  0.00  0.00    +0.000 C 
ATOM     23  C   UNL     1       7.332   5.706  19.351  0.00  0.00    +0.000 C 
ENDBRANCH  14  21
ENDBRANCH   3  14
TORSDOF 5
ENDMDL
MODEL 8
REMARK VINA RESULT:      -7.2      1.655      3.257
REMARK  Name = 
REMARK  6 active torsions:
REMARK  status: ('A' for Active; 'I' for Inactive)
REMARK    1  A    between atoms: C_1  and  C_2
REMARK    2  A    between atoms: C_5  and  C_6
REMARK    3  A    between atoms: C_9  and  C_10
REMARK    4  A    between atoms: N_12  and  C_13
REMARK    5  A    between atoms: C_13  and  C_14
REMARK    6  A    between atoms: C_13  and  C_20
REMARK                            x       y       z     vdW  Elec       q    Type
REMARK                         _______ _______ _______ _____ _____    ______ ____
ROOT
ATOM      1  C   UNL     1       4.411   5.174  16.874  0.00  0.00    +0.000 C 
ATOM      2  O   UNL     1       3.736   4.155  16.757  0.00  0.00    +0.000 OA
ATOM      3  N   UNL     1       4.048   6.195  17.719  0.00  0.00    +0.000 N 
ATOM      4  H   UNL     1       4.646   6.986  17.892  0.00  0.00    +0.000 HD
ENDROOT
BRANCH   1  10
ATOM      5  C   UNL     1       5.515   3.985  13.839  0.00  0.00    +0.000 C 
ATOM      6  C   UNL     1       6.128   4.869  14.858  0.00  0.00    +0.000 A 
ATOM      7  N   UNL     1       7.360   5.323  14.594  0.00  0.00    +0.000 NA
ATOM      8  O   UNL     1       7.776   5.980  15.723  0.00  0.00    +0.000 OA
ATOM      9  C   UNL     1       6.793   5.946  16.656  0.00  0.00    +0.000 A 
ATOM     10  C   UNL     1       5.668   5.317  16.135  0.00  0.00    +0.000 A 
BRANCH   9  11
ATOM     11  C   UNL     1       7.155   6.528  17.966  0.00  0.00    +0.000 C 
ATOM     12  F   UNL     1       8.057   5.730  18.604  0.00  0.00    +0.000 F 
ATOM     13  F   UNL     1       7.773   7.735  17.817  0.00  0.00    +0.000 F 
ENDBRANCH   9  11
ENDBRANCH   1  10
BRANCH   3  14
ATOM     14  C   UNL     1       2.855   6.132  18.573  0.00  0.00    +0.000 C 
BRANCH  14  15
ATOM     15  C   UNL     1       2.254   7.516  18.848  0.00  0.00    +0.000 A 
ATOM     16  N   UNL     1       1.834   7.801  20.105  0.00  0.00    +0.000 NA
ATOM     17  C   UNL     1       1.198   8.981  20.263  0.00  0.00    +0.000 A 
ATOM     18  C   UNL     1       0.955   9.867  19.240  0.00  0.00    +0.000 A 
ATOM     19  C   UNL     1       1.425   9.492  18.006  0.00  0.00    +0.000 A 
ATOM     20  N   UNL     1       2.078   8.337  17.786  0.00  0.00    +0.000 NA
ENDBRANCH  14  15
BRANCH  14  21
ATOM     21  C   UNL     1       3.244   5.490  19.895  0.00  0.00    +0.000 C 
ATOM     22  C   UNL     1       2.281   4.657  20.725  0.00  0.00    +0.000 C 
ATOM     23  C   UNL     1       3.394   3.987  19.977  0.00  0.00    +0.000 C 
ENDBRANCH  14  21
ENDBRANCH   3  14
TORSDOF 5
ENDMDL
MODEL 9
REMARK VINA RESULT:      -7.2      1.879      3.533
REMARK  Name = 
REMARK  6 active torsions:
REMARK  status: ('A' for Active; 'I' for Inactive)
REMARK    1  A    between atoms: C_1  and  C_2
REMARK    2  A    between atoms: C_5  and  C_6
REMARK    3  A    between atoms: C_9  and  C_10
REMARK    4  A    between atoms: N_12  and  C_13
REMARK    5  A    between atoms: C_13  and  C_14
REMARK    6  A    between atoms: C_13  and  C_20
REMARK                            x       y       z     vdW  Elec       q    Type
REMARK                         _______ _______ _______ _____ _____    ______ ____
ROOT
ATOM      1  C   UNL     1       4.209   5.127  17.244  0.00  0.00    +0.000 C 
ATOM      2  O   UNL     1       3.391   4.274  16.914  0.00  0.00    +0.000 OA
ATOM      3  N   UNL     1       3.891   6.144  18.113  0.00  0.00    +0.000 N 
ATOM      4  H   UNL     1       4.582   6.786  18.463  0.00  0.00    +0.000 HD
ENDROOT
BRANCH   1  10
ATOM      5  C   UNL     1       5.597   4.146  14.251  0.00  0.00    +0.000 C 
ATOM      6  C   UNL     1       6.176   4.702  15.497  0.00  0.00    +0.000 A 
ATOM      7  N   UNL     1       7.504   4.876  15.513  0.00  0.00    +0.000 NA
ATOM      8  O   UNL     1       7.826   5.246  16.794  0.00  0.00    +0.000 OA
ATOM      9  C   UNL     1       6.697   5.320  17.541  0.00  0.00    +0.000 A 
ATOM     10  C   UNL     1       5.585   5.064  16.747  0.00  0.00    +0.000 A 
BRANCH   9  11
ATOM     11  C   UNL     1       6.916   5.606  18.975  0.00  0.00    +0.000 C 
ATOM     12  F   UNL     1       6.204   4.735  19.744  0.00  0.00    +0.000 F 
ATOM     13  F   UNL     1       8.222   5.421  19.323  0.00  0.00    +0.000 F 
ENDBRANCH   9  11
ENDBRANCH   1  10
BRANCH   3  14
ATOM     14  C   UNL     1       2.569   6.266  18.741  0.00  0.00    +0.000 C 
BRANCH  14  15
ATOM     15  C   UNL     1       2.117   7.725  18.885  0.00  0.00    +0.000 A 
ATOM     16  N   UNL     1       1.593   8.126  20.069  0.00  0.00    +0.000 NA
ATOM     17  C   UNL     1       1.095   9.381  20.100  0.00  0.00    +0.000 A 
ATOM     18  C   UNL     1       1.085  10.232  19.019  0.00  0.00    +0.000 A 
ATOM     19  C   UNL     1       1.645   9.735  17.868  0.00  0.00    +0.000 A 
ATOM     20  N   UNL     1       2.170   8.500  17.777  0.00  0.00    +0.000 NA
ENDBRANCH  14  15
BRANCH  14  21
ATOM     21  C   UNL     1       2.633   5.630  20.121  0.00  0.00    +0.000 C 
ATOM     22  C   UNL     1       1.570   4.676  20.643  0.00  0.00    +0.000 C 
ATOM     23  C   UNL     1       2.917   4.150  20.247  0.00  0.00    +0.000 C 
ENDBRANCH  14  21
ENDBRANCH   3  14
TORSDOF 5
ENDMDL
