MODEL 1
REMARK VINA RESULT:      -9.0      0.000      0.000
REMARK  Name = 
REMARK  8 active torsions:
REMARK  status: ('A' for Active; 'I' for Inactive)
REMARK    1  A    between atoms: C_4  and  O_5
REMARK    2  A    between atoms: O_5  and  C_6
REMARK    3  A    between atoms: C_6  and  C_7
REMARK    4  A    between atoms: C_7  and  N_8
REMARK    5  A    between atoms: N_8  and  C_9
REMARK    6  A    between atoms: C_9  and  C_10
REMARK    7  A    between atoms: C_13  and  C_14
REMARK    8  A    between atoms: C_13  and  C_20
REMARK                            x       y       z     vdW  Elec       q    Type
REMARK                         _______ _______ _______ _____ _____    ______ ____
ROOT
ATOM      1  C   UNL     1       6.125   4.748  17.565  0.00  0.00    +0.000 C 
ATOM      2  C   UNL     1       4.830   4.307  16.882  0.00  0.00    +0.000 C 
ATOM      3  O   UNL     1       3.748   5.187  17.208  0.00  0.00    +0.000 OA
ATOM      4  C   UNL     1       3.502   5.381  18.628  0.00  0.00    +0.000 C 
ATOM      5  C   UNL     1       4.851   5.458  19.450  0.00  0.00    +0.000 C 
ATOM      6  O   UNL     1       5.933   4.643  18.984  0.00  0.00    +0.000 OA
ENDROOT
BRANCH   4   7
ATOM      7  C   UNL     1       2.812   6.777  18.746  0.00  0.00    +0.000 A 
ATOM      8  C   UNL     1       2.850   7.694  17.673  0.00  0.00    +0.000 A 
ATOM      9  C   UNL     1       2.264   8.958  17.772  0.00  0.00    +0.000 A 
ATOM     10  C   UNL     1       1.627   9.340  18.948  0.00  0.00    +0.000 A 
ATOM     11  C   UNL     1       1.558   8.450  20.015  0.00  0.00    +0.000 A 
ATOM     12  C   UNL     1       2.130   7.179  19.913  0.00  0.00    +0.000 A 
ENDBRANCH   4   7
BRANCH   4  13
ATOM     13  C   UNL     1       2.588   4.227  19.088  0.00  0.00    +0.000 A 
ATOM     14  C   UNL     1       2.750   3.638  20.356  0.00  0.00    +0.000 A 
ATOM     15  C   UNL     1       1.939   2.583  20.780  0.00  0.00    +0.000 A 
ATOM     16  C   UNL     1       0.945   2.088  19.944  0.00  0.00    +0.000 A 
ATOM     17  C   UNL     1       0.777   2.632  18.677  0.00  0.00    +0.000 A 
ATOM     18  C   UNL     1       1.596   3.681  18.251  0.00  0.00    +0.000 A 
ENDBRANCH   4  13
BRANCH   1  19
ATOM     19  C   UNL     1       6.473   6.175  17.083  0.00  0.00    +0.000 C 
BRANCH  19  20
ATOM     20  N   UNL     1       7.676   6.776  17.669  0.00  0.00    +0.000 NA
ATOM     21  H   UNL     1       7.751   6.502  18.650  0.00  0.00    +0.000 HD
BRANCH  20  22
ATOM     22  C   UNL     1       7.625   8.246  17.551  0.00  0.00    +0.000 C 
BRANCH  22  23
ATOM     23  C   UNL     1       8.587   9.008  18.483  0.00  0.00    +0.000 C 
BRANCH  23  24
ATOM     24  O   UNL     1       8.669  10.377  18.077  0.00  0.00    +0.000 OA
BRANCH  24  28
ATOM     25  C   UNL     1      11.975  12.400  19.597  0.00  0.00    +0.000 A 
ATOM     26  C   UNL     1      11.794  12.215  18.225  0.00  0.00    +0.000 A 
ATOM     27  C   UNL     1      10.650  11.563  17.752  0.00  0.00    +0.000 A 
ATOM     28  C   UNL     1       9.696  11.081  18.646  0.00  0.00    +0.000 A 
ATOM     29  C   UNL     1       9.852  11.324  20.011  0.00  0.00    +0.000 A 
ATOM     30  C   UNL     1      10.996  11.968  20.486  0.00  0.00    +0.000 A 
ENDBRANCH  24  28
ENDBRANCH  23  24
ENDBRANCH  22  23
ENDBRANCH  20  22
ENDBRANCH  19  20
ENDBRANCH   1  19
TORSDOF 8
ENDMDL
MODEL 2
REMARK VINA RESULT:      -9.0      0.707      1.577
REMARK  Name = 
REMARK  8 active torsions:
REMARK  status: ('A' for Active; 'I' for Inactive)
REMARK    1  A    between atoms: C_4  and  O_5
REMARK    2  A    between atoms: O_5  and  C_6
REMARK    3  A    between atoms: C_6  and  C_7
REMARK    4  A    between atoms: C_7  and  N_8
REMARK    5  A    between atoms: N_8  and  C_9
REMARK    6  A    between atoms: C_9  and  C_10
REMARK    7  A    between atoms: C_13  and  C_14
REMARK    8  A    between atoms: C_13  and  C_20
REMARK                            x       y       z     vdW  Elec       q    Type
REMARK                         _______ _______ _______ _____ _____    ______ ____
ROOT
ATOM      1  C   UNL     1       6.085   4.951  17.303  0.00  0.00    +0.000 C 
ATOM      2  C   UNL     1       4.761   4.458  16.719  0.00  0.00    +0.000 C 
ATOM      3  O   UNL     1       3.674   5.301  17.116  0.00  0.00    +0.000 OA
ATOM      4  C   UNL     1       3.524   5.498  18.549  0.00  0.00    +0.000 C 
ATOM      5  C   UNL     1       4.925   5.630  19.271  0.00  0.00    +0.000 C 
ATOM      6  O   UNL     1       6.000   4.850  18.733  0.00  0.00    +0.000 OA
ENDROOT
BRANCH   4   7
ATOM      7  C   UNL     1       2.794   6.869  18.708  0.00  0.00    +0.000 A 
ATOM      8  C   UNL     1       2.148   7.207  19.917  0.00  0.00    +0.000 A 
ATOM      9  C   UNL     1       1.464   8.415  20.067  0.00  0.00    +0.000 A 
ATOM     10  C   UNL     1       1.407   9.318  19.011  0.00  0.00    +0.000 A 
ATOM     11  C   UNL     1       2.050   9.021  17.813  0.00  0.00    +0.000 A 
ATOM     12  C   UNL     1       2.747   7.818  17.667  0.00  0.00    +0.000 A 
ENDBRANCH   4   7
BRANCH   4  13
ATOM     13  C   UNL     1       2.688   4.316  19.081  0.00  0.00    +0.000 A 
ATOM     14  C   UNL     1       1.577   3.833  18.363  0.00  0.00    +0.000 A 
ATOM     15  C   UNL     1       0.804   2.772  18.840  0.00  0.00    +0.000 A 
ATOM     16  C   UNL     1       1.120   2.168  20.051  0.00  0.00    +0.000 A 
ATOM     17  C   UNL     1       2.195   2.638  20.795  0.00  0.00    +0.000 A 
ATOM     18  C   UNL     1       2.963   3.706  20.320  0.00  0.00    +0.000 A 
ENDBRANCH   4  13
BRANCH   1  19
ATOM     19  C   UNL     1       6.345   6.386  16.790  0.00  0.00    +0.000 C 
BRANCH  19  20
ATOM     20  N   UNL     1       7.733   6.853  16.864  0.00  0.00    +0.000 NA
ATOM     21  H   UNL     1       8.365   6.050  16.844  0.00  0.00    +0.000 HD
BRANCH  20  22
ATOM     22  C   UNL     1       7.945   7.639  18.095  0.00  0.00    +0.000 C 
BRANCH  22  23
ATOM     23  C   UNL     1       8.199   9.142  17.872  0.00  0.00    +0.000 C 
BRANCH  23  24
ATOM     24  O   UNL     1       8.968   9.668  18.957  0.00  0.00    +0.000 OA
BRANCH  24  28
ATOM     25  C   UNL     1      10.661  13.324  17.909  0.00  0.00    +0.000 A 
ATOM     26  C   UNL     1       9.340  13.008  17.588  0.00  0.00    +0.000 A 
ATOM     27  C   UNL     1       8.795  11.783  17.992  0.00  0.00    +0.000 A 
ATOM     28  C   UNL     1       9.573  10.869  18.700  0.00  0.00    +0.000 A 
ATOM     29  C   UNL     1      10.872  11.216  19.070  0.00  0.00    +0.000 A 
ATOM     30  C   UNL     1      11.420  12.435  18.662  0.00  0.00    +0.000 A 
ENDBRANCH  24  28
ENDBRANCH  23  24
ENDBRANCH  22  23
ENDBRANCH  20  22
ENDBRANCH  19  20
ENDBRANCH   1  19
TORSDOF 8
ENDMDL
MODEL 3
REMARK VINA RESULT:      -8.9      0.775      1.469
REMARK  Name = 
REMARK  8 active torsions:
REMARK  status: ('A' for Active; 'I' for Inactive)
REMARK    1  A    between atoms: C_4  and  O_5
REMARK    2  A    between atoms: O_5  and  C_6
REMARK    3  A    between atoms: C_6  and  C_7
REMARK    4  A    between atoms: C_7  and  N_8
REMARK    5  A    between atoms: N_8  and  C_9
REMARK    6  A    between atoms: C_9  and  C_10
REMARK    7  A    between atoms: C_13  and  C_14
REMARK    8  A    between atoms: C_13  and  C_20
REMARK                            x       y       z     vdW  Elec       q    Type
REMARK                         _______ _______ _______ _____ _____    ______ ____
ROOT
ATOM      1  C   UNL     1       5.871   4.998  17.357  0.00  0.00    +0.000 C 
ATOM      2  C   UNL     1       4.527   4.485  16.838  0.00  0.00    +0.000 C 
ATOM      3  O   UNL     1       3.455   5.346  17.238  0.00  0.00    +0.000 OA
ATOM      4  C   UNL     1       3.354   5.601  18.666  0.00  0.00    +0.000 C 
ATOM      5  C   UNL     1       4.779   5.759  19.334  0.00  0.00    +0.000 C 
ATOM      6  O   UNL     1       5.834   4.956  18.792  0.00  0.00    +0.000 OA
ENDROOT
BRANCH   4   7
ATOM      7  C   UNL     1       2.631   6.980  18.794  0.00  0.00    +0.000 A 
ATOM      8  C   UNL     1       2.595   7.880  17.707  0.00  0.00    +0.000 A 
ATOM      9  C   UNL     1       1.979   9.129  17.814  0.00  0.00    +0.000 A 
ATOM     10  C   UNL     1       1.385   9.512  19.011  0.00  0.00    +0.000 A 
ATOM     11  C   UNL     1       1.389   8.638  20.094  0.00  0.00    +0.000 A 
ATOM     12  C   UNL     1       1.992   7.382  19.984  0.00  0.00    +0.000 A 
ENDBRANCH   4   7
BRANCH   4  13
ATOM     13  C   UNL     1       2.536   4.444  19.273  0.00  0.00    +0.000 A 
ATOM     14  C   UNL     1       1.519   3.810  18.534  0.00  0.00    +0.000 A 
ATOM     15  C   UNL     1       0.761   2.770  19.077  0.00  0.00    +0.000 A 
ATOM     16  C   UNL     1       0.999   2.339  20.377  0.00  0.00    +0.000 A 
ATOM     17  C   UNL     1       1.979   2.960  21.140  0.00  0.00    +0.000 A 
ATOM     18  C   UNL     1       2.730   4.007  20.598  0.00  0.00    +0.000 A 
ENDBRANCH   4  13
BRANCH   1  19
ATOM     19  C   UNL     1       6.115   6.410  16.778  0.00  0.00    +0.000 C 
BRANCH  19  20
ATOM     20  N   UNL     1       7.511   6.855  16.738  0.00  0.00    +0.000 NA
ATOM     21  H   UNL     1       8.117   6.063  16.517  0.00  0.00    +0.000 HD
BRANCH  20  22
ATOM     22  C   UNL     1       7.898   7.449  18.033  0.00  0.00    +0.000 C 
BRANCH  22  23
ATOM     23  C   UNL     1       8.233   8.952  17.987  0.00  0.00    +0.000 C 
BRANCH  23  24
ATOM     24  O   UNL     1       9.072   9.294  19.094  0.00  0.00    +0.000 OA
BRANCH  24  28
ATOM     25  C   UNL     1      10.178  13.296  19.391  0.00  0.00    +0.000 A 
ATOM     26  C   UNL     1       9.988  12.501  20.522  0.00  0.00    +0.000 A 
ATOM     27  C   UNL     1       9.654  11.150  20.380  0.00  0.00    +0.000 A 
ATOM     28  C   UNL     1       9.492  10.597  19.110  0.00  0.00    +0.000 A 
ATOM     29  C   UNL     1       9.744  11.380  17.985  0.00  0.00    +0.000 A 
ATOM     30  C   UNL     1      10.071  12.731  18.124  0.00  0.00    +0.000 A 
ENDBRANCH  24  28
ENDBRANCH  23  24
ENDBRANCH  22  23
ENDBRANCH  20  22
ENDBRANCH  19  20
ENDBRANCH   1  19
TORSDOF 8
ENDMDL
MODEL 4
REMARK VINA RESULT:      -8.6      0.320      1.302
REMARK  Name = 
REMARK  8 active torsions:
REMARK  status: ('A' for Active; 'I' for Inactive)
REMARK    1  A    between atoms: C_4  and  O_5
REMARK    2  A    between atoms: O_5  and  C_6
REMARK    3  A    between atoms: C_6  and  C_7
REMARK    4  A    between atoms: C_7  and  N_8
REMARK    5  A    between atoms: N_8  and  C_9
REMARK    6  A    between atoms: C_9  and  C_10
REMARK    7  A    between atoms: C_13  and  C_14
REMARK    8  A    between atoms: C_13  and  C_20
REMARK                            x       y       z     vdW  Elec       q    Type
REMARK                         _______ _______ _______ _____ _____    ______ ____
ROOT
ATOM      1  C   UNL     1       6.165   4.718  17.344  0.00  0.00    +0.000 C 
ATOM      2  C   UNL     1       4.838   4.240  16.756  0.00  0.00    +0.000 C 
ATOM      3  O   UNL     1       3.768   5.123  17.110  0.00  0.00    +0.000 OA
ATOM      4  C   UNL     1       3.602   5.372  18.532  0.00  0.00    +0.000 C 
ATOM      5  C   UNL     1       4.996   5.492  19.271  0.00  0.00    +0.000 C 
ATOM      6  O   UNL     1       6.058   4.668  18.775  0.00  0.00    +0.000 OA
ENDROOT
BRANCH   4   7
ATOM      7  C   UNL     1       2.906   6.766  18.635  0.00  0.00    +0.000 A 
ATOM      8  C   UNL     1       2.217   7.144  19.808  0.00  0.00    +0.000 A 
ATOM      9  C   UNL     1       1.563   8.374  19.906  0.00  0.00    +0.000 A 
ATOM     10  C   UNL     1       1.579   9.258  18.833  0.00  0.00    +0.000 A 
ATOM     11  C   UNL     1       2.266   8.921  17.671  0.00  0.00    +0.000 A 
ATOM     12  C   UNL     1       2.934   7.696  17.577  0.00  0.00    +0.000 A 
ENDBRANCH   4   7
BRANCH   4  13
ATOM     13  C   UNL     1       2.729   4.230  19.090  0.00  0.00    +0.000 A 
ATOM     14  C   UNL     1       3.001   3.659  20.348  0.00  0.00    +0.000 A 
ATOM     15  C   UNL     1       2.226   2.615  20.859  0.00  0.00    +0.000 A 
ATOM     16  C   UNL     1       1.160   2.112  20.123  0.00  0.00    +0.000 A 
ATOM     17  C   UNL     1       0.881   2.638  18.868  0.00  0.00    +0.000 A 
ATOM     18  C   UNL     1       1.663   3.677  18.354  0.00  0.00    +0.000 A 
ENDBRANCH   4  13
BRANCH   1  19
ATOM     19  C   UNL     1       6.470   6.128  16.787  0.00  0.00    +0.000 C 
BRANCH  19  20
ATOM     20  N   UNL     1       7.672   6.781  17.316  0.00  0.00    +0.000 NA
ATOM     21  H   UNL     1       8.052   6.227  18.085  0.00  0.00    +0.000 HD
BRANCH  20  22
ATOM     22  C   UNL     1       7.352   8.146  17.779  0.00  0.00    +0.000 C 
BRANCH  22  23
ATOM     23  C   UNL     1       8.509   9.158  17.675  0.00  0.00    +0.000 C 
BRANCH  23  24
ATOM     24  O   UNL     1       8.482  10.040  18.800  0.00  0.00    +0.000 OA
BRANCH  24  28
ATOM     25  C   UNL     1      11.756  12.520  19.483  0.00  0.00    +0.000 A 
ATOM     26  C   UNL     1      10.972  12.034  20.530  0.00  0.00    +0.000 A 
ATOM     27  C   UNL     1       9.902  11.172  20.262  0.00  0.00    +0.000 A 
ATOM     28  C   UNL     1       9.606  10.808  18.950  0.00  0.00    +0.000 A 
ATOM     29  C   UNL     1      10.430  11.247  17.915  0.00  0.00    +0.000 A 
ATOM     30  C   UNL     1      11.494  12.113  18.178  0.00  0.00    +0.000 A 
ENDBRANCH  24  28
ENDBRANCH  23  24
ENDBRANCH  22  23
ENDBRANCH  20  22
ENDBRANCH  19  20
ENDBRANCH   1  19
TORSDOF 8
ENDMDL
MODEL 5
REMARK VINA RESULT:      -8.5      0.870      1.732
REMARK  Name = 
REMARK  8 active torsions:
REMARK  status: ('A' for Active; 'I' for Inactive)
REMARK    1  A    between atoms: C_4  and  O_5
REMARK    2  A    between atoms: O_5  and  C_6
REMARK    3  A    between atoms: C_6  and  C_7
REMARK    4  A    between atoms: C_7  and  N_8
REMARK    5  A    between atoms: N_8  and  C_9
REMARK    6  A    between atoms: C_9  and  C_10
REMARK    7  A    between atoms: C_13  and  C_14
REMARK    8  A    between atoms: C_13  and  C_20
REMARK                            x       y       z     vdW  Elec       q    Type
REMARK                         _______ _______ _______ _____ _____    ______ ____
ROOT
ATOM      1  C   UNL     1       6.286   5.617  17.182  0.00  0.00    +0.000 C 
ATOM      2  C   UNL     1       5.019   5.165  16.456  0.00  0.00    +0.000 C 
ATOM      3  O   UNL     1       3.856   5.797  17.003  0.00  0.00    +0.000 OA
ATOM      4  C   UNL     1       3.671   5.641  18.436  0.00  0.00    +0.000 C 
ATOM      5  C   UNL     1       5.046   5.718  19.215  0.00  0.00    +0.000 C 
ATOM      6  O   UNL     1       6.193   5.178  18.546  0.00  0.00    +0.000 OA
ENDROOT
BRANCH   4   7
ATOM      7  C   UNL     1       2.820   6.871  18.885  0.00  0.00    +0.000 A 
ATOM      8  C   UNL     1       2.253   6.923  20.176  0.00  0.00    +0.000 A 
ATOM      9  C   UNL     1       1.464   8.001  20.583  0.00  0.00    +0.000 A 
ATOM     10  C   UNL     1       1.219   9.054  19.709  0.00  0.00    +0.000 A 
ATOM     11  C   UNL     1       1.780   9.039  18.436  0.00  0.00    +0.000 A 
ATOM     12  C   UNL     1       2.582   7.968  18.031  0.00  0.00    +0.000 A 
ENDBRANCH   4   7
BRANCH   4  13
ATOM     13  C   UNL     1       2.938   4.301  18.651  0.00  0.00    +0.000 A 
ATOM     14  C   UNL     1       1.629   4.107  18.171  0.00  0.00    +0.000 A 
ATOM     15  C   UNL     1       0.949   2.903  18.371  0.00  0.00    +0.000 A 
ATOM     16  C   UNL     1       1.560   1.864  19.062  0.00  0.00    +0.000 A 
ATOM     17  C   UNL     1       2.841   2.033  19.570  0.00  0.00    +0.000 A 
ATOM     18  C   UNL     1       3.517   3.242  19.376  0.00  0.00    +0.000 A 
ENDBRANCH   4  13
BRANCH   1  19
ATOM     19  C   UNL     1       6.424   7.148  17.024  0.00  0.00    +0.000 C 
BRANCH  19  20
ATOM     20  N   UNL     1       7.793   7.664  16.924  0.00  0.00    +0.000 NA
ATOM     21  H   UNL     1       8.417   6.917  16.613  0.00  0.00    +0.000 HD
BRANCH  20  22
ATOM     22  C   UNL     1       8.239   8.192  18.228  0.00  0.00    +0.000 C 
BRANCH  22  23
ATOM     23  C   UNL     1       8.567   9.698  18.243  0.00  0.00    +0.000 C 
BRANCH  23  24
ATOM     24  O   UNL     1       9.437   9.991  19.340  0.00  0.00    +0.000 OA
BRANCH  24  28
ATOM     25  C   UNL     1      11.418  13.649  19.171  0.00  0.00    +0.000 A 
ATOM     26  C   UNL     1      10.991  13.100  20.381  0.00  0.00    +0.000 A 
ATOM     27  C   UNL     1      10.362  11.850  20.400  0.00  0.00    +0.000 A 
ATOM     28  C   UNL     1      10.145  11.156  19.211  0.00  0.00    +0.000 A 
ATOM     29  C   UNL     1      10.629  11.680  18.014  0.00  0.00    +0.000 A 
ATOM     30  C   UNL     1      11.251  12.931  17.991  0.00  0.00    +0.000 A 
ENDBRANCH  24  28
ENDBRANCH  23  24
ENDBRANCH  22  23
ENDBRANCH  20  22
ENDBRANCH  19  20
ENDBRANCH   1  19
TORSDOF 8
ENDMDL
MODEL 6
REMARK VINA RESULT:      -8.2      0.741      1.010
REMARK  Name = 
REMARK  8 active torsions:
REMARK  status: ('A' for Active; 'I' for Inactive)
REMARK    1  A    between atoms: C_4  and  O_5
REMARK    2  A    between atoms: O_5  and  C_6
REMARK    3  A    between atoms: C_6  and  C_7
REMARK    4  A    between atoms: C_7  and  N_8
REMARK    5  A    between atoms: N_8  and  C_9
REMARK    6  A    between atoms: C_9  and  C_10
REMARK    7  A    between atoms: C_13  and  C_14
REMARK    8  A    between atoms: C_13  and  C_20
REMARK                            x       y       z     vdW  Elec       q    Type
REMARK                         _______ _______ _______ _____ _____    ______ ____
ROOT
ATOM      1  C   UNL     1       6.016   4.934  17.222  0.00  0.00    +0.000 C 
ATOM      2  C   UNL     1       4.673   4.427  16.698  0.00  0.00    +0.000 C 
ATOM      3  O   UNL     1       3.598   5.272  17.125  0.00  0.00    +0.000 OA
ATOM      4  C   UNL     1       3.504   5.492  18.559  0.00  0.00    +0.000 C 
ATOM      5  C   UNL     1       4.932   5.641  19.224  0.00  0.00    +0.000 C 
ATOM      6  O   UNL     1       5.988   4.856  18.656  0.00  0.00    +0.000 OA
ENDROOT
BRANCH   4   7
ATOM      7  C   UNL     1       2.774   6.862  18.726  0.00  0.00    +0.000 A 
ATOM      8  C   UNL     1       2.775   7.812  17.681  0.00  0.00    +0.000 A 
ATOM      9  C   UNL     1       2.153   9.054  17.824  0.00  0.00    +0.000 A 
ATOM     10  C   UNL     1       1.517   9.381  19.016  0.00  0.00    +0.000 A 
ATOM     11  C   UNL     1       1.484   8.458  20.057  0.00  0.00    +0.000 A 
ATOM     12  C   UNL     1       2.093   7.208  19.910  0.00  0.00    +0.000 A 
ENDBRANCH   4   7
BRANCH   4  13
ATOM     13  C   UNL     1       2.695   4.315  19.142  0.00  0.00    +0.000 A 
ATOM     14  C   UNL     1       3.053   3.729  20.371  0.00  0.00    +0.000 A 
ATOM     15  C   UNL     1       2.337   2.654  20.904  0.00  0.00    +0.000 A 
ATOM     16  C   UNL     1       1.247   2.134  20.218  0.00  0.00    +0.000 A 
ATOM     17  C   UNL     1       0.884   2.674  18.990  0.00  0.00    +0.000 A 
ATOM     18  C   UNL     1       1.607   3.744  18.455  0.00  0.00    +0.000 A 
ENDBRANCH   4  13
BRANCH   1  19
ATOM     19  C   UNL     1       6.250   6.362  16.677  0.00  0.00    +0.000 C 
BRANCH  19  20
ATOM     20  N   UNL     1       7.585   6.924  16.899  0.00  0.00    +0.000 NA
ATOM     21  H   UNL     1       8.259   6.166  17.024  0.00  0.00    +0.000 HD
BRANCH  20  22
ATOM     22  C   UNL     1       7.581   7.805  18.084  0.00  0.00    +0.000 C 
BRANCH  22  23
ATOM     23  C   UNL     1       8.706   8.857  18.118  0.00  0.00    +0.000 C 
BRANCH  23  24
ATOM     24  O   UNL     1       8.164  10.153  17.850  0.00  0.00    +0.000 OA
BRANCH  24  28
ATOM     25  C   UNL     1      10.626  13.214  19.228  0.00  0.00    +0.000 A 
ATOM     26  C   UNL     1      10.750  11.905  19.695  0.00  0.00    +0.000 A 
ATOM     27  C   UNL     1       9.929  10.896  19.179  0.00  0.00    +0.000 A 
ATOM     28  C   UNL     1       8.973  11.197  18.211  0.00  0.00    +0.000 A 
ATOM     29  C   UNL     1       8.896  12.493  17.703  0.00  0.00    +0.000 A 
ATOM     30  C   UNL     1       9.710  13.503  18.222  0.00  0.00    +0.000 A 
ENDBRANCH  24  28
ENDBRANCH  23  24
ENDBRANCH  22  23
ENDBRANCH  20  22
ENDBRANCH  19  20
ENDBRANCH   1  19
TORSDOF 8
ENDMDL
MODEL 7
REMARK VINA RESULT:      -8.2      4.033      6.414
REMARK  Name = 
REMARK  8 active torsions:
REMARK  status: ('A' for Active; 'I' for Inactive)
REMARK    1  A    between atoms: C_4  and  O_5
REMARK    2  A    between atoms: O_5  and  C_6
REMARK    3  A    between atoms: C_6  and  C_7
REMARK    4  A    between atoms: C_7  and  N_8
REMARK    5  A    between atoms: N_8  and  C_9
REMARK    6  A    between atoms: C_9  and  C_10
REMARK    7  A    between atoms: C_13  and  C_14
REMARK    8  A    between atoms: C_13  and  C_20
REMARK                            x       y       z     vdW  Elec       q    Type
REMARK                         _______ _______ _______ _____ _____    ______ ____
ROOT
ATOM      1  C   UNL     1       5.828   4.525  17.462  0.00  0.00    +0.000 C 
ATOM      2  C   UNL     1       4.431   4.020  17.101  0.00  0.00    +0.000 C 
ATOM      3  O   UNL     1       3.427   4.977  17.458  0.00  0.00    +0.000 OA
ATOM      4  C   UNL     1       3.439   5.412  18.845  0.00  0.00    +0.000 C 
ATOM      5  C   UNL     1       4.913   5.580  19.393  0.00  0.00    +0.000 C 
ATOM      6  O   UNL     1       5.893   4.663  18.889  0.00  0.00    +0.000 OA
ENDROOT
BRANCH   4   7
ATOM      7  C   UNL     1       2.785   6.830  18.844  0.00  0.00    +0.000 A 
ATOM      8  C   UNL     1       2.085   7.303  19.975  0.00  0.00    +0.000 A 
ATOM      9  C   UNL     1       1.468   8.556  19.980  0.00  0.00    +0.000 A 
ATOM     10  C   UNL     1       1.534   9.368  18.854  0.00  0.00    +0.000 A 
ATOM     11  C   UNL     1       2.232   8.937  17.731  0.00  0.00    +0.000 A 
ATOM     12  C   UNL     1       2.863   7.689  17.729  0.00  0.00    +0.000 A 
ENDBRANCH   4   7
BRANCH   4  13
ATOM     13  C   UNL     1       2.619   4.381  19.647  0.00  0.00    +0.000 A 
ATOM     14  C   UNL     1       1.428   3.840  19.126  0.00  0.00    +0.000 A 
ATOM     15  C   UNL     1       0.669   2.917  19.848  0.00  0.00    +0.000 A 
ATOM     16  C   UNL     1       1.079   2.512  21.113  0.00  0.00    +0.000 A 
ATOM     17  C   UNL     1       2.237   3.046  21.664  0.00  0.00    +0.000 A 
ATOM     18  C   UNL     1       2.991   3.978  20.944  0.00  0.00    +0.000 A 
ENDBRANCH   4  13
BRANCH   1  19
ATOM     19  C   UNL     1       6.089   5.840  16.692  0.00  0.00    +0.000 C 
BRANCH  19  20
ATOM     20  N   UNL     1       7.257   5.846  15.806  0.00  0.00    +0.000 NA
ATOM     21  H   UNL     1       7.339   6.758  15.354  0.00  0.00    +0.000 HD
BRANCH  20  22
ATOM     22  C   UNL     1       7.136   4.781  14.790  0.00  0.00    +0.000 C 
BRANCH  22  23
ATOM     23  C   UNL     1       7.957   5.009  13.507  0.00  0.00    +0.000 C 
BRANCH  23  24
ATOM     24  O   UNL     1       7.088   5.007  12.371  0.00  0.00    +0.000 OA
BRANCH  24  28
ATOM     25  C   UNL     1       5.957   1.234  11.022  0.00  0.00    +0.000 A 
ATOM     26  C   UNL     1       7.298   1.608  11.118  0.00  0.00    +0.000 A 
ATOM     27  C   UNL     1       7.639   2.872  11.612  0.00  0.00    +0.000 A 
ATOM     28  C   UNL     1       6.643   3.768  11.994  0.00  0.00    +0.000 A 
ATOM     29  C   UNL     1       5.308   3.366  11.955  0.00  0.00    +0.000 A 
ATOM     30  C   UNL     1       4.965   2.108  11.456  0.00  0.00    +0.000 A 
ENDBRANCH  24  28
ENDBRANCH  23  24
ENDBRANCH  22  23
ENDBRANCH  20  22
ENDBRANCH  19  20
ENDBRANCH   1  19
TORSDOF 8
ENDMDL
MODEL 8
REMARK VINA RESULT:      -8.1      3.809      6.344
REMARK  Name = 
REMARK  8 active torsions:
REMARK  status: ('A' for Active; 'I' for Inactive)
REMARK    1  A    between atoms: C_4  and  O_5
REMARK    2  A    between atoms: O_5  and  C_6
REMARK    3  A    between atoms: C_6  and  C_7
REMARK    4  A    between atoms: C_7  and  N_8
REMARK    5  A    between atoms: N_8  and  C_9
REMARK    6  A    between atoms: C_9  and  C_10
REMARK    7  A    between atoms: C_13  and  C_14
REMARK    8  A    between atoms: C_13  and  C_20
REMARK                            x       y       z     vdW  Elec       q    Type
REMARK                         _______ _______ _______ _____ _____    ______ ____
ROOT
ATOM      1  C   UNL     1       6.012   4.624  17.829  0.00  0.00    +0.000 C 
ATOM      2  C   UNL     1       4.705   4.151  17.194  0.00  0.00    +0.000 C 
ATOM      3  O   UNL     1       3.647   5.088  17.427  0.00  0.00    +0.000 OA
ATOM      4  C   UNL     1       3.409   5.432  18.819  0.00  0.00    +0.000 C 
ATOM      5  C   UNL     1       4.760   5.556  19.631  0.00  0.00    +0.000 C 
ATOM      6  O   UNL     1       5.820   4.669  19.251  0.00  0.00    +0.000 OA
ENDROOT
BRANCH   4   7
ATOM      7  C   UNL     1       2.756   6.851  18.793  0.00  0.00    +0.000 A 
ATOM      8  C   UNL     1       2.060   7.345  19.917  0.00  0.00    +0.000 A 
ATOM      9  C   UNL     1       1.445   8.599  19.901  0.00  0.00    +0.000 A 
ATOM     10  C   UNL     1       1.508   9.391  18.760  0.00  0.00    +0.000 A 
ATOM     11  C   UNL     1       2.203   8.938  17.643  0.00  0.00    +0.000 A 
ATOM     12  C   UNL     1       2.832   7.689  17.662  0.00  0.00    +0.000 A 
ENDBRANCH   4   7
BRANCH   4  13
ATOM     13  C   UNL     1       2.465   4.356  19.393  0.00  0.00    +0.000 A 
ATOM     14  C   UNL     1       2.597   3.913  20.723  0.00  0.00    +0.000 A 
ATOM     15  C   UNL     1       1.758   2.929  21.251  0.00  0.00    +0.000 A 
ATOM     16  C   UNL     1       0.767   2.359  20.461  0.00  0.00    +0.000 A 
ATOM     17  C   UNL     1       0.628   2.757  19.138  0.00  0.00    +0.000 A 
ATOM     18  C   UNL     1       1.474   3.735  18.608  0.00  0.00    +0.000 A 
ENDBRANCH   4  13
BRANCH   1  19
ATOM     19  C   UNL     1       6.397   5.986  17.205  0.00  0.00    +0.000 C 
BRANCH  19  20
ATOM     20  N   UNL     1       7.469   5.954  16.206  0.00  0.00    +0.000 NA
ATOM     21  H   UNL     1       7.456   6.819  15.663  0.00  0.00    +0.000 HD
BRANCH  20  22
ATOM     22  C   UNL     1       7.305   4.788  15.314  0.00  0.00    +0.000 C 
BRANCH  22  23
ATOM     23  C   UNL     1       6.335   5.000  14.137  0.00  0.00    +0.000 C 
BRANCH  23  24
ATOM     24  O   UNL     1       7.002   4.715  12.904  0.00  0.00    +0.000 OA
BRANCH  24  28
ATOM     25  C   UNL     1       5.925   1.294  10.789  0.00  0.00    +0.000 A 
ATOM     26  C   UNL     1       7.260   1.604  11.053  0.00  0.00    +0.000 A 
ATOM     27  C   UNL     1       7.580   2.744  11.801  0.00  0.00    +0.000 A 
ATOM     28  C   UNL     1       6.569   3.582  12.269  0.00  0.00    +0.000 A 
ATOM     29  C   UNL     1       5.236   3.233  12.056  0.00  0.00    +0.000 A 
ATOM     30  C   UNL     1       4.914   2.100  11.304  0.00  0.00    +0.000 A 
ENDBRANCH  24  28
ENDBRANCH  23  24
ENDBRANCH  22  23
ENDBRANCH  20  22
ENDBRANCH  19  20
ENDBRANCH   1  19
TORSDOF 8
ENDMDL
MODEL 9
REMARK VINA RESULT:      -8.1      0.997      1.454
REMARK  Name = 
REMARK  8 active torsions:
REMARK  status: ('A' for Active; 'I' for Inactive)
REMARK    1  A    between atoms: C_4  and  O_5
REMARK    2  A    between atoms: O_5  and  C_6
REMARK    3  A    between atoms: C_6  and  C_7
REMARK    4  A    between atoms: C_7  and  N_8
REMARK    5  A    between atoms: N_8  and  C_9
REMARK    6  A    between atoms: C_9  and  C_10
REMARK    7  A    between atoms: C_13  and  C_14
REMARK    8  A    between atoms: C_13  and  C_20
REMARK                            x       y       z     vdW  Elec       q    Type
REMARK                         _______ _______ _______ _____ _____    ______ ____
ROOT
ATOM      1  C   UNL     1       6.299   5.685  17.368  0.00  0.00    +0.000 C 
ATOM      2  C   UNL     1       5.077   5.209  16.583  0.00  0.00    +0.000 C 
ATOM      3  O   UNL     1       3.882   5.844  17.051  0.00  0.00    +0.000 OA
ATOM      4  C   UNL     1       3.619   5.716  18.475  0.00  0.00    +0.000 C 
ATOM      5  C   UNL     1       4.948   5.819  19.327  0.00  0.00    +0.000 C 
ATOM      6  O   UNL     1       6.133   5.274  18.734  0.00  0.00    +0.000 OA
ENDROOT
BRANCH   4   7
ATOM      7  C   UNL     1       2.736   6.949  18.850  0.00  0.00    +0.000 A 
ATOM      8  C   UNL     1       2.441   7.943  17.893  0.00  0.00    +0.000 A 
ATOM      9  C   UNL     1       1.679   9.067  18.219  0.00  0.00    +0.000 A 
ATOM     10  C   UNL     1       1.193   9.227  19.512  0.00  0.00    +0.000 A 
ATOM     11  C   UNL     1       1.452   8.254  20.472  0.00  0.00    +0.000 A 
ATOM     12  C   UNL     1       2.203   7.121  20.144  0.00  0.00    +0.000 A 
ENDBRANCH   4   7
BRANCH   4  13
ATOM     13  C   UNL     1       2.883   4.376  18.678  0.00  0.00    +0.000 A 
ATOM     14  C   UNL     1       1.595   4.170  18.150  0.00  0.00    +0.000 A 
ATOM     15  C   UNL     1       0.912   2.966  18.338  0.00  0.00    +0.000 A 
ATOM     16  C   UNL     1       1.500   1.937  19.065  0.00  0.00    +0.000 A 
ATOM     17  C   UNL     1       2.760   2.119  19.620  0.00  0.00    +0.000 A 
ATOM     18  C   UNL     1       3.438   3.328  19.438  0.00  0.00    +0.000 A 
ENDBRANCH   4  13
BRANCH   1  19
ATOM     19  C   UNL     1       6.436   7.214  17.186  0.00  0.00    +0.000 C 
BRANCH  19  20
ATOM     20  N   UNL     1       7.803   7.725  17.046  0.00  0.00    +0.000 NA
ATOM     21  H   UNL     1       8.433   6.955  16.814  0.00  0.00    +0.000 HD
BRANCH  20  22
ATOM     22  C   UNL     1       8.236   8.381  18.295  0.00  0.00    +0.000 C 
BRANCH  22  23
ATOM     23  C   UNL     1       8.319   9.918  18.229  0.00  0.00    +0.000 C 
BRANCH  23  24
ATOM     24  O   UNL     1       9.643  10.314  17.860  0.00  0.00    +0.000 OA
BRANCH  24  28
ATOM     25  C   UNL     1      10.850  13.845  19.708  0.00  0.00    +0.000 A 
ATOM     26  C   UNL     1      11.274  12.596  20.163  0.00  0.00    +0.000 A 
ATOM     27  C   UNL     1      10.877  11.433  19.492  0.00  0.00    +0.000 A 
ATOM     28  C   UNL     1      10.044  11.517  18.377  0.00  0.00    +0.000 A 
ATOM     29  C   UNL     1       9.676  12.770  17.890  0.00  0.00    +0.000 A 
ATOM     30  C   UNL     1      10.065  13.931  18.562  0.00  0.00    +0.000 A 
ENDBRANCH  24  28
ENDBRANCH  23  24
ENDBRANCH  22  23
ENDBRANCH  20  22
ENDBRANCH  19  20
ENDBRANCH   1  19
TORSDOF 8
ENDMDL
