MODEL 1
REMARK VINA RESULT:      -7.1      0.000      0.000
REMARK  Name = 
REMARK  7 active torsions:
REMARK  status: ('A' for Active; 'I' for Inactive)
REMARK    1  A    between atoms: C_2  and  C_3
REMARK    2  A    between atoms: C_6  and  N_7
REMARK    3  A    between atoms: N_11  and  C_12
REMARK    4  A    between atoms: C_12  and  C_13
REMARK    5  A    between atoms: C_13  and  C_14
REMARK    6  A    between atoms: C_14  and  O_15
REMARK    7  A    between atoms: C_14  and  C_16
REMARK                            x       y       z     vdW  Elec       q    Type
REMARK                         _______ _______ _______ _____ _____    ______ ____
ROOT
ATOM      1  N   UNL     1       1.715   8.022  19.772  0.00  0.00    +0.000 N 
ATOM      2  C   UNL     1       1.991   9.134  18.872  0.00  0.00    +0.000 C 
ATOM      3  C   UNL     1       0.702   9.722  18.313  0.00  0.00    +0.000 C 
ATOM      4  C   UNL     1      -0.487   9.955  19.255  0.00  0.00    +0.000 C 
ATOM      5  N   UNL     1      -0.258  10.190  20.685  0.00  0.00    +0.000 NA
ATOM      6  C   UNL     1       0.040   8.911  21.369  0.00  0.00    +0.000 C 
ATOM      7  C   UNL     1       1.451   8.320  21.189  0.00  0.00    +0.000 C 
ENDROOT
BRANCH   1  11
ATOM      8  C   UNL     1       2.879   4.142  18.722  0.00  0.00    +0.000 A 
ATOM      9  C   UNL     1       2.289   4.379  19.950  0.00  0.00    +0.000 A 
ATOM     10  C   UNL     1       1.934   5.674  20.308  0.00  0.00    +0.000 A 
ATOM     11  C   UNL     1       2.140   6.749  19.440  0.00  0.00    +0.000 A 
ATOM     12  C   UNL     1       2.779   6.496  18.219  0.00  0.00    +0.000 A 
ATOM     13  C   UNL     1       3.148   5.200  17.856  0.00  0.00    +0.000 A 
BRANCH   8  15
ATOM     14  N   UNL     1       3.432   1.722  18.006  0.00  0.00    +0.000 NA
ATOM     15  C   UNL     1       3.190   2.796  18.331  0.00  0.00    +0.000 C 
ENDBRANCH   8  15
ENDBRANCH   1  11
BRANCH   5  16
ATOM     16  C   UNL     1       0.716  11.257  20.940  0.00  0.00    +0.000 C 
BRANCH  16  17
ATOM     17  C   UNL     1       0.046  12.607  21.218  0.00  0.00    +0.000 C 
BRANCH  17  18
ATOM     18  C   UNL     1      -0.951  12.484  22.373  0.00  0.00    +0.000 C 
BRANCH  18  19
ATOM     19  C   UNL     1      -2.361  12.741  21.915  0.00  0.00    +0.000 A 
ATOM     20  C   UNL     1      -2.730  13.058  20.620  0.00  0.00    +0.000 A 
ATOM     21  S   UNL     1      -4.401  13.299  20.440  0.00  0.00    +0.000 S 
ATOM     22  C   UNL     1      -4.696  12.969  22.101  0.00  0.00    +0.000 A 
ATOM     23  C   UNL     1      -5.944  12.984  22.746  0.00  0.00    +0.000 A 
ATOM     24  C   UNL     1      -6.008  12.679  24.106  0.00  0.00    +0.000 A 
ATOM     25  C   UNL     1      -4.857  12.361  24.811  0.00  0.00    +0.000 A 
ATOM     26  C   UNL     1      -3.617  12.354  24.168  0.00  0.00    +0.000 A 
ATOM     27  C   UNL     1      -3.517  12.668  22.787  0.00  0.00    +0.000 A 
ENDBRANCH  18  19
BRANCH  18  28
ATOM     28  O   UNL     1      -0.575  13.363  23.433  0.00  0.00    +0.000 OA
ATOM     29  H   UNL     1      -1.010  13.040  24.238  0.00  0.00    +0.000 HD
ENDBRANCH  18  28
ENDBRANCH  17  18
ENDBRANCH  16  17
ENDBRANCH   5  16
TORSDOF 7
ENDMDL
MODEL 2
REMARK VINA RESULT:      -6.8      3.480      4.927
REMARK  Name = 
REMARK  7 active torsions:
REMARK  status: ('A' for Active; 'I' for Inactive)
REMARK    1  A    between atoms: C_2  and  C_3
REMARK    2  A    between atoms: C_6  and  N_7
REMARK    3  A    between atoms: N_11  and  C_12
REMARK    4  A    between atoms: C_12  and  C_13
REMARK    5  A    between atoms: C_13  and  C_14
REMARK    6  A    between atoms: C_14  and  O_15
REMARK    7  A    between atoms: C_14  and  C_16
REMARK                            x       y       z     vdW  Elec       q    Type
REMARK                         _______ _______ _______ _____ _____    ______ ____
ROOT
ATOM      1  N   UNL     1       1.635   8.259  19.676  0.00  0.00    +0.000 N 
ATOM      2  C   UNL     1       1.872   9.244  18.628  0.00  0.00    +0.000 C 
ATOM      3  C   UNL     1       0.561   9.728  18.022  0.00  0.00    +0.000 C 
ATOM      4  C   UNL     1      -0.615  10.065  18.948  0.00  0.00    +0.000 C 
ATOM      5  N   UNL     1      -0.365  10.497  20.328  0.00  0.00    +0.000 NA
ATOM      6  C   UNL     1      -0.028   9.328  21.172  0.00  0.00    +0.000 C 
ATOM      7  C   UNL     1       1.391   8.743  21.044  0.00  0.00    +0.000 C 
ENDROOT
BRANCH   1  11
ATOM      8  C   UNL     1       2.857   4.294  19.136  0.00  0.00    +0.000 A 
ATOM      9  C   UNL     1       2.275   4.682  20.328  0.00  0.00    +0.000 A 
ATOM     10  C   UNL     1       1.900   6.007  20.516  0.00  0.00    +0.000 A 
ATOM     11  C   UNL     1       2.079   6.961  19.511  0.00  0.00    +0.000 A 
ATOM     12  C   UNL     1       2.712   6.559  18.327  0.00  0.00    +0.000 A 
ATOM     13  C   UNL     1       3.101   5.232  18.135  0.00  0.00    +0.000 A 
BRANCH   8  15
ATOM     14  N   UNL     1       3.458   1.809  18.766  0.00  0.00    +0.000 NA
ATOM     15  C   UNL     1       3.189   2.913  18.923  0.00  0.00    +0.000 C 
ENDBRANCH   8  15
ENDBRANCH   1  11
BRANCH   5  16
ATOM     16  C   UNL     1       0.593  11.605  20.416  0.00  0.00    +0.000 C 
BRANCH  16  17
ATOM     17  C   UNL     1       0.054  12.895  19.786  0.00  0.00    +0.000 C 
BRANCH  17  18
ATOM     18  C   UNL     1       0.630  14.121  20.497  0.00  0.00    +0.000 C 
BRANCH  18  19
ATOM     19  C   UNL     1       1.534  14.912  19.591  0.00  0.00    +0.000 A 
ATOM     20  C   UNL     1       2.888  14.685  19.426  0.00  0.00    +0.000 A 
ATOM     21  S   UNL     1       3.621  15.764  18.339  0.00  0.00    +0.000 S 
ATOM     22  C   UNL     1       2.135  16.572  18.036  0.00  0.00    +0.000 A 
ATOM     23  C   UNL     1       1.941  17.668  17.177  0.00  0.00    +0.000 A 
ATOM     24  C   UNL     1       0.659  18.201  17.037  0.00  0.00    +0.000 A 
ATOM     25  C   UNL     1      -0.410  17.654  17.731  0.00  0.00    +0.000 A 
ATOM     26  C   UNL     1      -0.212  16.570  18.589  0.00  0.00    +0.000 A 
ATOM     27  C   UNL     1       1.082  16.011  18.761  0.00  0.00    +0.000 A 
ENDBRANCH  18  19
BRANCH  18  28
ATOM     28  O   UNL     1       1.304  13.717  21.689  0.00  0.00    +0.000 OA
ATOM     29  H   UNL     1       2.256  13.751  21.503  0.00  0.00    +0.000 HD
ENDBRANCH  18  28
ENDBRANCH  17  18
ENDBRANCH  16  17
ENDBRANCH   5  16
TORSDOF 7
ENDMDL
MODEL 3
REMARK VINA RESULT:      -6.7      3.085      4.948
REMARK  Name = 
REMARK  7 active torsions:
REMARK  status: ('A' for Active; 'I' for Inactive)
REMARK    1  A    between atoms: C_2  and  C_3
REMARK    2  A    between atoms: C_6  and  N_7
REMARK    3  A    between atoms: N_11  and  C_12
REMARK    4  A    between atoms: C_12  and  C_13
REMARK    5  A    between atoms: C_13  and  C_14
REMARK    6  A    between atoms: C_14  and  O_15
REMARK    7  A    between atoms: C_14  and  C_16
REMARK                            x       y       z     vdW  Elec       q    Type
REMARK                         _______ _______ _______ _____ _____    ______ ____
ROOT
ATOM      1  N   UNL     1       1.652   8.176  19.741  0.00  0.00    +0.000 N 
ATOM      2  C   UNL     1       1.887   9.217  18.749  0.00  0.00    +0.000 C 
ATOM      3  C   UNL     1       0.575   9.739  18.179  0.00  0.00    +0.000 C 
ATOM      4  C   UNL     1      -0.594  10.029  19.130  0.00  0.00    +0.000 C 
ATOM      5  N   UNL     1      -0.334  10.382  20.530  0.00  0.00    +0.000 NA
ATOM      6  C   UNL     1       0.003   9.166  21.306  0.00  0.00    +0.000 C 
ATOM      7  C   UNL     1       1.419   8.583  21.136  0.00  0.00    +0.000 C 
ENDROOT
BRANCH   1  11
ATOM      8  C   UNL     1       2.853   4.242  18.974  0.00  0.00    +0.000 A 
ATOM      9  C   UNL     1       2.284   4.567  20.191  0.00  0.00    +0.000 A 
ATOM     10  C   UNL     1       1.917   5.880  20.455  0.00  0.00    +0.000 A 
ATOM     11  C   UNL     1       2.089   6.887  19.501  0.00  0.00    +0.000 A 
ATOM     12  C   UNL     1       2.708   6.548  18.291  0.00  0.00    +0.000 A 
ATOM     13  C   UNL     1       3.089   5.232  18.022  0.00  0.00    +0.000 A 
BRANCH   8  15
ATOM     14  N   UNL     1       3.448   1.783  18.448  0.00  0.00    +0.000 NA
ATOM     15  C   UNL     1       3.176   2.873  18.682  0.00  0.00    +0.000 C 
ENDBRANCH   8  15
ENDBRANCH   1  11
BRANCH   5  16
ATOM     16  C   UNL     1       0.630  11.479  20.674  0.00  0.00    +0.000 C 
BRANCH  16  17
ATOM     17  C   UNL     1      -0.055  12.844  20.810  0.00  0.00    +0.000 C 
BRANCH  17  18
ATOM     18  C   UNL     1      -0.469  13.377  19.436  0.00  0.00    +0.000 C 
BRANCH  18  19
ATOM     19  C   UNL     1       0.185  14.698  19.135  0.00  0.00    +0.000 A 
ATOM     20  C   UNL     1      -0.433  15.931  19.236  0.00  0.00    +0.000 A 
ATOM     21  S   UNL     1       0.582  17.225  18.811  0.00  0.00    +0.000 S 
ATOM     22  C   UNL     1       1.901  16.172  18.489  0.00  0.00    +0.000 A 
ATOM     23  C   UNL     1       3.183  16.550  18.051  0.00  0.00    +0.000 A 
ATOM     24  C   UNL     1       4.148  15.563  17.848  0.00  0.00    +0.000 A 
ATOM     25  C   UNL     1       3.850  14.228  18.078  0.00  0.00    +0.000 A 
ATOM     26  C   UNL     1       2.573  13.856  18.506  0.00  0.00    +0.000 A 
ATOM     27  C   UNL     1       1.566  14.836  18.714  0.00  0.00    +0.000 A 
ENDBRANCH  18  19
BRANCH  18  28
ATOM     28  O   UNL     1      -1.892  13.466  19.360  0.00  0.00    +0.000 OA
ATOM     29  H   UNL     1      -2.106  13.873  18.506  0.00  0.00    +0.000 HD
ENDBRANCH  18  28
ENDBRANCH  17  18
ENDBRANCH  16  17
ENDBRANCH   5  16
TORSDOF 7
ENDMDL
MODEL 4
REMARK VINA RESULT:      -6.7      1.373      1.608
REMARK  Name = 
REMARK  7 active torsions:
REMARK  status: ('A' for Active; 'I' for Inactive)
REMARK    1  A    between atoms: C_2  and  C_3
REMARK    2  A    between atoms: C_6  and  N_7
REMARK    3  A    between atoms: N_11  and  C_12
REMARK    4  A    between atoms: C_12  and  C_13
REMARK    5  A    between atoms: C_13  and  C_14
REMARK    6  A    between atoms: C_14  and  O_15
REMARK    7  A    between atoms: C_14  and  C_16
REMARK                            x       y       z     vdW  Elec       q    Type
REMARK                         _______ _______ _______ _____ _____    ______ ____
ROOT
ATOM      1  N   UNL     1       1.719   8.033  19.698  0.00  0.00    +0.000 N 
ATOM      2  C   UNL     1       1.998   9.146  18.801  0.00  0.00    +0.000 C 
ATOM      3  C   UNL     1       0.712   9.716  18.216  0.00  0.00    +0.000 C 
ATOM      4  C   UNL     1      -0.498   9.935  19.135  0.00  0.00    +0.000 C 
ATOM      5  N   UNL     1      -0.299  10.178  20.568  0.00  0.00    +0.000 NA
ATOM      6  C   UNL     1       0.003   8.905  21.261  0.00  0.00    +0.000 C 
ATOM      7  C   UNL     1       1.425   8.332  21.109  0.00  0.00    +0.000 C 
ENDROOT
BRANCH   1  11
ATOM      8  C   UNL     1       2.952   4.164  18.686  0.00  0.00    +0.000 A 
ATOM      9  C   UNL     1       2.360   4.403  19.912  0.00  0.00    +0.000 A 
ATOM     10  C   UNL     1       1.982   5.694  20.258  0.00  0.00    +0.000 A 
ATOM     11  C   UNL     1       2.167   6.765  19.379  0.00  0.00    +0.000 A 
ATOM     12  C   UNL     1       2.809   6.511  18.160  0.00  0.00    +0.000 A 
ATOM     13  C   UNL     1       3.201   5.218  17.809  0.00  0.00    +0.000 A 
BRANCH   8  15
ATOM     14  N   UNL     1       3.568   1.749  18.008  0.00  0.00    +0.000 NA
ATOM     15  C   UNL     1       3.287   2.820  18.307  0.00  0.00    +0.000 C 
ENDBRANCH   8  15
ENDBRANCH   1  11
BRANCH   5  16
ATOM     16  C   UNL     1       0.657  11.258  20.838  0.00  0.00    +0.000 C 
BRANCH  16  17
ATOM     17  C   UNL     1      -0.017  12.501  21.430  0.00  0.00    +0.000 C 
BRANCH  17  18
ATOM     18  C   UNL     1      -1.124  12.098  22.406  0.00  0.00    +0.000 C 
BRANCH  18  19
ATOM     19  C   UNL     1      -1.769  13.301  23.039  0.00  0.00    +0.000 A 
ATOM     20  C   UNL     1      -1.087  14.342  23.642  0.00  0.00    +0.000 A 
ATOM     21  S   UNL     1      -2.114  15.540  24.269  0.00  0.00    +0.000 S 
ATOM     22  C   UNL     1      -3.520  14.709  23.737  0.00  0.00    +0.000 A 
ATOM     23  C   UNL     1      -4.852  15.122  23.916  0.00  0.00    +0.000 A 
ATOM     24  C   UNL     1      -5.882  14.330  23.408  0.00  0.00    +0.000 A 
ATOM     25  C   UNL     1      -5.596  13.153  22.732  0.00  0.00    +0.000 A 
ATOM     26  C   UNL     1      -4.272  12.742  22.562  0.00  0.00    +0.000 A 
ATOM     27  C   UNL     1      -3.202  13.522  23.075  0.00  0.00    +0.000 A 
ENDBRANCH  18  19
BRANCH  18  28
ATOM     28  O   UNL     1      -0.601  11.205  23.390  0.00  0.00    +0.000 OA
ATOM     29  H   UNL     1       0.345  11.098  23.203  0.00  0.00    +0.000 HD
ENDBRANCH  18  28
ENDBRANCH  17  18
ENDBRANCH  16  17
ENDBRANCH   5  16
TORSDOF 7
ENDMDL
MODEL 5
REMARK VINA RESULT:      -6.7      3.320      5.396
REMARK  Name = 
REMARK  7 active torsions:
REMARK  status: ('A' for Active; 'I' for Inactive)
REMARK    1  A    between atoms: C_2  and  C_3
REMARK    2  A    between atoms: C_6  and  N_7
REMARK    3  A    between atoms: N_11  and  C_12
REMARK    4  A    between atoms: C_12  and  C_13
REMARK    5  A    between atoms: C_13  and  C_14
REMARK    6  A    between atoms: C_14  and  O_15
REMARK    7  A    between atoms: C_14  and  C_16
REMARK                            x       y       z     vdW  Elec       q    Type
REMARK                         _______ _______ _______ _____ _____    ______ ____
ROOT
ATOM      1  N   UNL     1       1.553   8.314  19.936  0.00  0.00    +0.000 N 
ATOM      2  C   UNL     1       1.754   9.269  18.854  0.00  0.00    +0.000 C 
ATOM      3  C   UNL     1       0.428   9.672  18.222  0.00  0.00    +0.000 C 
ATOM      4  C   UNL     1      -0.769   9.990  19.129  0.00  0.00    +0.000 C 
ATOM      5  N   UNL     1      -0.549  10.483  20.493  0.00  0.00    +0.000 NA
ATOM      6  C   UNL     1      -0.167   9.362  21.382  0.00  0.00    +0.000 C 
ATOM      7  C   UNL     1       1.277   8.836  21.284  0.00  0.00    +0.000 C 
ENDROOT
BRANCH   1  11
ATOM      8  C   UNL     1       3.181   4.470  19.659  0.00  0.00    +0.000 A 
ATOM      9  C   UNL     1       3.521   5.434  18.729  0.00  0.00    +0.000 A 
ATOM     10  C   UNL     1       2.953   6.699  18.804  0.00  0.00    +0.000 A 
ATOM     11  C   UNL     1       2.055   7.032  19.822  0.00  0.00    +0.000 A 
ATOM     12  C   UNL     1       1.688   6.029  20.729  0.00  0.00    +0.000 A 
ATOM     13  C   UNL     1       2.246   4.752  20.653  0.00  0.00    +0.000 A 
BRANCH   8  15
ATOM     14  N   UNL     1       4.319   2.151  19.590  0.00  0.00    +0.000 NA
ATOM     15  C   UNL     1       3.815   3.182  19.613  0.00  0.00    +0.000 C 
ENDBRANCH   8  15
ENDBRANCH   1  11
BRANCH   5  16
ATOM     16  C   UNL     1       0.358  11.635  20.545  0.00  0.00    +0.000 C 
BRANCH  16  17
ATOM     17  C   UNL     1      -0.330  12.941  20.130  0.00  0.00    +0.000 C 
BRANCH  17  18
ATOM     18  C   UNL     1       0.115  13.360  18.727  0.00  0.00    +0.000 C 
BRANCH  18  19
ATOM     19  C   UNL     1       0.767  14.717  18.736  0.00  0.00    +0.000 A 
ATOM     20  C   UNL     1       0.103  15.914  18.931  0.00  0.00    +0.000 A 
ATOM     21  S   UNL     1       1.130  17.266  18.870  0.00  0.00    +0.000 S 
ATOM     22  C   UNL     1       2.514  16.286  18.594  0.00  0.00    +0.000 A 
ATOM     23  C   UNL     1       3.834  16.736  18.420  0.00  0.00    +0.000 A 
ATOM     24  C   UNL     1       4.849  15.800  18.216  0.00  0.00    +0.000 A 
ATOM     25  C   UNL     1       4.560  14.444  18.190  0.00  0.00    +0.000 A 
ATOM     26  C   UNL     1       3.246  14.001  18.356  0.00  0.00    +0.000 A 
ATOM     27  C   UNL     1       2.190  14.928  18.557  0.00  0.00    +0.000 A 
ENDBRANCH  18  19
BRANCH  18  28
ATOM     28  O   UNL     1      -0.997  13.318  17.833  0.00  0.00    +0.000 OA
ATOM     29  H   UNL     1      -1.240  14.237  17.638  0.00  0.00    +0.000 HD
ENDBRANCH  18  28
ENDBRANCH  17  18
ENDBRANCH  16  17
ENDBRANCH   5  16
TORSDOF 7
ENDMDL
MODEL 6
REMARK VINA RESULT:      -6.7      0.461      1.017
REMARK  Name = 
REMARK  7 active torsions:
REMARK  status: ('A' for Active; 'I' for Inactive)
REMARK    1  A    between atoms: C_2  and  C_3
REMARK    2  A    between atoms: C_6  and  N_7
REMARK    3  A    between atoms: N_11  and  C_12
REMARK    4  A    between atoms: C_12  and  C_13
REMARK    5  A    between atoms: C_13  and  C_14
REMARK    6  A    between atoms: C_14  and  O_15
REMARK    7  A    between atoms: C_14  and  C_16
REMARK                            x       y       z     vdW  Elec       q    Type
REMARK                         _______ _______ _______ _____ _____    ______ ____
ROOT
ATOM      1  N   UNL     1       1.524   8.368  19.890  0.00  0.00    +0.000 N 
ATOM      2  C   UNL     1       1.665   9.480  18.959  0.00  0.00    +0.000 C 
ATOM      3  C   UNL     1       0.305  10.044  18.566  0.00  0.00    +0.000 C 
ATOM      4  C   UNL     1      -0.758  10.262  19.650  0.00  0.00    +0.000 C 
ATOM      5  N   UNL     1      -0.354  10.510  21.039  0.00  0.00    +0.000 NA
ATOM      6  C   UNL     1       0.050   9.239  21.684  0.00  0.00    +0.000 C 
ATOM      7  C   UNL     1       1.436   8.670  21.328  0.00  0.00    +0.000 C 
ENDROOT
BRANCH   1  11
ATOM      8  C   UNL     1       2.861   4.562  18.780  0.00  0.00    +0.000 A 
ATOM      9  C   UNL     1       2.937   5.611  17.883  0.00  0.00    +0.000 A 
ATOM     10  C   UNL     1       2.462   6.865  18.243  0.00  0.00    +0.000 A 
ATOM     11  C   UNL     1       1.924   7.101  19.512  0.00  0.00    +0.000 A 
ATOM     12  C   UNL     1       1.814   6.016  20.391  0.00  0.00    +0.000 A 
ATOM     13  C   UNL     1       2.280   4.750  20.033  0.00  0.00    +0.000 A 
BRANCH   8  15
ATOM     14  N   UNL     1       3.831   2.254  18.142  0.00  0.00    +0.000 NA
ATOM     15  C   UNL     1       3.407   3.282  18.426  0.00  0.00    +0.000 C 
ENDBRANCH   8  15
ENDBRANCH   1  11
BRANCH   5  16
ATOM     16  C   UNL     1       0.627  11.593  21.164  0.00  0.00    +0.000 C 
BRANCH  16  17
ATOM     17  C   UNL     1      -0.033  12.976  21.223  0.00  0.00    +0.000 C 
BRANCH  17  18
ATOM     18  C   UNL     1      -0.976  13.071  22.424  0.00  0.00    +0.000 C 
BRANCH  18  19
ATOM     19  C   UNL     1      -2.405  13.256  21.993  0.00  0.00    +0.000 A 
ATOM     20  C   UNL     1      -2.807  13.699  20.746  0.00  0.00    +0.000 A 
ATOM     21  S   UNL     1      -4.494  13.810  20.586  0.00  0.00    +0.000 S 
ATOM     22  C   UNL     1      -4.750  13.249  22.190  0.00  0.00    +0.000 A 
ATOM     23  C   UNL     1      -5.992  13.071  22.824  0.00  0.00    +0.000 A 
ATOM     24  C   UNL     1      -6.022  12.593  24.134  0.00  0.00    +0.000 A 
ATOM     25  C   UNL     1      -4.844  12.293  24.801  0.00  0.00    +0.000 A 
ATOM     26  C   UNL     1      -3.611  12.478  24.170  0.00  0.00    +0.000 A 
ATOM     27  C   UNL     1      -3.546  12.971  22.841  0.00  0.00    +0.000 A 
ENDBRANCH  18  19
BRANCH  18  28
ATOM     28  O   UNL     1      -0.549  14.121  23.292  0.00  0.00    +0.000 OA
ATOM     29  H   UNL     1       0.332  13.879  23.620  0.00  0.00    +0.000 HD
ENDBRANCH  18  28
ENDBRANCH  17  18
ENDBRANCH  16  17
ENDBRANCH   5  16
TORSDOF 7
ENDMDL
MODEL 7
REMARK VINA RESULT:      -6.7      3.488     10.130
REMARK  Name = 
REMARK  7 active torsions:
REMARK  status: ('A' for Active; 'I' for Inactive)
REMARK    1  A    between atoms: C_2  and  C_3
REMARK    2  A    between atoms: C_6  and  N_7
REMARK    3  A    between atoms: N_11  and  C_12
REMARK    4  A    between atoms: C_12  and  C_13
REMARK    5  A    between atoms: C_13  and  C_14
REMARK    6  A    between atoms: C_14  and  O_15
REMARK    7  A    between atoms: C_14  and  C_16
REMARK                            x       y       z     vdW  Elec       q    Type
REMARK                         _______ _______ _______ _____ _____    ______ ____
ROOT
ATOM      1  N   UNL     1      -1.454  11.818  20.764  0.00  0.00    +0.000 N 
ATOM      2  C   UNL     1      -1.752  11.566  19.360  0.00  0.00    +0.000 C 
ATOM      3  C   UNL     1      -0.638  12.082  18.460  0.00  0.00    +0.000 C 
ATOM      4  C   UNL     1       0.824  11.821  18.849  0.00  0.00    +0.000 C 
ATOM      5  N   UNL     1       1.170  10.655  19.670  0.00  0.00    +0.000 NA
ATOM      6  C   UNL     1       0.832  10.914  21.088  0.00  0.00    +0.000 C 
ATOM      7  C   UNL     1      -0.651  10.824  21.495  0.00  0.00    +0.000 C 
ENDROOT
BRANCH   1  11
ATOM      8  C   UNL     1      -3.777  14.460  23.029  0.00  0.00    +0.000 A 
ATOM      9  C   UNL     1      -3.385  13.248  23.566  0.00  0.00    +0.000 A 
ATOM     10  C   UNL     1      -2.642  12.359  22.800  0.00  0.00    +0.000 A 
ATOM     11  C   UNL     1      -2.257  12.673  21.493  0.00  0.00    +0.000 A 
ATOM     12  C   UNL     1      -2.702  13.886  20.951  0.00  0.00    +0.000 A 
ATOM     13  C   UNL     1      -3.457  14.780  21.710  0.00  0.00    +0.000 A 
BRANCH   8  15
ATOM     14  N   UNL     1      -5.073  16.142  24.501  0.00  0.00    +0.000 NA
ATOM     15  C   UNL     1      -4.494  15.401  23.843  0.00  0.00    +0.000 C 
ENDBRANCH   8  15
ENDBRANCH   1  11
BRANCH   5  16
ATOM     16  C   UNL     1       0.628   9.400  19.137  0.00  0.00    +0.000 C 
BRANCH  16  17
ATOM     17  C   UNL     1       1.682   8.583  18.380  0.00  0.00    +0.000 C 
BRANCH  17  18
ATOM     18  C   UNL     1       2.485   7.713  19.349  0.00  0.00    +0.000 C 
BRANCH  18  19
ATOM     19  C   UNL     1       2.680   6.321  18.812  0.00  0.00    +0.000 A 
ATOM     20  C   UNL     1       1.974   5.206  19.224  0.00  0.00    +0.000 A 
ATOM     21  S   UNL     1       2.446   3.783  18.427  0.00  0.00    +0.000 S 
ATOM     22  C   UNL     1       3.611   4.619  17.481  0.00  0.00    +0.000 A 
ATOM     23  C   UNL     1       4.467   4.055  16.519  0.00  0.00    +0.000 A 
ATOM     24  C   UNL     1       5.352   4.884  15.828  0.00  0.00    +0.000 A 
ATOM     25  C   UNL     1       5.384   6.246  16.083  0.00  0.00    +0.000 A 
ATOM     26  C   UNL     1       4.537   6.803  17.046  0.00  0.00    +0.000 A 
ATOM     27  C   UNL     1       3.632   5.985  17.772  0.00  0.00    +0.000 A 
ENDBRANCH  18  19
BRANCH  18  28
ATOM     28  O   UNL     1       1.850   7.699  20.627  0.00  0.00    +0.000 OA
ATOM     29  H   UNL     1       2.428   8.182  21.239  0.00  0.00    +0.000 HD
ENDBRANCH  18  28
ENDBRANCH  17  18
ENDBRANCH  16  17
ENDBRANCH   5  16
TORSDOF 7
ENDMDL
MODEL 8
REMARK VINA RESULT:      -6.7      2.423      3.631
REMARK  Name = 
REMARK  7 active torsions:
REMARK  status: ('A' for Active; 'I' for Inactive)
REMARK    1  A    between atoms: C_2  and  C_3
REMARK    2  A    between atoms: C_6  and  N_7
REMARK    3  A    between atoms: N_11  and  C_12
REMARK    4  A    between atoms: C_12  and  C_13
REMARK    5  A    between atoms: C_13  and  C_14
REMARK    6  A    between atoms: C_14  and  O_15
REMARK    7  A    between atoms: C_14  and  C_16
REMARK                            x       y       z     vdW  Elec       q    Type
REMARK                         _______ _______ _______ _____ _____    ______ ____
ROOT
ATOM      1  N   UNL     1       0.643  10.657  19.553  0.00  0.00    +0.000 N 
ATOM      2  C   UNL     1       1.358  11.868  19.935  0.00  0.00    +0.000 C 
ATOM      3  C   UNL     1       1.123  12.986  18.928  0.00  0.00    +0.000 C 
ATOM      4  C   UNL     1      -0.297  13.234  18.400  0.00  0.00    +0.000 C 
ATOM      5  N   UNL     1      -1.460  12.870  19.217  0.00  0.00    +0.000 NA
ATOM      6  C   UNL     1      -1.686  11.408  19.155  0.00  0.00    +0.000 C 
ATOM      7  C   UNL     1      -0.755  10.507  19.988  0.00  0.00    +0.000 C 
ENDROOT
BRANCH   1  11
ATOM      8  C   UNL     1       2.670   7.144  18.524  0.00  0.00    +0.000 A 
ATOM      9  C   UNL     1       2.153   7.297  19.796  0.00  0.00    +0.000 A 
ATOM     10  C   UNL     1       1.509   8.478  20.145  0.00  0.00    +0.000 A 
ATOM     11  C   UNL     1       1.350   9.517  19.224  0.00  0.00    +0.000 A 
ATOM     12  C   UNL     1       1.920   9.362  17.953  0.00  0.00    +0.000 A 
ATOM     13  C   UNL     1       2.577   8.183  17.599  0.00  0.00    +0.000 A 
BRANCH   8  15
ATOM     14  N   UNL     1       3.762   4.905  17.839  0.00  0.00    +0.000 NA
ATOM     15  C   UNL     1       3.282   5.900  18.149  0.00  0.00    +0.000 C 
ENDBRANCH   8  15
ENDBRANCH   1  11
BRANCH   5  16
ATOM     16  C   UNL     1      -1.397  13.417  20.577  0.00  0.00    +0.000 C 
BRANCH  16  17
ATOM     17  C   UNL     1      -2.559  12.937  21.454  0.00  0.00    +0.000 C 
BRANCH  17  18
ATOM     18  C   UNL     1      -3.724  13.928  21.393  0.00  0.00    +0.000 C 
BRANCH  18  19
ATOM     19  C   UNL     1      -5.052  13.224  21.467  0.00  0.00    +0.000 A 
ATOM     20  C   UNL     1      -5.948  13.329  22.515  0.00  0.00    +0.000 A 
ATOM     21  S   UNL     1      -7.350  12.396  22.292  0.00  0.00    +0.000 S 
ATOM     22  C   UNL     1      -6.809  11.826  20.764  0.00  0.00    +0.000 A 
ATOM     23  C   UNL     1      -7.492  10.937  19.916  0.00  0.00    +0.000 A 
ATOM     24  C   UNL     1      -6.913  10.584  18.697  0.00  0.00    +0.000 A 
ATOM     25  C   UNL     1      -5.684  11.106  18.324  0.00  0.00    +0.000 A 
ATOM     26  C   UNL     1      -5.005  11.983  19.173  0.00  0.00    +0.000 A 
ATOM     27  C   UNL     1      -5.563  12.356  20.424  0.00  0.00    +0.000 A 
ENDBRANCH  18  19
BRANCH  18  28
ATOM     28  O   UNL     1      -3.618  14.727  20.214  0.00  0.00    +0.000 OA
ATOM     29  H   UNL     1      -2.895  15.358  20.362  0.00  0.00    +0.000 HD
ENDBRANCH  18  28
ENDBRANCH  17  18
ENDBRANCH  16  17
ENDBRANCH   5  16
TORSDOF 7
ENDMDL
MODEL 9
REMARK VINA RESULT:      -6.6      3.585     10.084
REMARK  Name = 
REMARK  7 active torsions:
REMARK  status: ('A' for Active; 'I' for Inactive)
REMARK    1  A    between atoms: C_2  and  C_3
REMARK    2  A    between atoms: C_6  and  N_7
REMARK    3  A    between atoms: N_11  and  C_12
REMARK    4  A    between atoms: C_12  and  C_13
REMARK    5  A    between atoms: C_13  and  C_14
REMARK    6  A    between atoms: C_14  and  O_15
REMARK    7  A    between atoms: C_14  and  C_16
REMARK                            x       y       z     vdW  Elec       q    Type
REMARK                         _______ _______ _______ _____ _____    ______ ____
ROOT
ATOM      1  N   UNL     1      -0.710  11.470  21.949  0.00  0.00    +0.000 N 
ATOM      2  C   UNL     1       0.052  10.514  22.742  0.00  0.00    +0.000 C 
ATOM      3  C   UNL     1      -0.451   9.093  22.523  0.00  0.00    +0.000 C 
ATOM      4  C   UNL     1      -0.763   8.620  21.097  0.00  0.00    +0.000 C 
ATOM      5  N   UNL     1      -0.074   9.225  19.952  0.00  0.00    +0.000 NA
ATOM      6  C   UNL     1      -0.662  10.549  19.647  0.00  0.00    +0.000 C 
ATOM      7  C   UNL     1      -0.280  11.726  20.565  0.00  0.00    +0.000 C 
ENDROOT
BRANCH   1  11
ATOM      8  C   UNL     1      -3.102  14.395  23.746  0.00  0.00    +0.000 A 
ATOM      9  C   UNL     1      -1.894  14.745  23.173  0.00  0.00    +0.000 A 
ATOM     10  C   UNL     1      -1.087  13.767  22.606  0.00  0.00    +0.000 A 
ATOM     11  C   UNL     1      -1.482  12.426  22.581  0.00  0.00    +0.000 A 
ATOM     12  C   UNL     1      -2.688  12.084  23.207  0.00  0.00    +0.000 A 
ATOM     13  C   UNL     1      -3.499  13.060  23.788  0.00  0.00    +0.000 A 
BRANCH   8  15
ATOM     14  N   UNL     1      -4.640  16.232  24.715  0.00  0.00    +0.000 NA
ATOM     15  C   UNL     1      -3.960  15.417  24.278  0.00  0.00    +0.000 C 
ENDBRANCH   8  15
ENDBRANCH   1  11
BRANCH   5  16
ATOM     16  C   UNL     1       1.386   9.229  20.101  0.00  0.00    +0.000 C 
BRANCH  16  17
ATOM     17  C   UNL     1       2.013   7.875  19.752  0.00  0.00    +0.000 C 
BRANCH  17  18
ATOM     18  C   UNL     1       2.017   7.659  18.237  0.00  0.00    +0.000 C 
BRANCH  18  19
ATOM     19  C   UNL     1       3.050   6.645  17.826  0.00  0.00    +0.000 A 
ATOM     20  C   UNL     1       4.323   6.945  17.378  0.00  0.00    +0.000 A 
ATOM     21  S   UNL     1       5.236   5.569  16.982  0.00  0.00    +0.000 S 
ATOM     22  C   UNL     1       3.953   4.511  17.415  0.00  0.00    +0.000 A 
ATOM     23  C   UNL     1       3.968   3.107  17.343  0.00  0.00    +0.000 A 
ATOM     24  C   UNL     1       2.838   2.395  17.747  0.00  0.00    +0.000 A 
ATOM     25  C   UNL     1       1.716   3.062  18.216  0.00  0.00    +0.000 A 
ATOM     26  C   UNL     1       1.702   4.458  18.279  0.00  0.00    +0.000 A 
ATOM     27  C   UNL     1       2.833   5.212  17.867  0.00  0.00    +0.000 A 
ENDBRANCH  18  19
BRANCH  18  28
ATOM     28  O   UNL     1       2.212   8.906  17.571  0.00  0.00    +0.000 OA
ATOM     29  H   UNL     1       2.464   8.704  16.656  0.00  0.00    +0.000 HD
ENDBRANCH  18  28
ENDBRANCH  17  18
ENDBRANCH  16  17
ENDBRANCH   5  16
TORSDOF 7
ENDMDL
