MODEL 1
REMARK VINA RESULT:      -7.7      0.000      0.000
REMARK  Name = 
REMARK  3 active torsions:
REMARK  status: ('A' for Active; 'I' for Inactive)
REMARK    1  A    between atoms: C_2  and  C_11
REMARK    2  A    between atoms: N_3  and  C_4
REMARK    3  A    between atoms: C_4  and  C_5
REMARK                            x       y       z     vdW  Elec       q    Type
REMARK                         _______ _______ _______ _____ _____    ______ ____
ROOT
ATOM      1  O   UNL     1       4.467   6.111  18.440  0.00  0.00    +0.000 OA
ATOM      2  C   UNL     1       4.507   4.903  18.798  0.00  0.00    +0.000 C 
ATOM      3  N   UNL     1       5.735   4.144  18.693  0.00  0.00    +0.000 N 
ATOM      4  H   UNL     1       5.784   3.191  18.970  0.00  0.00    +0.000 HD
ENDROOT
BRANCH   2   5
ATOM      5  C   UNL     1       3.254   4.232  19.348  0.00  0.00    +0.000 A 
ATOM      6  C   UNL     1       2.880   4.381  20.680  0.00  0.00    +0.000 A 
ATOM      7  C   UNL     1       1.725   3.789  21.157  0.00  0.00    +0.000 A 
ATOM      8  C   UNL     1       0.915   3.048  20.310  0.00  0.00    +0.000 A 
ATOM      9  C   UNL     1       1.276   2.879  18.983  0.00  0.00    +0.000 A 
ATOM     10  C   UNL     1       2.450   3.452  18.526  0.00  0.00    +0.000 A 
ATOM     11 CL   UNL     1       2.898   3.219  16.866  0.00  0.00    +0.000 Cl
ENDBRANCH   2   5
BRANCH   3  12
ATOM     12  C   UNL     1       6.847   4.882  18.161  0.00  0.00    +0.000 C 
BRANCH  12  13
ATOM     13  C   UNL     1       7.141   4.402  15.718  0.00  0.00    +0.000 C 
ATOM     14  O   UNL     1       7.309   4.731  16.560  0.00  0.00    +0.000 OA
ATOM     15  C   UNL     1       7.407   4.502  17.677  0.00  0.00    +0.000 C 
ATOM     16  C   UNL     1       7.309   4.731  16.560  0.00  0.00    +0.000 C 
ATOM     17  O   UNL     1       7.309   4.731  16.560  0.00  0.00    +0.000 OA
ATOM     18  C   UNL     1       7.309   4.731  16.560  0.00  0.00    +0.000 C 
ENDBRANCH  12  13
ENDBRANCH   3  12
TORSDOF 3
ENDMDL
MODEL 2
REMARK VINA RESULT:      -7.6      1.271      1.390
REMARK  Name = 
REMARK  3 active torsions:
REMARK  status: ('A' for Active; 'I' for Inactive)
REMARK    1  A    between atoms: C_2  and  C_11
REMARK    2  A    between atoms: N_3  and  C_4
REMARK    3  A    between atoms: C_4  and  C_5
REMARK                            x       y       z     vdW  Elec       q    Type
REMARK                         _______ _______ _______ _____ _____    ______ ____
ROOT
ATOM      1  O   UNL     1       5.930   4.047  19.412  0.00  0.00    +0.000 OA
ATOM      2  C   UNL     1       4.928   4.277  18.681  0.00  0.00    +0.000 C 
ATOM      3  N   UNL     1       5.101   4.696  17.306  0.00  0.00    +0.000 N 
ATOM      4  H   UNL     1       4.322   4.882  16.717  0.00  0.00    +0.000 HD
ENDROOT
BRANCH   2   5
ATOM      5  C   UNL     1       3.522   4.114  19.245  0.00  0.00    +0.000 A 
ATOM      6  C   UNL     1       2.912   5.134  19.969  0.00  0.00    +0.000 A 
ATOM      7  C   UNL     1       1.624   4.981  20.451  0.00  0.00    +0.000 A 
ATOM      8  C   UNL     1       0.918   3.813  20.208  0.00  0.00    +0.000 A 
ATOM      9  C   UNL     1       1.512   2.782  19.498  0.00  0.00    +0.000 A 
ATOM     10  C   UNL     1       2.812   2.936  19.047  0.00  0.00    +0.000 A 
ATOM     11 CL   UNL     1       3.550   1.631  18.174  0.00  0.00    +0.000 Cl
ENDBRANCH   2   5
BRANCH   3  12
ATOM     12  C   UNL     1       6.469   4.816  16.887  0.00  0.00    +0.000 C 
BRANCH  12  13
ATOM     13  C   UNL     1       6.671   4.453  14.415  0.00  0.00    +0.000 C 
ATOM     14  O   UNL     1       6.894   4.695  15.273  0.00  0.00    +0.000 OA
ATOM     15  C   UNL     1       6.958   4.381  16.372  0.00  0.00    +0.000 C 
ATOM     16  C   UNL     1       6.894   4.695  15.273  0.00  0.00    +0.000 C 
ATOM     17  O   UNL     1       6.894   4.695  15.273  0.00  0.00    +0.000 OA
ATOM     18  C   UNL     1       6.894   4.695  15.273  0.00  0.00    +0.000 C 
ENDBRANCH  12  13
ENDBRANCH   3  12
TORSDOF 3
ENDMDL
MODEL 3
REMARK VINA RESULT:      -7.6      1.469      1.756
REMARK  Name = 
REMARK  3 active torsions:
REMARK  status: ('A' for Active; 'I' for Inactive)
REMARK    1  A    between atoms: C_2  and  C_11
REMARK    2  A    between atoms: N_3  and  C_4
REMARK    3  A    between atoms: C_4  and  C_5
REMARK                            x       y       z     vdW  Elec       q    Type
REMARK                         _______ _______ _______ _____ _____    ______ ____
ROOT
ATOM      1  O   UNL     1       4.371   4.577  17.081  0.00  0.00    +0.000 OA
ATOM      2  C   UNL     1       4.511   4.270  18.296  0.00  0.00    +0.000 C 
ATOM      3  N   UNL     1       5.828   4.212  18.893  0.00  0.00    +0.000 N 
ATOM      4  H   UNL     1       5.956   3.972  19.850  0.00  0.00    +0.000 HD
ENDROOT
BRANCH   2   5
ATOM      5  C   UNL     1       3.286   3.957  19.147  0.00  0.00    +0.000 A 
ATOM      6  C   UNL     1       2.625   4.955  19.856  0.00  0.00    +0.000 A 
ATOM      7  C   UNL     1       1.497   4.660  20.601  0.00  0.00    +0.000 A 
ATOM      8  C   UNL     1       1.002   3.366  20.641  0.00  0.00    +0.000 A 
ATOM      9  C   UNL     1       1.652   2.356  19.950  0.00  0.00    +0.000 A 
ATOM     10  C   UNL     1       2.796   2.659  19.232  0.00  0.00    +0.000 A 
ATOM     11 CL   UNL     1       3.609   1.382  18.385  0.00  0.00    +0.000 Cl
ENDBRANCH   2   5
BRANCH   3  12
ATOM     12  C   UNL     1       6.904   4.526  17.995  0.00  0.00    +0.000 C 
BRANCH  12  13
ATOM     13  C   UNL     1       7.875   6.775  18.530  0.00  0.00    +0.000 C 
ATOM     14  O   UNL     1       7.744   5.866  18.546  0.00  0.00    +0.000 OA
ATOM     15  C   UNL     1       7.646   4.900  17.938  0.00  0.00    +0.000 C 
ATOM     16  C   UNL     1       7.744   5.866  18.546  0.00  0.00    +0.000 C 
ATOM     17  O   UNL     1       7.744   5.866  18.546  0.00  0.00    +0.000 OA
ATOM     18  C   UNL     1       7.744   5.866  18.546  0.00  0.00    +0.000 C 
ENDBRANCH  12  13
ENDBRANCH   3  12
TORSDOF 3
ENDMDL
MODEL 4
REMARK VINA RESULT:      -7.5      1.516      1.688
REMARK  Name = 
REMARK  3 active torsions:
REMARK  status: ('A' for Active; 'I' for Inactive)
REMARK    1  A    between atoms: C_2  and  C_11
REMARK    2  A    between atoms: N_3  and  C_4
REMARK    3  A    between atoms: C_4  and  C_5
REMARK                            x       y       z     vdW  Elec       q    Type
REMARK                         _______ _______ _______ _____ _____    ______ ____
ROOT
ATOM      1  O   UNL     1       6.111   4.861  19.715  0.00  0.00    +0.000 OA
ATOM      2  C   UNL     1       5.182   4.400  18.998  0.00  0.00    +0.000 C 
ATOM      3  N   UNL     1       5.393   4.157  17.587  0.00  0.00    +0.000 N 
ATOM      4  H   UNL     1       4.671   3.795  17.007  0.00  0.00    +0.000 HD
ENDROOT
BRANCH   2   5
ATOM      5  C   UNL     1       3.823   4.096  19.617  0.00  0.00    +0.000 A 
ATOM      6  C   UNL     1       3.551   2.856  20.188  0.00  0.00    +0.000 A 
ATOM      7  C   UNL     1       2.322   2.605  20.772  0.00  0.00    +0.000 A 
ATOM      8  C   UNL     1       1.348   3.591  20.809  0.00  0.00    +0.000 A 
ATOM      9  C   UNL     1       1.597   4.829  20.237  0.00  0.00    +0.000 A 
ATOM     10  C   UNL     1       2.820   5.057  19.630  0.00  0.00    +0.000 A 
ATOM     11 CL   UNL     1       3.111   6.606  18.904  0.00  0.00    +0.000 Cl
ENDBRANCH   2   5
BRANCH   3  12
ATOM     12  C   UNL     1       6.711   4.481  17.117  0.00  0.00    +0.000 C 
BRANCH  12  13
ATOM     13  C   UNL     1       6.795   4.428  14.612  0.00  0.00    +0.000 C 
ATOM     14  O   UNL     1       6.917   4.723  15.474  0.00  0.00    +0.000 OA
ATOM     15  C   UNL     1       7.297   4.479  16.526  0.00  0.00    +0.000 C 
ATOM     16  C   UNL     1       6.917   4.723  15.474  0.00  0.00    +0.000 C 
ATOM     17  O   UNL     1       6.917   4.723  15.474  0.00  0.00    +0.000 OA
ATOM     18  C   UNL     1       6.917   4.723  15.474  0.00  0.00    +0.000 C 
ENDBRANCH  12  13
ENDBRANCH   3  12
TORSDOF 3
ENDMDL
MODEL 5
REMARK VINA RESULT:      -7.4      1.678      2.139
REMARK  Name = 
REMARK  3 active torsions:
REMARK  status: ('A' for Active; 'I' for Inactive)
REMARK    1  A    between atoms: C_2  and  C_11
REMARK    2  A    between atoms: N_3  and  C_4
REMARK    3  A    between atoms: C_4  and  C_5
REMARK                            x       y       z     vdW  Elec       q    Type
REMARK                         _______ _______ _______ _____ _____    ______ ____
ROOT
ATOM      1  O   UNL     1       4.407   4.333  16.695  0.00  0.00    +0.000 OA
ATOM      2  C   UNL     1       4.474   4.069  17.927  0.00  0.00    +0.000 C 
ATOM      3  N   UNL     1       5.742   4.119  18.623  0.00  0.00    +0.000 N 
ATOM      4  H   UNL     1       5.812   3.914  19.593  0.00  0.00    +0.000 HD
ENDROOT
BRANCH   2   5
ATOM      5  C   UNL     1       3.211   3.693  18.692  0.00  0.00    +0.000 A 
ATOM      6  C   UNL     1       2.770   2.375  18.755  0.00  0.00    +0.000 A 
ATOM      7  C   UNL     1       1.637   2.045  19.478  0.00  0.00    +0.000 A 
ATOM      8  C   UNL     1       0.933   3.023  20.162  0.00  0.00    +0.000 A 
ATOM      9  C   UNL     1       1.351   4.344  20.104  0.00  0.00    +0.000 A 
ATOM     10  C   UNL     1       2.468   4.664  19.353  0.00  0.00    +0.000 A 
ATOM     11 CL   UNL     1       2.971   6.323  19.276  0.00  0.00    +0.000 Cl
ENDBRANCH   2   5
BRANCH   3  12
ATOM     12  C   UNL     1       6.860   4.485  17.799  0.00  0.00    +0.000 C 
BRANCH  12  13
ATOM     13  C   UNL     1       7.891   6.623  18.604  0.00  0.00    +0.000 C 
ATOM     14  O   UNL     1       7.689   5.728  18.552  0.00  0.00    +0.000 OA
ATOM     15  C   UNL     1       7.626   4.796  17.890  0.00  0.00    +0.000 C 
ATOM     16  C   UNL     1       7.689   5.728  18.552  0.00  0.00    +0.000 C 
ATOM     17  O   UNL     1       7.689   5.728  18.552  0.00  0.00    +0.000 OA
ATOM     18  C   UNL     1       7.689   5.728  18.552  0.00  0.00    +0.000 C 
ENDBRANCH  12  13
ENDBRANCH   3  12
TORSDOF 3
ENDMDL
MODEL 6
REMARK VINA RESULT:      -7.4      3.070      6.017
REMARK  Name = 
REMARK  3 active torsions:
REMARK  status: ('A' for Active; 'I' for Inactive)
REMARK    1  A    between atoms: C_2  and  C_11
REMARK    2  A    between atoms: N_3  and  C_4
REMARK    3  A    between atoms: C_4  and  C_5
REMARK                            x       y       z     vdW  Elec       q    Type
REMARK                         _______ _______ _______ _____ _____    ______ ____
ROOT
ATOM      1  O   UNL     1       1.237   3.899  17.355  0.00  0.00    +0.000 OA
ATOM      2  C   UNL     1       2.212   4.286  18.055  0.00  0.00    +0.000 C 
ATOM      3  N   UNL     1       2.142   4.246  19.500  0.00  0.00    +0.000 N 
ATOM      4  H   UNL     1       2.901   4.547  20.067  0.00  0.00    +0.000 HD
ENDROOT
BRANCH   2   5
ATOM      5  C   UNL     1       3.476   4.801  17.379  0.00  0.00    +0.000 A 
ATOM      6  C   UNL     1       4.321   3.944  16.679  0.00  0.00    +0.000 A 
ATOM      7  C   UNL     1       5.450   4.431  16.046  0.00  0.00    +0.000 A 
ATOM      8  C   UNL     1       5.750   5.784  16.088  0.00  0.00    +0.000 A 
ATOM      9  C   UNL     1       4.926   6.652  16.788  0.00  0.00    +0.000 A 
ATOM     10  C   UNL     1       3.815   6.147  17.442  0.00  0.00    +0.000 A 
ATOM     11 CL   UNL     1       2.803   7.242  18.328  0.00  0.00    +0.000 Cl
ENDBRANCH   2   5
BRANCH   3  12
ATOM     12  C   UNL     1       0.902   3.742  20.023  0.00  0.00    +0.000 C 
BRANCH  12  13
ATOM     13  C   UNL     1       1.294   2.444  22.131  0.00  0.00    +0.000 C 
ATOM     14  O   UNL     1       1.449   2.818  21.307  0.00  0.00    +0.000 OA
ATOM     15  C   UNL     1       1.431   3.766  20.665  0.00  0.00    +0.000 C 
ATOM     16  C   UNL     1       1.449   2.818  21.307  0.00  0.00    +0.000 C 
ATOM     17  O   UNL     1       1.449   2.818  21.307  0.00  0.00    +0.000 OA
ATOM     18  C   UNL     1       1.449   2.818  21.307  0.00  0.00    +0.000 C 
ENDBRANCH  12  13
ENDBRANCH   3  12
TORSDOF 3
ENDMDL
MODEL 7
REMARK VINA RESULT:      -7.3      1.672      1.801
REMARK  Name = 
REMARK  3 active torsions:
REMARK  status: ('A' for Active; 'I' for Inactive)
REMARK    1  A    between atoms: C_2  and  C_11
REMARK    2  A    between atoms: N_3  and  C_4
REMARK    3  A    between atoms: C_4  and  C_5
REMARK                            x       y       z     vdW  Elec       q    Type
REMARK                         _______ _______ _______ _____ _____    ______ ____
ROOT
ATOM      1  O   UNL     1       5.902   4.079  19.345  0.00  0.00    +0.000 OA
ATOM      2  C   UNL     1       4.903   4.496  18.698  0.00  0.00    +0.000 C 
ATOM      3  N   UNL     1       5.076   5.162  17.425  0.00  0.00    +0.000 N 
ATOM      4  H   UNL     1       4.299   5.496  16.902  0.00  0.00    +0.000 HD
ENDROOT
BRANCH   2   5
ATOM      5  C   UNL     1       3.499   4.297  19.257  0.00  0.00    +0.000 A 
ATOM      6  C   UNL     1       2.902   5.258  20.067  0.00  0.00    +0.000 A 
ATOM      7  C   UNL     1       1.616   5.076  20.544  0.00  0.00    +0.000 A 
ATOM      8  C   UNL     1       0.898   3.938  20.209  0.00  0.00    +0.000 A 
ATOM      9  C   UNL     1       1.479   2.965  19.411  0.00  0.00    +0.000 A 
ATOM     10  C   UNL     1       2.778   3.146  18.966  0.00  0.00    +0.000 A 
ATOM     11 CL   UNL     1       3.498   1.912  17.982  0.00  0.00    +0.000 Cl
ENDBRANCH   2   5
BRANCH   3  12
ATOM     12  C   UNL     1       6.442   5.291  17.000  0.00  0.00    +0.000 C 
BRANCH  12  13
ATOM     13  C   UNL     1       7.293   7.606  17.451  0.00  0.00    +0.000 C 
ATOM     14  O   UNL     1       7.239   6.760  17.096  0.00  0.00    +0.000 OA
ATOM     15  C   UNL     1       6.588   5.984  16.563  0.00  0.00    +0.000 C 
ATOM     16  C   UNL     1       7.239   6.760  17.096  0.00  0.00    +0.000 C 
ATOM     17  O   UNL     1       7.239   6.760  17.096  0.00  0.00    +0.000 OA
ATOM     18  C   UNL     1       7.239   6.760  17.096  0.00  0.00    +0.000 C 
ENDBRANCH  12  13
ENDBRANCH   3  12
TORSDOF 3
ENDMDL
MODEL 8
REMARK VINA RESULT:      -7.3      1.825      2.199
REMARK  Name = 
REMARK  3 active torsions:
REMARK  status: ('A' for Active; 'I' for Inactive)
REMARK    1  A    between atoms: C_2  and  C_11
REMARK    2  A    between atoms: N_3  and  C_4
REMARK    3  A    between atoms: C_4  and  C_5
REMARK                            x       y       z     vdW  Elec       q    Type
REMARK                         _______ _______ _______ _____ _____    ______ ____
ROOT
ATOM      1  O   UNL     1       5.856   4.096  18.901  0.00  0.00    +0.000 OA
ATOM      2  C   UNL     1       4.836   3.866  18.197  0.00  0.00    +0.000 C 
ATOM      3  N   UNL     1       4.933   3.816  16.753  0.00  0.00    +0.000 N 
ATOM      4  H   UNL     1       4.139   3.636  16.183  0.00  0.00    +0.000 HD
ENDROOT
BRANCH   2   5
ATOM      5  C   UNL     1       3.486   3.639  18.866  0.00  0.00    +0.000 A 
ATOM      6  C   UNL     1       2.986   2.356  19.066  0.00  0.00    +0.000 A 
ATOM      7  C   UNL     1       1.772   2.165  19.702  0.00  0.00    +0.000 A 
ATOM      8  C   UNL     1       1.042   3.250  20.160  0.00  0.00    +0.000 A 
ATOM      9  C   UNL     1       1.518   4.537  19.962  0.00  0.00    +0.000 A 
ATOM     10  C   UNL     1       2.720   4.715  19.298  0.00  0.00    +0.000 A 
ATOM     11 CL   UNL     1       3.296   6.332  19.042  0.00  0.00    +0.000 Cl
ENDBRANCH   2   5
BRANCH   3  12
ATOM     12  C   UNL     1       6.254   4.045  16.237  0.00  0.00    +0.000 C 
BRANCH  12  13
ATOM     13  C   UNL     1       6.290   3.768  13.746  0.00  0.00    +0.000 C 
ATOM     14  O   UNL     1       6.165   4.155  14.569  0.00  0.00    +0.000 OA
ATOM     15  C   UNL     1       6.621   4.414  15.587  0.00  0.00    +0.000 C 
ATOM     16  C   UNL     1       6.165   4.155  14.569  0.00  0.00    +0.000 C 
ATOM     17  O   UNL     1       6.165   4.155  14.569  0.00  0.00    +0.000 OA
ATOM     18  C   UNL     1       6.165   4.155  14.569  0.00  0.00    +0.000 C 
ENDBRANCH  12  13
ENDBRANCH   3  12
TORSDOF 3
ENDMDL
MODEL 9
REMARK VINA RESULT:      -7.3      1.475      1.768
REMARK  Name = 
REMARK  3 active torsions:
REMARK  status: ('A' for Active; 'I' for Inactive)
REMARK    1  A    between atoms: C_2  and  C_11
REMARK    2  A    between atoms: N_3  and  C_4
REMARK    3  A    between atoms: C_4  and  C_5
REMARK                            x       y       z     vdW  Elec       q    Type
REMARK                         _______ _______ _______ _____ _____    ______ ____
ROOT
ATOM      1  O   UNL     1       4.800   5.687  18.504  0.00  0.00    +0.000 OA
ATOM      2  C   UNL     1       4.551   4.532  18.064  0.00  0.00    +0.000 C 
ATOM      3  N   UNL     1       5.514   3.836  17.237  0.00  0.00    +0.000 N 
ATOM      4  H   UNL     1       5.333   2.925  16.882  0.00  0.00    +0.000 HD
ENDROOT
BRANCH   2   5
ATOM      5  C   UNL     1       3.227   3.858  18.404  0.00  0.00    +0.000 A 
ATOM      6  C   UNL     1       2.041   4.247  17.790  0.00  0.00    +0.000 A 
ATOM      7  C   UNL     1       0.851   3.607  18.088  0.00  0.00    +0.000 A 
ATOM      8  C   UNL     1       0.827   2.558  18.994  0.00  0.00    +0.000 A 
ATOM      9  C   UNL     1       1.996   2.162  19.623  0.00  0.00    +0.000 A 
ATOM     10  C   UNL     1       3.174   2.831  19.338  0.00  0.00    +0.000 A 
ATOM     11 CL   UNL     1       4.628   2.336  20.146  0.00  0.00    +0.000 Cl
ENDBRANCH   2   5
BRANCH   3  12
ATOM     12  C   UNL     1       6.723   4.569  16.985  0.00  0.00    +0.000 C 
BRANCH  12  13
ATOM     13  C   UNL     1       7.080   4.866  14.521  0.00  0.00    +0.000 C 
ATOM     14  O   UNL     1       7.222   4.924  15.427  0.00  0.00    +0.000 OA
ATOM     15  C   UNL     1       7.302   4.364  16.423  0.00  0.00    +0.000 C 
ATOM     16  C   UNL     1       7.222   4.924  15.427  0.00  0.00    +0.000 C 
ATOM     17  O   UNL     1       7.222   4.924  15.427  0.00  0.00    +0.000 OA
ATOM     18  C   UNL     1       7.222   4.924  15.427  0.00  0.00    +0.000 C 
ENDBRANCH  12  13
ENDBRANCH   3  12
TORSDOF 3
ENDMDL
