MODEL 1
REMARK VINA RESULT:      -9.2      0.000      0.000
REMARK  Name = 
REMARK  6 active torsions:
REMARK  status: ('A' for Active; 'I' for Inactive)
REMARK    1  A    between atoms: C_2  and  O_3
REMARK    2  A    between atoms: C_2  and  C_4
REMARK    3  A    between atoms: N_6  and  C_7
REMARK    4  A    between atoms: C_7  and  C_8
REMARK    5  A    between atoms: C_8  and  C_9
REMARK    6  A    between atoms: C_24  and  O_25
REMARK                            x       y       z     vdW  Elec       q    Type
REMARK                         _______ _______ _______ _____ _____    ______ ____
ROOT
ATOM      1  C   UNL     1       2.879   4.310  19.389  0.00  0.00    +0.000 C 
ATOM      2  C   UNL     1       2.445   3.566  18.105  0.00  0.00    +0.000 C 
ATOM      3  C   UNL     1       0.968   3.229  18.273  0.00  0.00    +0.000 C 
ATOM      4  C   UNL     1       0.718   3.140  19.768  0.00  0.00    +0.000 C 
ATOM      5  C   UNL     1       1.994   3.603  20.462  0.00  0.00    +0.000 C 
ENDROOT
BRANCH   1   6
ATOM      6  C   UNL     1       2.535   5.819  19.440  0.00  0.00    +0.000 A 
ATOM      7  C   UNL     1       2.184   6.344  20.696  0.00  0.00    +0.000 A 
ATOM      8  C   UNL     1       1.553   7.569  20.798  0.00  0.00    +0.000 A 
ATOM      9  C   UNL     1       1.454   8.378  19.671  0.00  0.00    +0.000 A 
ATOM     10  C   UNL     1       0.776   9.586  19.731  0.00  0.00    +0.000 A 
ATOM     11  C   UNL     1       1.216  10.626  18.947  0.00  0.00    +0.000 A 
ATOM     12  C   UNL     1       1.995  10.280  17.866  0.00  0.00    +0.000 A 
ATOM     13  N   UNL     1       2.335   8.999  17.551  0.00  0.00    +0.000 NA
ATOM     14  C   UNL     1       2.117   8.047  18.486  0.00  0.00    +0.000 A 
ATOM     15  C   UNL     1       2.533   6.712  18.348  0.00  0.00    +0.000 A 
ENDBRANCH   1   6
BRANCH   1  16
ATOM     16  C   UNL     1       4.415   4.169  19.643  0.00  0.00    +0.000 C 
BRANCH  16  19
ATOM     17  C   UNL     1       6.884   6.212  17.652  0.00  0.00    +0.000 A 
ATOM     18  C   UNL     1       6.112   5.716  18.616  0.00  0.00    +0.000 A 
ATOM     19  N   UNL     1       5.303   4.584  18.512  0.00  0.00    +0.000 N 
ATOM     20  C   UNL     1       5.243   3.960  17.263  0.00  0.00    +0.000 A 
ATOM     21  C   UNL     1       5.954   4.311  16.183  0.00  0.00    +0.000 A 
ATOM     22  C   UNL     1       6.883   5.491  16.345  0.00  0.00    +0.000 A 
ATOM     23  O   UNL     1       7.605   5.874  15.424  0.00  0.00    +0.000 OA
BRANCH  17  25
ATOM     24  O   UNL     1       7.674   8.396  17.215  0.00  0.00    +0.000 OA
ATOM     25  C   UNL     1       7.715   7.394  17.904  0.00  0.00    +0.000 C 
BRANCH  25  26
ATOM     26  O   UNL     1       8.569   7.300  18.962  0.00  0.00    +0.000 OA
ATOM     27  H   UNL     1       8.954   6.385  19.087  0.00  0.00    +0.000 HD
ENDBRANCH  25  26
ENDBRANCH  17  25
BRANCH  21  28
ATOM     28  O   UNL     1       5.880   3.694  14.972  0.00  0.00    +0.000 OA
ATOM     29  H   UNL     1       6.649   3.115  14.869  0.00  0.00    +0.000 HD
ENDBRANCH  21  28
ENDBRANCH  16  19
ENDBRANCH   1  16
TORSDOF 6
ENDMDL
MODEL 2
REMARK VINA RESULT:      -9.2      0.808      1.393
REMARK  Name = 
REMARK  6 active torsions:
REMARK  status: ('A' for Active; 'I' for Inactive)
REMARK    1  A    between atoms: C_2  and  O_3
REMARK    2  A    between atoms: C_2  and  C_4
REMARK    3  A    between atoms: N_6  and  C_7
REMARK    4  A    between atoms: C_7  and  C_8
REMARK    5  A    between atoms: C_8  and  C_9
REMARK    6  A    between atoms: C_24  and  O_25
REMARK                            x       y       z     vdW  Elec       q    Type
REMARK                         _______ _______ _______ _____ _____    ______ ____
ROOT
ATOM      1  C   UNL     1       3.062   3.937  19.478  0.00  0.00    +0.000 C 
ATOM      2  C   UNL     1       2.697   2.878  18.414  0.00  0.00    +0.000 C 
ATOM      3  C   UNL     1       1.255   2.465  18.683  0.00  0.00    +0.000 C 
ATOM      4  C   UNL     1       1.010   2.711  20.161  0.00  0.00    +0.000 C 
ATOM      5  C   UNL     1       2.239   3.432  20.704  0.00  0.00    +0.000 C 
ENDROOT
BRANCH   1   6
ATOM      6  C   UNL     1       2.588   5.381  19.179  0.00  0.00    +0.000 A 
ATOM      7  C   UNL     1       2.526   5.758  17.826  0.00  0.00    +0.000 A 
ATOM      8  C   UNL     1       2.441   7.089  17.467  0.00  0.00    +0.000 A 
ATOM      9  C   UNL     1       2.203   8.044  18.450  0.00  0.00    +0.000 A 
ATOM     10  C   UNL     1       2.170   9.391  18.126  0.00  0.00    +0.000 A 
ATOM     11  C   UNL     1       1.327  10.216  18.832  0.00  0.00    +0.000 A 
ATOM     12  C   UNL     1       0.917   9.751  20.061  0.00  0.00    +0.000 A 
ATOM     13  N   UNL     1       1.298   8.554  20.589  0.00  0.00    +0.000 NA
ATOM     14  C   UNL     1       1.895   7.669  19.760  0.00  0.00    +0.000 A 
ATOM     15  C   UNL     1       2.223   6.354  20.134  0.00  0.00    +0.000 A 
ENDBRANCH   1   6
BRANCH   1  16
ATOM     16  C   UNL     1       4.603   3.991  19.731  0.00  0.00    +0.000 C 
BRANCH  16  19
ATOM     17  C   UNL     1       6.906   6.162  17.676  0.00  0.00    +0.000 A 
ATOM     18  C   UNL     1       6.188   5.626  18.660  0.00  0.00    +0.000 A 
ATOM     19  N   UNL     1       5.437   4.453  18.576  0.00  0.00    +0.000 N 
ATOM     20  C   UNL     1       5.374   3.827  17.328  0.00  0.00    +0.000 A 
ATOM     21  C   UNL     1       6.036   4.216  16.229  0.00  0.00    +0.000 A 
ATOM     22  C   UNL     1       6.906   5.443  16.368  0.00  0.00    +0.000 A 
ATOM     23  O   UNL     1       7.581   5.864  15.428  0.00  0.00    +0.000 OA
BRANCH  17  25
ATOM     24  O   UNL     1       7.581   8.379  17.210  0.00  0.00    +0.000 OA
ATOM     25  C   UNL     1       7.681   7.386  17.907  0.00  0.00    +0.000 C 
BRANCH  25  26
ATOM     26  O   UNL     1       8.551   7.343  18.954  0.00  0.00    +0.000 OA
ATOM     27  H   UNL     1       8.557   6.468  19.438  0.00  0.00    +0.000 HD
ENDBRANCH  25  26
ENDBRANCH  17  25
BRANCH  21  28
ATOM     28  O   UNL     1       5.961   3.597  15.020  0.00  0.00    +0.000 OA
ATOM     29  H   UNL     1       6.566   2.841  15.018  0.00  0.00    +0.000 HD
ENDBRANCH  21  28
ENDBRANCH  16  19
ENDBRANCH   1  16
TORSDOF 6
ENDMDL
MODEL 3
REMARK VINA RESULT:      -9.0      0.737      2.277
REMARK  Name = 
REMARK  6 active torsions:
REMARK  status: ('A' for Active; 'I' for Inactive)
REMARK    1  A    between atoms: C_2  and  O_3
REMARK    2  A    between atoms: C_2  and  C_4
REMARK    3  A    between atoms: N_6  and  C_7
REMARK    4  A    between atoms: C_7  and  C_8
REMARK    5  A    between atoms: C_8  and  C_9
REMARK    6  A    between atoms: C_24  and  O_25
REMARK                            x       y       z     vdW  Elec       q    Type
REMARK                         _______ _______ _______ _____ _____    ______ ____
ROOT
ATOM      1  C   UNL     1       2.996   3.916  19.270  0.00  0.00    +0.000 C 
ATOM      2  C   UNL     1       2.540   3.202  17.977  0.00  0.00    +0.000 C 
ATOM      3  C   UNL     1       1.059   2.887  18.150  0.00  0.00    +0.000 C 
ATOM      4  C   UNL     1       0.817   2.778  19.644  0.00  0.00    +0.000 C 
ATOM      5  C   UNL     1       2.106   3.207  20.338  0.00  0.00    +0.000 C 
ENDROOT
BRANCH   1   6
ATOM      6  C   UNL     1       2.679   5.430  19.349  0.00  0.00    +0.000 A 
ATOM      7  C   UNL     1       2.426   5.956  20.628  0.00  0.00    +0.000 A 
ATOM      8  C   UNL     1       1.822   7.190  20.777  0.00  0.00    +0.000 A 
ATOM      9  C   UNL     1       1.656   8.004  19.662  0.00  0.00    +0.000 A 
ATOM     10  C   UNL     1       1.002   9.221  19.772  0.00  0.00    +0.000 A 
ATOM     11  C   UNL     1       1.401  10.257  18.962  0.00  0.00    +0.000 A 
ATOM     12  C   UNL     1       2.096   9.903  17.828  0.00  0.00    +0.000 A 
ATOM     13  N   UNL     1       2.394   8.618  17.486  0.00  0.00    +0.000 NA
ATOM     14  C   UNL     1       2.228   7.667  18.432  0.00  0.00    +0.000 A 
ATOM     15  C   UNL     1       2.613   6.326  18.262  0.00  0.00    +0.000 A 
ENDBRANCH   1   6
BRANCH   1  16
ATOM     16  C   UNL     1       4.530   3.743  19.511  0.00  0.00    +0.000 C 
BRANCH  16  19
ATOM     17  C   UNL     1       6.219   5.062  16.405  0.00  0.00    +0.000 A 
ATOM     18  C   UNL     1       5.421   4.425  17.259  0.00  0.00    +0.000 A 
ATOM     19  N   UNL     1       5.424   4.578  18.646  0.00  0.00    +0.000 N 
ATOM     20  C   UNL     1       6.400   5.416  19.191  0.00  0.00    +0.000 A 
ATOM     21  C   UNL     1       7.280   6.143  18.489  0.00  0.00    +0.000 A 
ATOM     22  C   UNL     1       7.203   6.023  16.986  0.00  0.00    +0.000 A 
ATOM     23  O   UNL     1       7.943   6.675  16.248  0.00  0.00    +0.000 OA
BRANCH  17  25
ATOM     24  O   UNL     1       5.078   4.398  14.445  0.00  0.00    +0.000 OA
ATOM     25  C   UNL     1       6.089   4.836  14.962  0.00  0.00    +0.000 C 
BRANCH  25  26
ATOM     26  O   UNL     1       7.191   5.130  14.218  0.00  0.00    +0.000 OA
ATOM     27  H   UNL     1       6.986   5.337  13.261  0.00  0.00    +0.000 HD
ENDBRANCH  25  26
ENDBRANCH  17  25
BRANCH  21  28
ATOM     28  O   UNL     1       8.227   6.953  19.036  0.00  0.00    +0.000 OA
ATOM     29  H   UNL     1       8.392   7.692  18.433  0.00  0.00    +0.000 HD
ENDBRANCH  21  28
ENDBRANCH  16  19
ENDBRANCH   1  16
TORSDOF 6
ENDMDL
MODEL 4
REMARK VINA RESULT:      -8.7      1.123      2.712
REMARK  Name = 
REMARK  6 active torsions:
REMARK  status: ('A' for Active; 'I' for Inactive)
REMARK    1  A    between atoms: C_2  and  O_3
REMARK    2  A    between atoms: C_2  and  C_4
REMARK    3  A    between atoms: N_6  and  C_7
REMARK    4  A    between atoms: C_7  and  C_8
REMARK    5  A    between atoms: C_8  and  C_9
REMARK    6  A    between atoms: C_24  and  O_25
REMARK                            x       y       z     vdW  Elec       q    Type
REMARK                         _______ _______ _______ _____ _____    ______ ____
ROOT
ATOM      1  C   UNL     1       3.120   3.661  19.487  0.00  0.00    +0.000 C 
ATOM      2  C   UNL     1       2.802   2.632  18.379  0.00  0.00    +0.000 C 
ATOM      3  C   UNL     1       1.358   2.193  18.591  0.00  0.00    +0.000 C 
ATOM      4  C   UNL     1       1.065   2.388  20.067  0.00  0.00    +0.000 C 
ATOM      5  C   UNL     1       2.268   3.106  20.670  0.00  0.00    +0.000 C 
ENDROOT
BRANCH   1   6
ATOM      6  C   UNL     1       2.636   5.108  19.220  0.00  0.00    +0.000 A 
ATOM      7  C   UNL     1       2.490   5.486  17.874  0.00  0.00    +0.000 A 
ATOM      8  C   UNL     1       2.389   6.819  17.522  0.00  0.00    +0.000 A 
ATOM      9  C   UNL     1       2.220   7.773  18.519  0.00  0.00    +0.000 A 
ATOM     10  C   UNL     1       2.173   9.121  18.199  0.00  0.00    +0.000 A 
ATOM     11  C   UNL     1       1.381   9.950  18.958  0.00  0.00    +0.000 A 
ATOM     12  C   UNL     1       1.048   9.486  20.210  0.00  0.00    +0.000 A 
ATOM     13  N   UNL     1       1.455   8.286  20.711  0.00  0.00    +0.000 NA
ATOM     14  C   UNL     1       1.993   7.398  19.846  0.00  0.00    +0.000 A 
ATOM     15  C   UNL     1       2.338   6.082  20.196  0.00  0.00    +0.000 A 
ENDBRANCH   1   6
BRANCH   1  16
ATOM     16  C   UNL     1       4.652   3.726  19.788  0.00  0.00    +0.000 C 
BRANCH  16  19
ATOM     17  C   UNL     1       6.150   4.852  16.512  0.00  0.00    +0.000 A 
ATOM     18  C   UNL     1       5.416   4.257  17.450  0.00  0.00    +0.000 A 
ATOM     19  N   UNL     1       5.474   4.520  18.819  0.00  0.00    +0.000 N 
ATOM     20  C   UNL     1       6.439   5.433  19.251  0.00  0.00    +0.000 A 
ATOM     21  C   UNL     1       7.258   6.133  18.454  0.00  0.00    +0.000 A 
ATOM     22  C   UNL     1       7.120   5.891  16.969  0.00  0.00    +0.000 A 
ATOM     23  O   UNL     1       7.801   6.507  16.149  0.00  0.00    +0.000 OA
BRANCH  17  25
ATOM     24  O   UNL     1       4.873   4.321  14.596  0.00  0.00    +0.000 OA
ATOM     25  C   UNL     1       5.966   4.507  15.099  0.00  0.00    +0.000 C 
BRANCH  25  26
ATOM     26  O   UNL     1       7.109   4.384  14.368  0.00  0.00    +0.000 OA
ATOM     27  H   UNL     1       6.966   4.465  13.382  0.00  0.00    +0.000 HD
ENDBRANCH  25  26
ENDBRANCH  17  25
BRANCH  21  28
ATOM     28  O   UNL     1       8.195   7.018  18.891  0.00  0.00    +0.000 OA
ATOM     29  H   UNL     1       8.282   6.932  19.851  0.00  0.00    +0.000 HD
ENDBRANCH  21  28
ENDBRANCH  16  19
ENDBRANCH   1  16
TORSDOF 6
ENDMDL
MODEL 5
REMARK VINA RESULT:      -8.3      1.767      2.505
REMARK  Name = 
REMARK  6 active torsions:
REMARK  status: ('A' for Active; 'I' for Inactive)
REMARK    1  A    between atoms: C_2  and  O_3
REMARK    2  A    between atoms: C_2  and  C_4
REMARK    3  A    between atoms: N_6  and  C_7
REMARK    4  A    between atoms: C_7  and  C_8
REMARK    5  A    between atoms: C_8  and  C_9
REMARK    6  A    between atoms: C_24  and  O_25
REMARK                            x       y       z     vdW  Elec       q    Type
REMARK                         _______ _______ _______ _____ _____    ______ ____
ROOT
ATOM      1  C   UNL     1       2.452   6.138  18.895  0.00  0.00    +0.000 C 
ATOM      2  C   UNL     1       1.508   4.980  18.498  0.00  0.00    +0.000 C 
ATOM      3  C   UNL     1       1.161   4.239  19.783  0.00  0.00    +0.000 C 
ATOM      4  C   UNL     1       2.316   4.476  20.739  0.00  0.00    +0.000 C 
ATOM      5  C   UNL     1       3.238   5.496  20.080  0.00  0.00    +0.000 C 
ENDROOT
BRANCH   1   6
ATOM      6  C   UNL     1       1.760   7.410  19.445  0.00  0.00    +0.000 A 
ATOM      7  C   UNL     1       1.483   8.429  18.518  0.00  0.00    +0.000 A 
ATOM      8  C   UNL     1       1.180   9.708  18.944  0.00  0.00    +0.000 A 
ATOM      9  C   UNL     1       0.942   9.935  20.295  0.00  0.00    +0.000 A 
ATOM     10  C   UNL     1       0.693  11.217  20.759  0.00  0.00    +0.000 A 
ATOM     11  C   UNL     1      -0.158  11.377  21.827  0.00  0.00    +0.000 A 
ATOM     12  C   UNL     1      -0.348  10.266  22.617  0.00  0.00    +0.000 A 
ATOM     13  N   UNL     1       0.248   9.061  22.396  0.00  0.00    +0.000 NA
ATOM     14  C   UNL     1       0.849   8.873  21.200  0.00  0.00    +0.000 A 
ATOM     15  C   UNL     1       1.391   7.644  20.787  0.00  0.00    +0.000 A 
ENDBRANCH   1   6
BRANCH   1  16
ATOM     16  C   UNL     1       3.358   6.576  17.699  0.00  0.00    +0.000 C 
BRANCH  16  19
ATOM     17  C   UNL     1       7.009   5.765  18.193  0.00  0.00    +0.000 A 
ATOM     18  C   UNL     1       5.788   6.286  18.282  0.00  0.00    +0.000 A 
ATOM     19  N   UNL     1       4.665   5.857  17.573  0.00  0.00    +0.000 N 
ATOM     20  C   UNL     1       4.857   4.841  16.633  0.00  0.00    +0.000 A 
ATOM     21  C   UNL     1       6.009   4.194  16.412  0.00  0.00    +0.000 A 
ATOM     22  C   UNL     1       7.191   4.622  17.250  0.00  0.00    +0.000 A 
ATOM     23  O   UNL     1       8.287   4.068  17.149  0.00  0.00    +0.000 OA
BRANCH  17  25
ATOM     24  O   UNL     1       8.565   7.405  18.882  0.00  0.00    +0.000 OA
ATOM     25  C   UNL     1       8.099   6.289  19.022  0.00  0.00    +0.000 C 
BRANCH  25  26
ATOM     26  O   UNL     1       8.586   5.434  19.965  0.00  0.00    +0.000 OA
ATOM     27  H   UNL     1       7.874   4.954  20.478  0.00  0.00    +0.000 HD
ENDBRANCH  25  26
ENDBRANCH  17  25
BRANCH  21  28
ATOM     28  O   UNL     1       6.180   3.208  15.490  0.00  0.00    +0.000 OA
ATOM     29  H   UNL     1       5.315   2.836  15.266  0.00  0.00    +0.000 HD
ENDBRANCH  21  28
ENDBRANCH  16  19
ENDBRANCH   1  16
TORSDOF 6
ENDMDL
MODEL 6
REMARK VINA RESULT:      -8.2      1.058      1.579
REMARK  Name = 
REMARK  6 active torsions:
REMARK  status: ('A' for Active; 'I' for Inactive)
REMARK    1  A    between atoms: C_2  and  O_3
REMARK    2  A    between atoms: C_2  and  C_4
REMARK    3  A    between atoms: N_6  and  C_7
REMARK    4  A    between atoms: C_7  and  C_8
REMARK    5  A    between atoms: C_8  and  C_9
REMARK    6  A    between atoms: C_24  and  O_25
REMARK                            x       y       z     vdW  Elec       q    Type
REMARK                         _______ _______ _______ _____ _____    ______ ____
ROOT
ATOM      1  C   UNL     1       2.253   4.237  19.068  0.00  0.00    +0.000 C 
ATOM      2  C   UNL     1       1.023   3.396  19.479  0.00  0.00    +0.000 C 
ATOM      3  C   UNL     1       1.095   3.225  20.991  0.00  0.00    +0.000 C 
ATOM      4  C   UNL     1       2.563   3.335  21.364  0.00  0.00    +0.000 C 
ATOM      5  C   UNL     1       3.314   3.750  20.103  0.00  0.00    +0.000 C 
ENDROOT
BRANCH   1   6
ATOM      6  C   UNL     1       2.111   5.769  19.252  0.00  0.00    +0.000 A 
ATOM      7  C   UNL     1       1.942   6.233  20.568  0.00  0.00    +0.000 A 
ATOM      8  C   UNL     1       1.484   7.514  20.811  0.00  0.00    +0.000 A 
ATOM      9  C   UNL     1       1.391   8.414  19.755  0.00  0.00    +0.000 A 
ATOM     10  C   UNL     1       0.881   9.687  19.959  0.00  0.00    +0.000 A 
ATOM     11  C   UNL     1       1.379  10.723  19.207  0.00  0.00    +0.000 A 
ATOM     12  C   UNL     1       2.010  10.370  18.035  0.00  0.00    +0.000 A 
ATOM     13  N   UNL     1       2.154   9.086  17.605  0.00  0.00    +0.000 NA
ATOM     14  C   UNL     1       1.899   8.098  18.491  0.00  0.00    +0.000 A 
ATOM     15  C   UNL     1       2.127   6.737  18.226  0.00  0.00    +0.000 A 
ENDBRANCH   1   6
BRANCH   1  16
ATOM     16  C   UNL     1       2.656   3.979  17.580  0.00  0.00    +0.000 C 
BRANCH  16  19
ATOM     17  C   UNL     1       6.286   4.938  17.949  0.00  0.00    +0.000 A 
ATOM     18  C   UNL     1       4.988   4.727  18.154  0.00  0.00    +0.000 A 
ATOM     19  N   UNL     1       4.117   4.086  17.272  0.00  0.00    +0.000 N 
ATOM     20  C   UNL     1       4.638   3.698  16.035  0.00  0.00    +0.000 A 
ATOM     21  C   UNL     1       5.917   3.821  15.657  0.00  0.00    +0.000 A 
ATOM     22  C   UNL     1       6.857   4.445  16.661  0.00  0.00    +0.000 A 
ATOM     23  O   UNL     1       8.060   4.572  16.425  0.00  0.00    +0.000 OA
BRANCH  17  25
ATOM     24  O   UNL     1       7.068   5.284  20.152  0.00  0.00    +0.000 OA
ATOM     25  C   UNL     1       7.100   5.596  18.976  0.00  0.00    +0.000 C 
BRANCH  25  26
ATOM     26  O   UNL     1       7.897   6.610  18.537  0.00  0.00    +0.000 OA
ATOM     27  H   UNL     1       7.904   7.407  19.142  0.00  0.00    +0.000 HD
ENDBRANCH  25  26
ENDBRANCH  17  25
BRANCH  21  28
ATOM     28  O   UNL     1       6.407   3.441  14.445  0.00  0.00    +0.000 OA
ATOM     29  H   UNL     1       5.974   2.618  14.177  0.00  0.00    +0.000 HD
ENDBRANCH  21  28
ENDBRANCH  16  19
ENDBRANCH   1  16
TORSDOF 6
ENDMDL
MODEL 7
REMARK VINA RESULT:      -8.2      1.881      3.332
REMARK  Name = 
REMARK  6 active torsions:
REMARK  status: ('A' for Active; 'I' for Inactive)
REMARK    1  A    between atoms: C_2  and  O_3
REMARK    2  A    between atoms: C_2  and  C_4
REMARK    3  A    between atoms: N_6  and  C_7
REMARK    4  A    between atoms: C_7  and  C_8
REMARK    5  A    between atoms: C_8  and  C_9
REMARK    6  A    between atoms: C_24  and  O_25
REMARK                            x       y       z     vdW  Elec       q    Type
REMARK                         _______ _______ _______ _____ _____    ______ ____
ROOT
ATOM      1  C   UNL     1       2.654   6.427  18.834  0.00  0.00    +0.000 C 
ATOM      2  C   UNL     1       1.813   5.299  18.193  0.00  0.00    +0.000 C 
ATOM      3  C   UNL     1       1.375   4.382  19.328  0.00  0.00    +0.000 C 
ATOM      4  C   UNL     1       2.415   4.531  20.423  0.00  0.00    +0.000 C 
ATOM      5  C   UNL     1       3.348   5.662  20.003  0.00  0.00    +0.000 C 
ENDROOT
BRANCH   1   6
ATOM      6  C   UNL     1       1.849   7.589  19.467  0.00  0.00    +0.000 A 
ATOM      7  C   UNL     1       1.450   8.624  18.604  0.00  0.00    +0.000 A 
ATOM      8  C   UNL     1       1.027   9.839  19.108  0.00  0.00    +0.000 A 
ATOM      9  C   UNL     1       0.798   9.966  20.473  0.00  0.00    +0.000 A 
ATOM     10  C   UNL     1       0.430  11.189  21.013  0.00  0.00    +0.000 A 
ATOM     11  C   UNL     1      -0.409  11.200  22.102  0.00  0.00    +0.000 A 
ATOM     12  C   UNL     1      -0.468  10.035  22.831  0.00  0.00    +0.000 A 
ATOM     13  N   UNL     1       0.243   8.911  22.531  0.00  0.00    +0.000 NA
ATOM     14  C   UNL     1       0.833   8.852  21.317  0.00  0.00    +0.000 A 
ATOM     15  C   UNL     1       1.488   7.710  20.826  0.00  0.00    +0.000 A 
ENDBRANCH   1   6
BRANCH   1  16
ATOM     16  C   UNL     1       3.653   7.053  17.807  0.00  0.00    +0.000 C 
BRANCH  16  19
ATOM     17  C   UNL     1       6.441   5.087  16.195  0.00  0.00    +0.000 A 
ATOM     18  C   UNL     1       5.339   5.796  16.426  0.00  0.00    +0.000 A 
ATOM     19  N   UNL     1       4.961   6.341  17.654  0.00  0.00    +0.000 N 
ATOM     20  C   UNL     1       5.775   6.054  18.753  0.00  0.00    +0.000 A 
ATOM     21  C   UNL     1       6.925   5.367  18.710  0.00  0.00    +0.000 A 
ATOM     22  C   UNL     1       7.353   4.856  17.355  0.00  0.00    +0.000 A 
ATOM     23  O   UNL     1       8.410   4.243  17.202  0.00  0.00    +0.000 OA
BRANCH  17  25
ATOM     24  O   UNL     1       6.144   3.671  14.327  0.00  0.00    +0.000 OA
ATOM     25  C   UNL     1       6.738   4.598  14.845  0.00  0.00    +0.000 C 
BRANCH  25  26
ATOM     26  O   UNL     1       7.750   5.239  14.195  0.00  0.00    +0.000 OA
ATOM     27  H   UNL     1       7.824   6.210  14.425  0.00  0.00    +0.000 HD
ENDBRANCH  25  26
ENDBRANCH  17  25
BRANCH  21  28
ATOM     28  O   UNL     1       7.705   5.094  19.792  0.00  0.00    +0.000 OA
ATOM     29  H   UNL     1       8.617   4.965  19.494  0.00  0.00    +0.000 HD
ENDBRANCH  21  28
ENDBRANCH  16  19
ENDBRANCH   1  16
TORSDOF 6
ENDMDL
MODEL 8
REMARK VINA RESULT:      -8.2      1.430      2.153
REMARK  Name = 
REMARK  6 active torsions:
REMARK  status: ('A' for Active; 'I' for Inactive)
REMARK    1  A    between atoms: C_2  and  O_3
REMARK    2  A    between atoms: C_2  and  C_4
REMARK    3  A    between atoms: N_6  and  C_7
REMARK    4  A    between atoms: C_7  and  C_8
REMARK    5  A    between atoms: C_8  and  C_9
REMARK    6  A    between atoms: C_24  and  O_25
REMARK                            x       y       z     vdW  Elec       q    Type
REMARK                         _______ _______ _______ _____ _____    ______ ____
ROOT
ATOM      1  C   UNL     1       2.862   3.391  19.300  0.00  0.00    +0.000 C 
ATOM      2  C   UNL     1       1.717   2.382  19.544  0.00  0.00    +0.000 C 
ATOM      3  C   UNL     1       1.335   2.501  21.014  0.00  0.00    +0.000 C 
ATOM      4  C   UNL     1       2.573   3.000  21.738  0.00  0.00    +0.000 C 
ATOM      5  C   UNL     1       3.606   3.343  20.671  0.00  0.00    +0.000 C 
ENDROOT
BRANCH   1   6
ATOM      6  C   UNL     1       2.427   4.860  19.073  0.00  0.00    +0.000 A 
ATOM      7  C   UNL     1       2.080   5.219  17.759  0.00  0.00    +0.000 A 
ATOM      8  C   UNL     1       2.000   6.547  17.387  0.00  0.00    +0.000 A 
ATOM      9  C   UNL     1       2.058   7.532  18.368  0.00  0.00    +0.000 A 
ATOM     10  C   UNL     1       2.038   8.873  18.019  0.00  0.00    +0.000 A 
ATOM     11  C   UNL     1       1.435   9.765  18.874  0.00  0.00    +0.000 A 
ATOM     12  C   UNL     1       1.290   9.349  20.177  0.00  0.00    +0.000 A 
ATOM     13  N   UNL     1       1.703   8.136  20.641  0.00  0.00    +0.000 NA
ATOM     14  C   UNL     1       2.035   7.199  19.726  0.00  0.00    +0.000 A 
ATOM     15  C   UNL     1       2.355   5.871  20.055  0.00  0.00    +0.000 A 
ENDBRANCH   1   6
BRANCH   1  16
ATOM     16  C   UNL     1       3.750   2.970  18.084  0.00  0.00    +0.000 C 
BRANCH  16  19
ATOM     17  C   UNL     1       6.656   5.360  18.367  0.00  0.00    +0.000 A 
ATOM     18  C   UNL     1       5.726   4.438  18.604  0.00  0.00    +0.000 A 
ATOM     19  N   UNL     1       4.804   3.952  17.676  0.00  0.00    +0.000 N 
ATOM     20  C   UNL     1       4.811   4.538  16.407  0.00  0.00    +0.000 A 
ATOM     21  C   UNL     1       5.677   5.470  15.986  0.00  0.00    +0.000 A 
ATOM     22  C   UNL     1       6.716   5.921  16.985  0.00  0.00    +0.000 A 
ATOM     23  O   UNL     1       7.579   6.748  16.688  0.00  0.00    +0.000 OA
BRANCH  17  25
ATOM     24  O   UNL     1       7.666   5.186  20.496  0.00  0.00    +0.000 OA
ATOM     25  C   UNL     1       7.589   5.759  19.426  0.00  0.00    +0.000 C 
BRANCH  25  26
ATOM     26  O   UNL     1       8.368   6.842  19.148  0.00  0.00    +0.000 OA
ATOM     27  H   UNL     1       7.918   7.717  19.330  0.00  0.00    +0.000 HD
ENDBRANCH  25  26
ENDBRANCH  17  25
BRANCH  21  28
ATOM     28  O   UNL     1       5.668   6.033  14.747  0.00  0.00    +0.000 OA
ATOM     29  H   UNL     1       5.429   6.967  14.830  0.00  0.00    +0.000 HD
ENDBRANCH  21  28
ENDBRANCH  16  19
ENDBRANCH   1  16
TORSDOF 6
ENDMDL
MODEL 9
REMARK VINA RESULT:      -8.1      1.364      2.792
REMARK  Name = 
REMARK  6 active torsions:
REMARK  status: ('A' for Active; 'I' for Inactive)
REMARK    1  A    between atoms: C_2  and  O_3
REMARK    2  A    between atoms: C_2  and  C_4
REMARK    3  A    between atoms: N_6  and  C_7
REMARK    4  A    between atoms: C_7  and  C_8
REMARK    5  A    between atoms: C_8  and  C_9
REMARK    6  A    between atoms: C_24  and  O_25
REMARK                            x       y       z     vdW  Elec       q    Type
REMARK                         _______ _______ _______ _____ _____    ______ ____
ROOT
ATOM      1  C   UNL     1       2.586   3.386  19.472  0.00  0.00    +0.000 C 
ATOM      2  C   UNL     1       1.380   2.436  19.656  0.00  0.00    +0.000 C 
ATOM      3  C   UNL     1       0.918   2.592  21.099  0.00  0.00    +0.000 C 
ATOM      4  C   UNL     1       2.133   3.040  21.891  0.00  0.00    +0.000 C 
ATOM      5  C   UNL     1       3.244   3.319  20.884  0.00  0.00    +0.000 C 
ENDROOT
BRANCH   1   6
ATOM      6  C   UNL     1       2.237   4.871  19.204  0.00  0.00    +0.000 A 
ATOM      7  C   UNL     1       2.023   5.237  17.864  0.00  0.00    +0.000 A 
ATOM      8  C   UNL     1       2.034   6.566  17.485  0.00  0.00    +0.000 A 
ATOM      9  C   UNL     1       2.047   7.552  18.465  0.00  0.00    +0.000 A 
ATOM     10  C   UNL     1       2.117   8.891  18.114  0.00  0.00    +0.000 A 
ATOM     11  C   UNL     1       1.480   9.813  18.910  0.00  0.00    +0.000 A 
ATOM     12  C   UNL     1       1.203   9.411  20.196  0.00  0.00    +0.000 A 
ATOM     13  N   UNL     1       1.521   8.184  20.697  0.00  0.00    +0.000 NA
ATOM     14  C   UNL     1       1.891   7.228  19.816  0.00  0.00    +0.000 A 
ATOM     15  C   UNL     1       2.122   5.889  20.174  0.00  0.00    +0.000 A 
ENDBRANCH   1   6
BRANCH   1  16
ATOM     16  C   UNL     1       3.522   2.908  18.315  0.00  0.00    +0.000 C 
BRANCH  16  19
ATOM     17  C   UNL     1       6.205   4.676  16.336  0.00  0.00    +0.000 A 
ATOM     18  C   UNL     1       5.138   3.971  16.706  0.00  0.00    +0.000 A 
ATOM     19  N   UNL     1       4.693   3.792  18.016  0.00  0.00    +0.000 N 
ATOM     20  C   UNL     1       5.479   4.339  19.034  0.00  0.00    +0.000 A 
ATOM     21  C   UNL     1       6.578   5.084  18.852  0.00  0.00    +0.000 A 
ATOM     22  C   UNL     1       6.993   5.331  17.421  0.00  0.00    +0.000 A 
ATOM     23  O   UNL     1       7.968   6.031  17.145  0.00  0.00    +0.000 OA
BRANCH  17  25
ATOM     24  O   UNL     1       5.900   4.294  14.024  0.00  0.00    +0.000 OA
ATOM     25  C   UNL     1       6.544   4.814  14.916  0.00  0.00    +0.000 C 
BRANCH  25  26
ATOM     26  O   UNL     1       7.654   5.556  14.645  0.00  0.00    +0.000 OA
ATOM     27  H   UNL     1       7.990   5.448  13.709  0.00  0.00    +0.000 HD
ENDBRANCH  25  26
ENDBRANCH  17  25
BRANCH  21  28
ATOM     28  O   UNL     1       7.334   5.607  19.855  0.00  0.00    +0.000 OA
ATOM     29  H   UNL     1       6.863   6.358  20.244  0.00  0.00    +0.000 HD
ENDBRANCH  21  28
ENDBRANCH  16  19
ENDBRANCH   1  16
TORSDOF 6
ENDMDL
