MODEL 1
REMARK VINA RESULT:      -9.0      0.000      0.000
REMARK  Name = 
REMARK  4 active torsions:
REMARK  status: ('A' for Active; 'I' for Inactive)
REMARK    1  A    between atoms: N_1  and  C_2
REMARK    2  A    between atoms: C_7  and  C_8
REMARK    3  A    between atoms: N_19  and  C_20
REMARK    4  A    between atoms: C_20  and  C_21
REMARK                            x       y       z     vdW  Elec       q    Type
REMARK                         _______ _______ _______ _____ _____    ______ ____
ROOT
ATOM      1  C   UNL     1       1.956   8.113  19.378  0.00  0.00    +0.000 A 
ATOM      2  C   UNL     1       2.679   8.604  18.281  0.00  0.00    +0.000 A 
ATOM      3  C   UNL     1       3.450   7.754  17.487  0.00  0.00    +0.000 A 
ATOM      4  C   UNL     1       3.575   6.404  17.824  0.00  0.00    +0.000 A 
ATOM      5  C   UNL     1       4.371   5.501  17.024  0.00  0.00    +0.000 A 
ATOM      6  N   UNL     1       5.001   5.781  15.876  0.00  0.00    +0.000 NA
ATOM      7  N   UNL     1       5.587   4.612  15.547  0.00  0.00    +0.000 N 
ATOM      8  C   UNL     1       5.352   3.614  16.446  0.00  0.00    +0.000 A 
ATOM      9  C   UNL     1       4.558   4.171  17.417  0.00  0.00    +0.000 A 
ATOM     10  C   UNL     1       4.001   3.618  18.626  0.00  0.00    +0.000 A 
ATOM     11  O   UNL     1       4.253   2.476  18.998  0.00  0.00    +0.000 OA
ATOM     12  N   UNL     1       3.173   4.496  19.366  0.00  0.00    +0.000 N 
ATOM     13  C   UNL     1       2.941   5.874  18.972  0.00  0.00    +0.000 A 
ATOM     14  C   UNL     1       2.104   6.739  19.697  0.00  0.00    +0.000 A 
ATOM     15  H   UNL     1       6.137   4.571  14.693  0.00  0.00    +0.000 HD
ENDROOT
BRANCH   1  21
ATOM     16  C   UNL     1       0.162   9.934  19.650  0.00  0.00    +0.000 A 
ATOM     17  C   UNL     1      -0.617  10.728  20.512  0.00  0.00    +0.000 A 
ATOM     18  C   UNL     1      -0.620  10.519  21.890  0.00  0.00    +0.000 A 
ATOM     19  C   UNL     1       0.214   9.556  22.436  0.00  0.00    +0.000 A 
ATOM     20  C   UNL     1       1.060   8.821  21.604  0.00  0.00    +0.000 A 
ATOM     21  C   UNL     1       1.062   8.981  20.198  0.00  0.00    +0.000 A 
BRANCH  16  22
ATOM     22  N   UNL     1       0.136  10.260  18.278  0.00  0.00    +0.000 N 
ATOM     23  H   UNL     1      -0.292   9.547  17.697  0.00  0.00    +0.000 HD
ATOM     24  H   UNL     1       1.046  10.536  17.922  0.00  0.00    +0.000 HD
ENDBRANCH  16  22
ENDBRANCH   1  21
BRANCH  12  25
ATOM     25  C   UNL     1       2.716   3.958  20.657  0.00  0.00    +0.000 C 
BRANCH  25  26
ATOM     26  C   UNL     1       1.347   3.262  20.661  0.00  0.00    +0.000 C 
ATOM     27  F   UNL     1       1.241   2.271  19.752  0.00  0.00    +0.000 F 
ATOM     28  F   UNL     1       1.060   2.751  21.880  0.00  0.00    +0.000 F 
ATOM     29  F   UNL     1       0.372   4.163  20.375  0.00  0.00    +0.000 F 
ENDBRANCH  25  26
ENDBRANCH  12  25
TORSDOF 4
ENDMDL
MODEL 2
REMARK VINA RESULT:      -8.8      0.964      1.341
REMARK  Name = 
REMARK  4 active torsions:
REMARK  status: ('A' for Active; 'I' for Inactive)
REMARK    1  A    between atoms: N_1  and  C_2
REMARK    2  A    between atoms: C_7  and  C_8
REMARK    3  A    between atoms: N_19  and  C_20
REMARK    4  A    between atoms: C_20  and  C_21
REMARK                            x       y       z     vdW  Elec       q    Type
REMARK                         _______ _______ _______ _____ _____    ______ ____
ROOT
ATOM      1  C   UNL     1       1.891   8.273  19.210  0.00  0.00    +0.000 A 
ATOM      2  C   UNL     1       2.630   8.724  18.106  0.00  0.00    +0.000 A 
ATOM      3  C   UNL     1       3.432   7.850  17.371  0.00  0.00    +0.000 A 
ATOM      4  C   UNL     1       3.572   6.520  17.775  0.00  0.00    +0.000 A 
ATOM      5  C   UNL     1       4.401   5.594  17.038  0.00  0.00    +0.000 A 
ATOM      6  N   UNL     1       5.051   5.829  15.891  0.00  0.00    +0.000 NA
ATOM      7  N   UNL     1       5.664   4.656  15.631  0.00  0.00    +0.000 N 
ATOM      8  C   UNL     1       5.425   3.699  16.573  0.00  0.00    +0.000 A 
ATOM      9  C   UNL     1       4.601   4.288  17.499  0.00  0.00    +0.000 A 
ATOM     10  C   UNL     1       4.027   3.785  18.721  0.00  0.00    +0.000 A 
ATOM     11  O   UNL     1       4.290   2.666  19.153  0.00  0.00    +0.000 OA
ATOM     12  N   UNL     1       3.169   4.683  19.400  0.00  0.00    +0.000 N 
ATOM     13  C   UNL     1       2.922   6.036  18.934  0.00  0.00    +0.000 A 
ATOM     14  C   UNL     1       2.055   6.919  19.598  0.00  0.00    +0.000 A 
ATOM     15  H   UNL     1       6.232   4.583  14.793  0.00  0.00    +0.000 HD
ENDROOT
BRANCH   1  21
ATOM     16  C   UNL     1       1.021   9.354  21.374  0.00  0.00    +0.000 A 
ATOM     17  C   UNL     1       0.079  10.193  21.998  0.00  0.00    +0.000 A 
ATOM     18  C   UNL     1      -0.832  10.943  21.257  0.00  0.00    +0.000 A 
ATOM     19  C   UNL     1      -0.865  10.809  19.878  0.00  0.00    +0.000 A 
ATOM     20  C   UNL     1       0.001   9.913  19.249  0.00  0.00    +0.000 A 
ATOM     21  C   UNL     1       0.965   9.164  19.967  0.00  0.00    +0.000 A 
BRANCH  16  22
ATOM     22  N   UNL     1       1.863   8.597  22.215  0.00  0.00    +0.000 N 
ATOM     23  H   UNL     1       2.582   8.084  21.716  0.00  0.00    +0.000 HD
ATOM     24  H   UNL     1       1.347   7.995  22.850  0.00  0.00    +0.000 HD
ENDBRANCH  16  22
ENDBRANCH   1  21
BRANCH  12  25
ATOM     25  C   UNL     1       2.692   4.200  20.706  0.00  0.00    +0.000 C 
BRANCH  25  26
ATOM     26  C   UNL     1       1.360   3.435  20.707  0.00  0.00    +0.000 C 
ATOM     27  F   UNL     1       1.302   2.447  19.792  0.00  0.00    +0.000 F 
ATOM     28  F   UNL     1       1.101   2.903  21.923  0.00  0.00    +0.000 F 
ATOM     29  F   UNL     1       0.341   4.289  20.429  0.00  0.00    +0.000 F 
ENDBRANCH  25  26
ENDBRANCH  12  25
TORSDOF 4
ENDMDL
MODEL 3
REMARK VINA RESULT:      -8.3      1.406      1.827
REMARK  Name = 
REMARK  4 active torsions:
REMARK  status: ('A' for Active; 'I' for Inactive)
REMARK    1  A    between atoms: N_1  and  C_2
REMARK    2  A    between atoms: C_7  and  C_8
REMARK    3  A    between atoms: N_19  and  C_20
REMARK    4  A    between atoms: C_20  and  C_21
REMARK                            x       y       z     vdW  Elec       q    Type
REMARK                         _______ _______ _______ _____ _____    ______ ____
ROOT
ATOM      1  C   UNL     1       2.218   7.902  18.475  0.00  0.00    +0.000 A 
ATOM      2  C   UNL     1       3.359   8.364  17.802  0.00  0.00    +0.000 A 
ATOM      3  C   UNL     1       4.223   7.478  17.156  0.00  0.00    +0.000 A 
ATOM      4  C   UNL     1       4.003   6.101  17.239  0.00  0.00    +0.000 A 
ATOM      5  C   UNL     1       4.884   5.160  16.586  0.00  0.00    +0.000 A 
ATOM      6  N   UNL     1       5.925   5.444  15.793  0.00  0.00    +0.000 NA
ATOM      7  N   UNL     1       6.400   4.228  15.451  0.00  0.00    +0.000 N 
ATOM      8  C   UNL     1       5.699   3.196  16.002  0.00  0.00    +0.000 A 
ATOM      9  C   UNL     1       4.704   3.781  16.745  0.00  0.00    +0.000 A 
ATOM     10  C   UNL     1       3.664   3.209  17.564  0.00  0.00    +0.000 A 
ATOM     11  O   UNL     1       3.581   2.000  17.762  0.00  0.00    +0.000 OA
ATOM     12  N   UNL     1       2.773   4.141  18.146  0.00  0.00    +0.000 N 
ATOM     13  C   UNL     1       2.920   5.576  17.981  0.00  0.00    +0.000 A 
ATOM     14  C   UNL     1       2.023   6.499  18.544  0.00  0.00    +0.000 A 
ATOM     15  H   UNL     1       7.209   4.181  14.839  0.00  0.00    +0.000 HD
ENDROOT
BRANCH   1  21
ATOM     16  C   UNL     1       1.054   8.956  20.510  0.00  0.00    +0.000 A 
ATOM     17  C   UNL     1       0.075   9.838  21.006  0.00  0.00    +0.000 A 
ATOM     18  C   UNL     1      -0.637  10.685  20.159  0.00  0.00    +0.000 A 
ATOM     19  C   UNL     1      -0.434  10.611  18.790  0.00  0.00    +0.000 A 
ATOM     20  C   UNL     1       0.467   9.678  18.274  0.00  0.00    +0.000 A 
ATOM     21  C   UNL     1       1.235   8.829  19.107  0.00  0.00    +0.000 A 
BRANCH  16  22
ATOM     22  N   UNL     1       1.681   8.103  21.442  0.00  0.00    +0.000 N 
ATOM     23  H   UNL     1       1.032   7.619  22.053  0.00  0.00    +0.000 HD
ATOM     24  H   UNL     1       2.414   8.568  21.969  0.00  0.00    +0.000 HD
ENDBRANCH  16  22
ENDBRANCH   1  21
BRANCH  12  25
ATOM     25  C   UNL     1       1.798   3.551  19.078  0.00  0.00    +0.000 C 
BRANCH  25  26
ATOM     26  C   UNL     1       2.217   3.482  20.554  0.00  0.00    +0.000 C 
ATOM     27  F   UNL     1       3.439   2.944  20.745  0.00  0.00    +0.000 F 
ATOM     28  F   UNL     1       2.200   4.707  21.126  0.00  0.00    +0.000 F 
ATOM     29  F   UNL     1       1.337   2.714  21.246  0.00  0.00    +0.000 F 
ENDBRANCH  25  26
ENDBRANCH  12  25
TORSDOF 4
ENDMDL
MODEL 4
REMARK VINA RESULT:      -8.2      1.059      1.181
REMARK  Name = 
REMARK  4 active torsions:
REMARK  status: ('A' for Active; 'I' for Inactive)
REMARK    1  A    between atoms: N_1  and  C_2
REMARK    2  A    between atoms: C_7  and  C_8
REMARK    3  A    between atoms: N_19  and  C_20
REMARK    4  A    between atoms: C_20  and  C_21
REMARK                            x       y       z     vdW  Elec       q    Type
REMARK                         _______ _______ _______ _____ _____    ______ ____
ROOT
ATOM      1  C   UNL     1       2.211   7.745  18.973  0.00  0.00    +0.000 A 
ATOM      2  C   UNL     1       3.260   8.268  18.203  0.00  0.00    +0.000 A 
ATOM      3  C   UNL     1       4.067   7.438  17.424  0.00  0.00    +0.000 A 
ATOM      4  C   UNL     1       3.888   6.052  17.462  0.00  0.00    +0.000 A 
ATOM      5  C   UNL     1       4.712   5.167  16.672  0.00  0.00    +0.000 A 
ATOM      6  N   UNL     1       5.653   5.516  15.785  0.00  0.00    +0.000 NA
ATOM      7  N   UNL     1       6.114   4.331  15.333  0.00  0.00    +0.000 N 
ATOM      8  C   UNL     1       5.501   3.256  15.906  0.00  0.00    +0.000 A 
ATOM      9  C   UNL     1       4.581   3.777  16.781  0.00  0.00    +0.000 A 
ATOM     10  C   UNL     1       3.651   3.140  17.679  0.00  0.00    +0.000 A 
ATOM     11  O   UNL     1       3.617   1.922  17.826  0.00  0.00    +0.000 OA
ATOM     12  N   UNL     1       2.809   4.019  18.401  0.00  0.00    +0.000 N 
ATOM     13  C   UNL     1       2.905   5.464  18.291  0.00  0.00    +0.000 A 
ATOM     14  C   UNL     1       2.056   6.335  18.993  0.00  0.00    +0.000 A 
ATOM     15  H   UNL     1       6.851   4.335  14.634  0.00  0.00    +0.000 HD
ENDROOT
BRANCH   1  21
ATOM     16  C   UNL     1       0.475   9.629  19.176  0.00  0.00    +0.000 A 
ATOM     17  C   UNL     1      -0.345  10.417  20.005  0.00  0.00    +0.000 A 
ATOM     18  C   UNL     1      -0.479  10.146  21.366  0.00  0.00    +0.000 A 
ATOM     19  C   UNL     1       0.264   9.124  21.935  0.00  0.00    +0.000 A 
ATOM     20  C   UNL     1       1.150   8.390  21.145  0.00  0.00    +0.000 A 
ATOM     21  C   UNL     1       1.283   8.614  19.753  0.00  0.00    +0.000 A 
BRANCH  16  22
ATOM     22  N   UNL     1       0.585  10.019  17.825  0.00  0.00    +0.000 N 
ATOM     23  H   UNL     1      -0.150  10.648  17.521  0.00  0.00    +0.000 HD
ATOM     24  H   UNL     1       0.684   9.229  17.194  0.00  0.00    +0.000 HD
ENDBRANCH  16  22
ENDBRANCH   1  21
BRANCH  12  25
ATOM     25  C   UNL     1       1.956   3.360  19.402  0.00  0.00    +0.000 C 
BRANCH  25  26
ATOM     26  C   UNL     1       2.546   3.214  20.813  0.00  0.00    +0.000 C 
ATOM     27  F   UNL     1       3.787   2.686  20.829  0.00  0.00    +0.000 F 
ATOM     28  F   UNL     1       2.583   4.404  21.454  0.00  0.00    +0.000 F 
ATOM     29  F   UNL     1       1.760   2.393  21.557  0.00  0.00    +0.000 F 
ENDBRANCH  25  26
ENDBRANCH  12  25
TORSDOF 4
ENDMDL
MODEL 5
REMARK VINA RESULT:      -8.1      2.245      6.399
REMARK  Name = 
REMARK  4 active torsions:
REMARK  status: ('A' for Active; 'I' for Inactive)
REMARK    1  A    between atoms: N_1  and  C_2
REMARK    2  A    between atoms: C_7  and  C_8
REMARK    3  A    between atoms: N_19  and  C_20
REMARK    4  A    between atoms: C_20  and  C_21
REMARK                            x       y       z     vdW  Elec       q    Type
REMARK                         _______ _______ _______ _____ _____    ______ ____
ROOT
ATOM      1  C   UNL     1       4.670   5.766  16.391  0.00  0.00    +0.000 A 
ATOM      2  C   UNL     1       4.249   7.104  16.404  0.00  0.00    +0.000 A 
ATOM      3  C   UNL     1       3.482   7.608  17.455  0.00  0.00    +0.000 A 
ATOM      4  C   UNL     1       3.055   6.760  18.480  0.00  0.00    +0.000 A 
ATOM      5  C   UNL     1       2.255   7.251  19.578  0.00  0.00    +0.000 A 
ATOM      6  N   UNL     1       1.893   8.520  19.809  0.00  0.00    +0.000 NA
ATOM      7  N   UNL     1       1.167   8.438  20.943  0.00  0.00    +0.000 N 
ATOM      8  C   UNL     1       1.058   7.168  21.427  0.00  0.00    +0.000 A 
ATOM      9  C   UNL     1       1.762   6.377  20.554  0.00  0.00    +0.000 A 
ATOM     10  C   UNL     1       1.993   4.955  20.529  0.00  0.00    +0.000 A 
ATOM     11  O   UNL     1       1.475   4.196  21.343  0.00  0.00    +0.000 OA
ATOM     12  N   UNL     1       2.829   4.496  19.483  0.00  0.00    +0.000 N 
ATOM     13  C   UNL     1       3.374   5.382  18.470  0.00  0.00    +0.000 A 
ATOM     14  C   UNL     1       4.219   4.928  17.443  0.00  0.00    +0.000 A 
ATOM     15  H   UNL     1       0.774   9.292  21.327  0.00  0.00    +0.000 HD
ENDROOT
BRANCH   1  21
ATOM     16  C   UNL     1       6.958   5.434  15.267  0.00  0.00    +0.000 A 
ATOM     17  C   UNL     1       7.700   4.900  14.197  0.00  0.00    +0.000 A 
ATOM     18  C   UNL     1       7.113   4.058  13.254  0.00  0.00    +0.000 A 
ATOM     19  C   UNL     1       5.755   3.795  13.324  0.00  0.00    +0.000 A 
ATOM     20  C   UNL     1       4.986   4.389  14.326  0.00  0.00    +0.000 A 
ATOM     21  C   UNL     1       5.555   5.219  15.322  0.00  0.00    +0.000 A 
BRANCH  16  22
ATOM     22  N   UNL     1       7.631   6.318  16.136  0.00  0.00    +0.000 N 
ATOM     23  H   UNL     1       7.176   7.219  16.234  0.00  0.00    +0.000 HD
ATOM     24  H   UNL     1       8.616   6.419  15.909  0.00  0.00    +0.000 HD
ENDBRANCH  16  22
ENDBRANCH   1  21
BRANCH  12  25
ATOM     25  C   UNL     1       2.951   3.032  19.398  0.00  0.00    +0.000 C 
BRANCH  25  26
ATOM     26  C   UNL     1       1.942   2.313  18.490  0.00  0.00    +0.000 C 
ATOM     27  F   UNL     1       2.494   1.786  17.378  0.00  0.00    +0.000 F 
ATOM     28  F   UNL     1       1.301   1.325  19.155  0.00  0.00    +0.000 F 
ATOM     29  F   UNL     1       0.990   3.189  18.078  0.00  0.00    +0.000 F 
ENDBRANCH  25  26
ENDBRANCH  12  25
TORSDOF 4
ENDMDL
MODEL 6
REMARK VINA RESULT:      -7.8      2.818      6.765
REMARK  Name = 
REMARK  4 active torsions:
REMARK  status: ('A' for Active; 'I' for Inactive)
REMARK    1  A    between atoms: N_1  and  C_2
REMARK    2  A    between atoms: C_7  and  C_8
REMARK    3  A    between atoms: N_19  and  C_20
REMARK    4  A    between atoms: C_20  and  C_21
REMARK                            x       y       z     vdW  Elec       q    Type
REMARK                         _______ _______ _______ _____ _____    ______ ____
ROOT
ATOM      1  C   UNL     1       4.832   5.259  15.811  0.00  0.00    +0.000 A 
ATOM      2  C   UNL     1       4.681   6.619  16.120  0.00  0.00    +0.000 A 
ATOM      3  C   UNL     1       3.982   7.026  17.257  0.00  0.00    +0.000 A 
ATOM      4  C   UNL     1       3.351   6.079  18.067  0.00  0.00    +0.000 A 
ATOM      5  C   UNL     1       2.615   6.472  19.247  0.00  0.00    +0.000 A 
ATOM      6  N   UNL     1       2.500   7.706  19.753  0.00  0.00    +0.000 NA
ATOM      7  N   UNL     1       1.722   7.528  20.841  0.00  0.00    +0.000 N 
ATOM      8  C   UNL     1       1.343   6.231  21.031  0.00  0.00    +0.000 A 
ATOM      9  C   UNL     1       1.917   5.524  20.005  0.00  0.00    +0.000 A 
ATOM     10  C   UNL     1       1.865   4.124  19.665  0.00  0.00    +0.000 A 
ATOM     11  O   UNL     1       1.172   3.327  20.290  0.00  0.00    +0.000 OA
ATOM     12  N   UNL     1       2.640   3.745  18.543  0.00  0.00    +0.000 N 
ATOM     13  C   UNL     1       3.394   4.701  17.752  0.00  0.00    +0.000 A 
ATOM     14  C   UNL     1       4.178   4.321  16.650  0.00  0.00    +0.000 A 
ATOM     15  H   UNL     1       1.487   8.339  21.405  0.00  0.00    +0.000 HD
ENDROOT
BRANCH   1  21
ATOM     16  C   UNL     1       7.037   5.000  14.516  0.00  0.00    +0.000 A 
ATOM     17  C   UNL     1       7.702   4.545  13.361  0.00  0.00    +0.000 A 
ATOM     18  C   UNL     1       7.046   3.782  12.397  0.00  0.00    +0.000 A 
ATOM     19  C   UNL     1       5.692   3.523  12.537  0.00  0.00    +0.000 A 
ATOM     20  C   UNL     1       4.997   4.043  13.630  0.00  0.00    +0.000 A 
ATOM     21  C   UNL     1       5.639   4.790  14.647  0.00  0.00    +0.000 A 
BRANCH  16  22
ATOM     22  N   UNL     1       7.776   5.810  15.404  0.00  0.00    +0.000 N 
ATOM     23  H   UNL     1       8.771   5.615  15.402  0.00  0.00    +0.000 HD
ATOM     24  H   UNL     1       7.396   5.807  16.346  0.00  0.00    +0.000 HD
ENDBRANCH  16  22
ENDBRANCH   1  21
BRANCH  12  25
ATOM     25  C   UNL     1       2.476   2.341  18.136  0.00  0.00    +0.000 C 
BRANCH  25  26
ATOM     26  C   UNL     1       3.628   1.388  18.490  0.00  0.00    +0.000 C 
ATOM     27  F   UNL     1       3.224   0.247  19.086  0.00  0.00    +0.000 F 
ATOM     28  F   UNL     1       4.349   1.061  17.393  0.00  0.00    +0.000 F 
ATOM     29  F   UNL     1       4.482   2.000  19.351  0.00  0.00    +0.000 F 
ENDBRANCH  25  26
ENDBRANCH  12  25
TORSDOF 4
ENDMDL
MODEL 7
REMARK VINA RESULT:      -7.8      2.441      6.533
REMARK  Name = 
REMARK  4 active torsions:
REMARK  status: ('A' for Active; 'I' for Inactive)
REMARK    1  A    between atoms: N_1  and  C_2
REMARK    2  A    between atoms: C_7  and  C_8
REMARK    3  A    between atoms: N_19  and  C_20
REMARK    4  A    between atoms: C_20  and  C_21
REMARK                            x       y       z     vdW  Elec       q    Type
REMARK                         _______ _______ _______ _____ _____    ______ ____
ROOT
ATOM      1  C   UNL     1       4.672   5.667  16.284  0.00  0.00    +0.000 A 
ATOM      2  C   UNL     1       4.277   7.011  16.339  0.00  0.00    +0.000 A 
ATOM      3  C   UNL     1       3.519   7.498  17.405  0.00  0.00    +0.000 A 
ATOM      4  C   UNL     1       3.074   6.627  18.402  0.00  0.00    +0.000 A 
ATOM      5  C   UNL     1       2.283   7.100  19.515  0.00  0.00    +0.000 A 
ATOM      6  N   UNL     1       1.947   8.368  19.785  0.00  0.00    +0.000 NA
ATOM      7  N   UNL     1       1.218   8.265  20.916  0.00  0.00    +0.000 N 
ATOM      8  C   UNL     1       1.083   6.983  21.360  0.00  0.00    +0.000 A 
ATOM      9  C   UNL     1       1.772   6.206  20.463  0.00  0.00    +0.000 A 
ATOM     10  C   UNL     1       1.974   4.780  20.394  0.00  0.00    +0.000 A 
ATOM     11  O   UNL     1       1.440   4.007  21.183  0.00  0.00    +0.000 OA
ATOM     12  N   UNL     1       2.801   4.338  19.334  0.00  0.00    +0.000 N 
ATOM     13  C   UNL     1       3.366   5.244  18.349  0.00  0.00    +0.000 A 
ATOM     14  C   UNL     1       4.202   4.805  17.309  0.00  0.00    +0.000 A 
ATOM     15  H   UNL     1       0.842   9.114  21.327  0.00  0.00    +0.000 HD
ENDROOT
BRANCH   1  21
ATOM     16  C   UNL     1       6.950   5.340  15.141  0.00  0.00    +0.000 A 
ATOM     17  C   UNL     1       7.682   4.822  14.056  0.00  0.00    +0.000 A 
ATOM     18  C   UNL     1       7.084   4.006  13.098  0.00  0.00    +0.000 A 
ATOM     19  C   UNL     1       5.723   3.753  13.170  0.00  0.00    +0.000 A 
ATOM     20  C   UNL     1       4.965   4.332  14.188  0.00  0.00    +0.000 A 
ATOM     21  C   UNL     1       5.546   5.135  15.199  0.00  0.00    +0.000 A 
BRANCH  16  22
ATOM     22  N   UNL     1       7.635   6.198  16.026  0.00  0.00    +0.000 N 
ATOM     23  H   UNL     1       7.032   6.865  16.496  0.00  0.00    +0.000 HD
ATOM     24  H   UNL     1       8.432   6.656  15.592  0.00  0.00    +0.000 HD
ENDBRANCH  16  22
ENDBRANCH   1  21
BRANCH  12  25
ATOM     25  C   UNL     1       2.894   2.875  19.204  0.00  0.00    +0.000 C 
BRANCH  25  26
ATOM     26  C   UNL     1       4.102   2.205  19.876  0.00  0.00    +0.000 C 
ATOM     27  F   UNL     1       3.953   2.029  21.205  0.00  0.00    +0.000 F 
ATOM     28  F   UNL     1       4.370   1.003  19.317  0.00  0.00    +0.000 F 
ATOM     29  F   UNL     1       5.209   2.972  19.703  0.00  0.00    +0.000 F 
ENDBRANCH  25  26
ENDBRANCH  12  25
TORSDOF 4
ENDMDL
MODEL 8
REMARK VINA RESULT:      -7.6      2.990      3.995
REMARK  Name = 
REMARK  4 active torsions:
REMARK  status: ('A' for Active; 'I' for Inactive)
REMARK    1  A    between atoms: N_1  and  C_2
REMARK    2  A    between atoms: C_7  and  C_8
REMARK    3  A    between atoms: N_19  and  C_20
REMARK    4  A    between atoms: C_20  and  C_21
REMARK                            x       y       z     vdW  Elec       q    Type
REMARK                         _______ _______ _______ _____ _____    ______ ____
ROOT
ATOM      1  C   UNL     1       1.734   7.032  19.994  0.00  0.00    +0.000 A 
ATOM      2  C   UNL     1       1.016   5.924  20.467  0.00  0.00    +0.000 A 
ATOM      3  C   UNL     1       1.401   4.623  20.143  0.00  0.00    +0.000 A 
ATOM      4  C   UNL     1       2.471   4.407  19.270  0.00  0.00    +0.000 A 
ATOM      5  C   UNL     1       2.889   3.071  18.911  0.00  0.00    +0.000 A 
ATOM      6  N   UNL     1       2.404   1.918  19.387  0.00  0.00    +0.000 NA
ATOM      7  N   UNL     1       3.127   0.981  18.738  0.00  0.00    +0.000 N 
ATOM      8  C   UNL     1       4.042   1.505  17.873  0.00  0.00    +0.000 A 
ATOM      9  C   UNL     1       3.907   2.867  17.972  0.00  0.00    +0.000 A 
ATOM     10  C   UNL     1       4.585   3.944  17.295  0.00  0.00    +0.000 A 
ATOM     11  O   UNL     1       5.409   3.740  16.408  0.00  0.00    +0.000 OA
ATOM     12  N   UNL     1       4.208   5.246  17.702  0.00  0.00    +0.000 N 
ATOM     13  C   UNL     1       3.173   5.489  18.691  0.00  0.00    +0.000 A 
ATOM     14  C   UNL     1       2.813   6.782  19.108  0.00  0.00    +0.000 A 
ATOM     15  H   UNL     1       2.937   0.003  18.935  0.00  0.00    +0.000 HD
ENDROOT
BRANCH   1  21
ATOM     16  C   UNL     1       1.132   9.473  19.458  0.00  0.00    +0.000 A 
ATOM     17  C   UNL     1       0.851  10.768  19.931  0.00  0.00    +0.000 A 
ATOM     18  C   UNL     1       0.699  11.029  21.291  0.00  0.00    +0.000 A 
ATOM     19  C   UNL     1       0.899  10.010  22.209  0.00  0.00    +0.000 A 
ATOM     20  C   UNL     1       1.268   8.740  21.762  0.00  0.00    +0.000 A 
ATOM     21  C   UNL     1       1.394   8.430  20.386  0.00  0.00    +0.000 A 
BRANCH  16  22
ATOM     22  N   UNL     1       1.320   9.324  18.068  0.00  0.00    +0.000 N 
ATOM     23  H   UNL     1       2.006   8.618  17.822  0.00  0.00    +0.000 HD
ATOM     24  H   UNL     1       1.507  10.206  17.599  0.00  0.00    +0.000 HD
ENDBRANCH  16  22
ENDBRANCH   1  21
BRANCH  12  25
ATOM     25  C   UNL     1       4.817   6.330  16.915  0.00  0.00    +0.000 C 
BRANCH  25  26
ATOM     26  C   UNL     1       6.242   6.744  17.310  0.00  0.00    +0.000 C 
ATOM     27  F   UNL     1       6.427   8.080  17.350  0.00  0.00    +0.000 F 
ATOM     28  F   UNL     1       6.585   6.233  18.514  0.00  0.00    +0.000 F 
ATOM     29  F   UNL     1       7.130   6.251  16.408  0.00  0.00    +0.000 F 
ENDBRANCH  25  26
ENDBRANCH  12  25
TORSDOF 4
ENDMDL
MODEL 9
REMARK VINA RESULT:      -7.4      3.293      7.245
REMARK  Name = 
REMARK  4 active torsions:
REMARK  status: ('A' for Active; 'I' for Inactive)
REMARK    1  A    between atoms: N_1  and  C_2
REMARK    2  A    between atoms: C_7  and  C_8
REMARK    3  A    between atoms: N_19  and  C_20
REMARK    4  A    between atoms: C_20  and  C_21
REMARK                            x       y       z     vdW  Elec       q    Type
REMARK                         _______ _______ _______ _____ _____    ______ ____
ROOT
ATOM      1  C   UNL     1       5.009   4.014  16.053  0.00  0.00    +0.000 A 
ATOM      2  C   UNL     1       4.859   2.727  16.589  0.00  0.00    +0.000 A 
ATOM      3  C   UNL     1       4.037   2.496  17.692  0.00  0.00    +0.000 A 
ATOM      4  C   UNL     1       3.408   3.567  18.332  0.00  0.00    +0.000 A 
ATOM      5  C   UNL     1       2.557   3.360  19.481  0.00  0.00    +0.000 A 
ATOM      6  N   UNL     1       2.200   2.187  20.021  0.00  0.00    +0.000 NA
ATOM      7  N   UNL     1       1.410   2.545  21.054  0.00  0.00    +0.000 N 
ATOM      8  C   UNL     1       1.262   3.895  21.183  0.00  0.00    +0.000 A 
ATOM      9  C   UNL     1       1.999   4.446  20.165  0.00  0.00    +0.000 A 
ATOM     10  C   UNL     1       2.241   5.819  19.798  0.00  0.00    +0.000 A 
ATOM     11  O   UNL     1       1.817   6.757  20.467  0.00  0.00    +0.000 OA
ATOM     12  N   UNL     1       3.026   6.004  18.635  0.00  0.00    +0.000 N 
ATOM     13  C   UNL     1       3.598   4.897  17.890  0.00  0.00    +0.000 A 
ATOM     14  C   UNL     1       4.361   5.082  16.726  0.00  0.00    +0.000 A 
ATOM     15  H   UNL     1       1.008   1.812  21.631  0.00  0.00    +0.000 HD
ENDROOT
BRANCH   1  21
ATOM     16  C   UNL     1       7.006   5.059  14.816  0.00  0.00    +0.000 A 
ATOM     17  C   UNL     1       7.680   5.277  13.599  0.00  0.00    +0.000 A 
ATOM     18  C   UNL     1       7.280   4.644  12.423  0.00  0.00    +0.000 A 
ATOM     19  C   UNL     1       6.153   3.838  12.429  0.00  0.00    +0.000 A 
ATOM     20  C   UNL     1       5.421   3.683  13.607  0.00  0.00    +0.000 A 
ATOM     21  C   UNL     1       5.818   4.280  14.828  0.00  0.00    +0.000 A 
BRANCH  16  22
ATOM     22  N   UNL     1       7.455   5.787  15.937  0.00  0.00    +0.000 N 
ATOM     23  H   UNL     1       8.419   5.597  16.187  0.00  0.00    +0.000 HD
ATOM     24  H   UNL     1       6.837   5.696  16.738  0.00  0.00    +0.000 HD
ENDBRANCH  16  22
ENDBRANCH   1  21
BRANCH  12  25
ATOM     25  C   UNL     1       3.366   7.407  18.347  0.00  0.00    +0.000 C 
BRANCH  25  26
ATOM     26  C   UNL     1       2.205   8.318  17.922  0.00  0.00    +0.000 C 
ATOM     27  F   UNL     1       1.142   7.648  17.432  0.00  0.00    +0.000 F 
ATOM     28  F   UNL     1       1.784   9.088  18.951  0.00  0.00    +0.000 F 
ATOM     29  F   UNL     1       2.620   9.165  16.944  0.00  0.00    +0.000 F 
ENDBRANCH  25  26
ENDBRANCH  12  25
TORSDOF 4
ENDMDL
