MODEL 1
REMARK VINA RESULT:      -7.5      0.000      0.000
REMARK  Name = 
REMARK  7 active torsions:
REMARK  status: ('A' for Active; 'I' for Inactive)
REMARK    1  A    between atoms: C_1  and  O_2
REMARK    2  A    between atoms: O_2  and  C_3
REMARK    3  A    between atoms: C_6  and  C_7
REMARK    4  A    between atoms: C_7  and  C_8
REMARK    5  A    between atoms: C_8  and  N_9
REMARK    6  A    between atoms: C_10  and  C_12
REMARK    7  A    between atoms: N_14  and  C_15
REMARK                            x       y       z     vdW  Elec       q    Type
REMARK                         _______ _______ _______ _____ _____    ______ ____
ROOT
ATOM      1  N   UNL     1       7.086   7.216  16.906  0.00  0.00    +0.000 N 
ATOM      2  C   UNL     1       7.837   7.506  18.025  0.00  0.00    +0.000 C 
ATOM      3  O   UNL     1       8.226   6.715  18.869  0.00  0.00    +0.000 OA
ATOM      4  H   UNL     1       6.824   8.008  16.324  0.00  0.00    +0.000 HD
ENDROOT
BRANCH   2   5
ATOM      5  C   UNL     1       8.185   9.004  18.149  0.00  0.00    +0.000 C 
ATOM      6  O   UNL     1       7.638   9.780  17.373  0.00  0.00    +0.000 OA
ATOM      7  N   UNL     1       9.124   9.272  19.124  0.00  0.00    +0.000 N 
ATOM      8  H   UNL     1       9.513   8.454  19.588  0.00  0.00    +0.000 HD
BRANCH   7   9
ATOM      9  C   UNL     1       9.620  10.544  19.472  0.00  0.00    +0.000 A 
ATOM     10  C   UNL     1       9.407  11.122  20.728  0.00  0.00    +0.000 A 
ATOM     11  C   UNL     1       9.910  12.390  21.027  0.00  0.00    +0.000 A 
ATOM     12  C   UNL     1      10.628  13.093  20.066  0.00  0.00    +0.000 A 
ATOM     13 CL   UNL     1      11.236  14.659  20.433  0.00  0.00    +0.000 Cl
ATOM     14  C   UNL     1      10.857  12.530  18.812  0.00  0.00    +0.000 A 
ATOM     15  C   UNL     1      10.364  11.252  18.520  0.00  0.00    +0.000 A 
ENDBRANCH   7   9
ENDBRANCH   2   5
BRANCH   1  16
ATOM     16  C   UNL     1       6.619   5.880  16.611  0.00  0.00    +0.000 C 
BRANCH  16  17
ATOM     17  C   UNL     1       5.173   5.864  16.111  0.00  0.00    +0.000 C 
BRANCH  17  21
ATOM     18  C   UNL     1       2.592   3.387  18.542  0.00  0.00    +0.000 A 
ATOM     19  C   UNL     1       3.597   2.811  17.763  0.00  0.00    +0.000 A 
ATOM     20  C   UNL     1       4.444   3.609  16.989  0.00  0.00    +0.000 A 
ATOM     21  C   UNL     1       4.285   5.001  16.972  0.00  0.00    +0.000 A 
ATOM     22  C   UNL     1       3.263   5.573  17.740  0.00  0.00    +0.000 A 
ATOM     23  C   UNL     1       2.422   4.771  18.521  0.00  0.00    +0.000 A 
BRANCH  18  25
ATOM     24  C   UNL     1       1.658   2.774  20.627  0.00  0.00    +0.000 C 
ATOM     25  O   UNL     1       1.815   2.503  19.239  0.00  0.00    +0.000 OA
ENDBRANCH  18  25
ENDBRANCH  17  21
ENDBRANCH  16  17
ENDBRANCH   1  16
TORSDOF 6
ENDMDL
MODEL 2
REMARK VINA RESULT:      -7.5      1.511      2.087
REMARK  Name = 
REMARK  7 active torsions:
REMARK  status: ('A' for Active; 'I' for Inactive)
REMARK    1  A    between atoms: C_1  and  O_2
REMARK    2  A    between atoms: O_2  and  C_3
REMARK    3  A    between atoms: C_6  and  C_7
REMARK    4  A    between atoms: C_7  and  C_8
REMARK    5  A    between atoms: C_8  and  N_9
REMARK    6  A    between atoms: C_10  and  C_12
REMARK    7  A    between atoms: N_14  and  C_15
REMARK                            x       y       z     vdW  Elec       q    Type
REMARK                         _______ _______ _______ _____ _____    ______ ____
ROOT
ATOM      1  N   UNL     1       5.728   7.413  17.661  0.00  0.00    +0.000 N 
ATOM      2  C   UNL     1       7.027   7.123  17.306  0.00  0.00    +0.000 C 
ATOM      3  O   UNL     1       7.391   6.351  16.433  0.00  0.00    +0.000 OA
ATOM      4  H   UNL     1       5.608   8.061  18.436  0.00  0.00    +0.000 HD
ENDROOT
BRANCH   2   5
ATOM      5  C   UNL     1       8.070   7.896  18.139  0.00  0.00    +0.000 C 
ATOM      6  O   UNL     1       8.679   7.276  19.003  0.00  0.00    +0.000 OA
ATOM      7  N   UNL     1       8.152   9.235  17.813  0.00  0.00    +0.000 N 
ATOM      8  H   UNL     1       7.479   9.554  17.120  0.00  0.00    +0.000 HD
BRANCH   7   9
ATOM      9  C   UNL     1       9.023  10.179  18.392  0.00  0.00    +0.000 A 
ATOM     10  C   UNL     1       9.124  10.369  19.774  0.00  0.00    +0.000 A 
ATOM     11  C   UNL     1       9.996  11.323  20.304  0.00  0.00    +0.000 A 
ATOM     12  C   UNL     1      10.772  12.099  19.450  0.00  0.00    +0.000 A 
ATOM     13 CL   UNL     1      11.836  13.282  20.104  0.00  0.00    +0.000 Cl
ATOM     14  C   UNL     1      10.691  11.918  18.071  0.00  0.00    +0.000 A 
ATOM     15  C   UNL     1       9.827  10.950  17.543  0.00  0.00    +0.000 A 
ENDBRANCH   7   9
ENDBRANCH   2   5
BRANCH   1  16
ATOM     16  C   UNL     1       4.592   6.775  17.033  0.00  0.00    +0.000 C 
BRANCH  16  17
ATOM     17  C   UNL     1       3.262   7.213  17.649  0.00  0.00    +0.000 C 
BRANCH  17  21
ATOM     18  C   UNL     1       1.397   3.980  19.835  0.00  0.00    +0.000 A 
ATOM     19  C   UNL     1       1.795   5.144  20.495  0.00  0.00    +0.000 A 
ATOM     20  C   UNL     1       2.383   6.198  19.790  0.00  0.00    +0.000 A 
ATOM     21  C   UNL     1       2.595   6.094  18.409  0.00  0.00    +0.000 A 
ATOM     22  C   UNL     1       2.211   4.917  17.755  0.00  0.00    +0.000 A 
ATOM     23  C   UNL     1       1.615   3.867  18.463  0.00  0.00    +0.000 A 
BRANCH  18  25
ATOM     24  C   UNL     1       1.663   2.580  21.723  0.00  0.00    +0.000 C 
ATOM     25  O   UNL     1       0.854   3.012  20.635  0.00  0.00    +0.000 OA
ENDBRANCH  18  25
ENDBRANCH  17  21
ENDBRANCH  16  17
ENDBRANCH   1  16
TORSDOF 6
ENDMDL
MODEL 3
REMARK VINA RESULT:      -7.4      3.926     10.104
REMARK  Name = 
REMARK  7 active torsions:
REMARK  status: ('A' for Active; 'I' for Inactive)
REMARK    1  A    between atoms: C_1  and  O_2
REMARK    2  A    between atoms: O_2  and  C_3
REMARK    3  A    between atoms: C_6  and  C_7
REMARK    4  A    between atoms: C_7  and  C_8
REMARK    5  A    between atoms: C_8  and  N_9
REMARK    6  A    between atoms: C_10  and  C_12
REMARK    7  A    between atoms: N_14  and  C_15
REMARK                            x       y       z     vdW  Elec       q    Type
REMARK                         _______ _______ _______ _____ _____    ______ ____
ROOT
ATOM      1  N   UNL     1       7.662   7.870  18.414  0.00  0.00    +0.000 N 
ATOM      2  C   UNL     1       7.338   6.912  17.479  0.00  0.00    +0.000 C 
ATOM      3  O   UNL     1       7.731   6.854  16.325  0.00  0.00    +0.000 OA
ATOM      4  H   UNL     1       7.216   7.779  19.324  0.00  0.00    +0.000 HD
ENDROOT
BRANCH   2   5
ATOM      5  C   UNL     1       6.380   5.833  18.025  0.00  0.00    +0.000 C 
ATOM      6  O   UNL     1       6.793   5.111  18.926  0.00  0.00    +0.000 OA
ATOM      7  N   UNL     1       5.160   5.802  17.381  0.00  0.00    +0.000 N 
ATOM      8  H   UNL     1       5.069   6.441  16.594  0.00  0.00    +0.000 HD
BRANCH   7   9
ATOM      9  C   UNL     1       4.086   4.939  17.676  0.00  0.00    +0.000 A 
ATOM     10  C   UNL     1       4.021   3.624  17.206  0.00  0.00    +0.000 A 
ATOM     11  C   UNL     1       2.932   2.805  17.516  0.00  0.00    +0.000 A 
ATOM     12  C   UNL     1       1.895   3.302  18.297  0.00  0.00    +0.000 A 
ATOM     13 CL   UNL     1       0.550   2.297  18.668  0.00  0.00    +0.000 Cl
ATOM     14  C   UNL     1       1.946   4.607  18.782  0.00  0.00    +0.000 A 
ATOM     15  C   UNL     1       3.047   5.421  18.482  0.00  0.00    +0.000 A 
ENDBRANCH   7   9
ENDBRANCH   2   5
BRANCH   1  16
ATOM     16  C   UNL     1       8.519   8.994  18.107  0.00  0.00    +0.000 C 
BRANCH  16  17
ATOM     17  C   UNL     1       9.142   9.614  19.360  0.00  0.00    +0.000 C 
BRANCH  17  21
ATOM     18  C   UNL     1      11.071  13.389  18.506  0.00  0.00    +0.000 A 
ATOM     19  C   UNL     1      11.000  12.911  19.815  0.00  0.00    +0.000 A 
ATOM     20  C   UNL     1      10.392  11.684  20.093  0.00  0.00    +0.000 A 
ATOM     21  C   UNL     1       9.831  10.922  19.061  0.00  0.00    +0.000 A 
ATOM     22  C   UNL     1       9.889  11.414  17.751  0.00  0.00    +0.000 A 
ATOM     23  C   UNL     1      10.506  12.640  17.475  0.00  0.00    +0.000 A 
BRANCH  18  25
ATOM     24  C   UNL     1      10.800  15.701  18.083  0.00  0.00    +0.000 C 
ATOM     25  O   UNL     1      11.671  14.611  18.362  0.00  0.00    +0.000 OA
ENDBRANCH  18  25
ENDBRANCH  17  21
ENDBRANCH  16  17
ENDBRANCH   1  16
TORSDOF 6
ENDMDL
MODEL 4
REMARK VINA RESULT:      -7.4      3.962      9.984
REMARK  Name = 
REMARK  7 active torsions:
REMARK  status: ('A' for Active; 'I' for Inactive)
REMARK    1  A    between atoms: C_1  and  O_2
REMARK    2  A    between atoms: O_2  and  C_3
REMARK    3  A    between atoms: C_6  and  C_7
REMARK    4  A    between atoms: C_7  and  C_8
REMARK    5  A    between atoms: C_8  and  N_9
REMARK    6  A    between atoms: C_10  and  C_12
REMARK    7  A    between atoms: N_14  and  C_15
REMARK                            x       y       z     vdW  Elec       q    Type
REMARK                         _______ _______ _______ _____ _____    ______ ____
ROOT
ATOM      1  N   UNL     1       7.438   7.677  18.222  0.00  0.00    +0.000 N 
ATOM      2  C   UNL     1       7.209   6.652  17.330  0.00  0.00    +0.000 C 
ATOM      3  O   UNL     1       7.667   6.547  16.203  0.00  0.00    +0.000 OA
ATOM      4  H   UNL     1       6.947   7.616  19.111  0.00  0.00    +0.000 HD
ENDROOT
BRANCH   2   5
ATOM      5  C   UNL     1       6.272   5.561  17.889  0.00  0.00    +0.000 C 
ATOM      6  O   UNL     1       6.719   4.820  18.757  0.00  0.00    +0.000 OA
ATOM      7  N   UNL     1       5.029   5.544  17.291  0.00  0.00    +0.000 N 
ATOM      8  H   UNL     1       4.909   6.199  16.522  0.00  0.00    +0.000 HD
BRANCH   7   9
ATOM      9  C   UNL     1       3.967   4.673  17.607  0.00  0.00    +0.000 A 
ATOM     10  C   UNL     1       4.056   3.286  17.462  0.00  0.00    +0.000 A 
ATOM     11  C   UNL     1       2.974   2.461  17.780  0.00  0.00    +0.000 A 
ATOM     12  C   UNL     1       1.790   3.024  18.243  0.00  0.00    +0.000 A 
ATOM     13 CL   UNL     1       0.455   2.008  18.623  0.00  0.00    +0.000 Cl
ATOM     14  C   UNL     1       1.685   4.404  18.402  0.00  0.00    +0.000 A 
ATOM     15  C   UNL     1       2.777   5.227  18.096  0.00  0.00    +0.000 A 
ENDBRANCH   7   9
ENDBRANCH   2   5
BRANCH   1  16
ATOM     16  C   UNL     1       8.258   8.822  17.894  0.00  0.00    +0.000 C 
BRANCH  16  17
ATOM     17  C   UNL     1       9.131   9.271  19.067  0.00  0.00    +0.000 C 
BRANCH  17  21
ATOM     18  C   UNL     1       9.997  13.507  18.960  0.00  0.00    +0.000 A 
ATOM     19  C   UNL     1      10.021  12.750  17.787  0.00  0.00    +0.000 A 
ATOM     20  C   UNL     1       9.725  11.384  17.815  0.00  0.00    +0.000 A 
ATOM     21  C   UNL     1       9.415  10.752  19.026  0.00  0.00    +0.000 A 
ATOM     22  C   UNL     1       9.411  11.512  20.202  0.00  0.00    +0.000 A 
ATOM     23  C   UNL     1       9.700  12.881  20.170  0.00  0.00    +0.000 A 
BRANCH  18  25
ATOM     24  C   UNL     1      10.601  15.251  17.478  0.00  0.00    +0.000 C 
ATOM     25  O   UNL     1      10.325  14.827  18.809  0.00  0.00    +0.000 OA
ENDBRANCH  18  25
ENDBRANCH  17  21
ENDBRANCH  16  17
ENDBRANCH   1  16
TORSDOF 6
ENDMDL
MODEL 5
REMARK VINA RESULT:      -7.3      3.930      9.514
REMARK  Name = 
REMARK  7 active torsions:
REMARK  status: ('A' for Active; 'I' for Inactive)
REMARK    1  A    between atoms: C_1  and  O_2
REMARK    2  A    between atoms: O_2  and  C_3
REMARK    3  A    between atoms: C_6  and  C_7
REMARK    4  A    between atoms: C_7  and  C_8
REMARK    5  A    between atoms: C_8  and  N_9
REMARK    6  A    between atoms: C_10  and  C_12
REMARK    7  A    between atoms: N_14  and  C_15
REMARK                            x       y       z     vdW  Elec       q    Type
REMARK                         _______ _______ _______ _____ _____    ______ ____
ROOT
ATOM      1  N   UNL     1       7.068   7.558  17.886  0.00  0.00    +0.000 N 
ATOM      2  C   UNL     1       6.947   6.502  17.009  0.00  0.00    +0.000 C 
ATOM      3  O   UNL     1       7.594   6.320  15.991  0.00  0.00    +0.000 OA
ATOM      4  H   UNL     1       6.422   7.565  18.672  0.00  0.00    +0.000 HD
ENDROOT
BRANCH   2   5
ATOM      5  C   UNL     1       5.865   5.486  17.430  0.00  0.00    +0.000 C 
ATOM      6  O   UNL     1       5.531   4.640  16.609  0.00  0.00    +0.000 OA
ATOM      7  N   UNL     1       5.378   5.697  18.704  0.00  0.00    +0.000 N 
ATOM      8  H   UNL     1       5.740   6.522  19.175  0.00  0.00    +0.000 HD
BRANCH   7   9
ATOM      9  C   UNL     1       4.402   4.920  19.359  0.00  0.00    +0.000 A 
ATOM     10  C   UNL     1       4.514   3.535  19.512  0.00  0.00    +0.000 A 
ATOM     11  C   UNL     1       3.516   2.803  20.162  0.00  0.00    +0.000 A 
ATOM     12  C   UNL     1       2.395   3.456  20.660  0.00  0.00    +0.000 A 
ATOM     13 CL   UNL     1       1.162   2.552  21.449  0.00  0.00    +0.000 Cl
ATOM     14  C   UNL     1       2.269   4.836  20.524  0.00  0.00    +0.000 A 
ATOM     15  C   UNL     1       3.278   5.570  19.885  0.00  0.00    +0.000 A 
ENDBRANCH   7   9
ENDBRANCH   2   5
BRANCH   1  16
ATOM     16  C   UNL     1       7.997   8.644  17.668  0.00  0.00    +0.000 C 
BRANCH  16  17
ATOM     17  C   UNL     1       8.874   8.918  18.891  0.00  0.00    +0.000 C 
BRANCH  17  21
ATOM     18  C   UNL     1       9.804  13.124  19.274  0.00  0.00    +0.000 A 
ATOM     19  C   UNL     1       9.669  12.323  20.409  0.00  0.00    +0.000 A 
ATOM     20  C   UNL     1       9.385  10.960  20.289  0.00  0.00    +0.000 A 
ATOM     21  C   UNL     1       9.217  10.381  19.025  0.00  0.00    +0.000 A 
ATOM     22  C   UNL     1       9.335  11.193  17.890  0.00  0.00    +0.000 A 
ATOM     23  C   UNL     1       9.628  12.556  18.013  0.00  0.00    +0.000 A 
BRANCH  18  25
ATOM     24  C   UNL     1       9.533  15.368  18.573  0.00  0.00    +0.000 C 
ATOM     25  O   UNL     1      10.062  14.446  19.520  0.00  0.00    +0.000 OA
ENDBRANCH  18  25
ENDBRANCH  17  21
ENDBRANCH  16  17
ENDBRANCH   1  16
TORSDOF 6
ENDMDL
MODEL 6
REMARK VINA RESULT:      -7.3      0.741      1.492
REMARK  Name = 
REMARK  7 active torsions:
REMARK  status: ('A' for Active; 'I' for Inactive)
REMARK    1  A    between atoms: C_1  and  O_2
REMARK    2  A    between atoms: O_2  and  C_3
REMARK    3  A    between atoms: C_6  and  C_7
REMARK    4  A    between atoms: C_7  and  C_8
REMARK    5  A    between atoms: C_8  and  N_9
REMARK    6  A    between atoms: C_10  and  C_12
REMARK    7  A    between atoms: N_14  and  C_15
REMARK                            x       y       z     vdW  Elec       q    Type
REMARK                         _______ _______ _______ _____ _____    ______ ____
ROOT
ATOM      1  N   UNL     1       7.301   7.299  16.791  0.00  0.00    +0.000 N 
ATOM      2  C   UNL     1       7.933   7.589  17.980  0.00  0.00    +0.000 C 
ATOM      3  O   UNL     1       8.243   6.797  18.855  0.00  0.00    +0.000 OA
ATOM      4  H   UNL     1       7.090   8.093  16.189  0.00  0.00    +0.000 HD
ENDROOT
BRANCH   2   5
ATOM      5  C   UNL     1       8.252   9.089  18.147  0.00  0.00    +0.000 C 
ATOM      6  O   UNL     1       7.715   9.873  17.372  0.00  0.00    +0.000 OA
ATOM      7  N   UNL     1       9.156   9.351  19.156  0.00  0.00    +0.000 N 
ATOM      8  H   UNL     1       9.544   8.530  19.614  0.00  0.00    +0.000 HD
BRANCH   7   9
ATOM      9  C   UNL     1       9.620  10.623  19.546  0.00  0.00    +0.000 A 
ATOM     10  C   UNL     1      10.447  11.409  18.738  0.00  0.00    +0.000 A 
ATOM     11  C   UNL     1      10.889  12.662  19.171  0.00  0.00    +0.000 A 
ATOM     12  C   UNL     1      10.509  13.135  20.421  0.00  0.00    +0.000 A 
ATOM     13 CL   UNL     1      11.065  14.672  20.956  0.00  0.00    +0.000 Cl
ATOM     14  C   UNL     1       9.678  12.370  21.237  0.00  0.00    +0.000 A 
ATOM     15  C   UNL     1       9.224  11.120  20.795  0.00  0.00    +0.000 A 
ENDBRANCH   7   9
ENDBRANCH   2   5
BRANCH   1  16
ATOM     16  C   UNL     1       6.879   5.961  16.443  0.00  0.00    +0.000 C 
BRANCH  16  17
ATOM     17  C   UNL     1       5.392   5.891  16.087  0.00  0.00    +0.000 C 
BRANCH  17  21
ATOM     18  C   UNL     1       3.091   4.076  19.268  0.00  0.00    +0.000 A 
ATOM     19  C   UNL     1       3.797   5.259  19.492  0.00  0.00    +0.000 A 
ATOM     20  C   UNL     1       4.528   5.858  18.462  0.00  0.00    +0.000 A 
ATOM     21  C   UNL     1       4.575   5.269  17.193  0.00  0.00    +0.000 A 
ATOM     22  C   UNL     1       3.882   4.071  16.979  0.00  0.00    +0.000 A 
ATOM     23  C   UNL     1       3.143   3.479  18.010  0.00  0.00    +0.000 A 
BRANCH  18  25
ATOM     24  C   UNL     1       1.036   3.354  20.190  0.00  0.00    +0.000 C 
ATOM     25  O   UNL     1       2.431   3.575  20.357  0.00  0.00    +0.000 OA
ENDBRANCH  18  25
ENDBRANCH  17  21
ENDBRANCH  16  17
ENDBRANCH   1  16
TORSDOF 6
ENDMDL
MODEL 7
REMARK VINA RESULT:      -7.3      0.480      1.086
REMARK  Name = 
REMARK  7 active torsions:
REMARK  status: ('A' for Active; 'I' for Inactive)
REMARK    1  A    between atoms: C_1  and  O_2
REMARK    2  A    between atoms: O_2  and  C_3
REMARK    3  A    between atoms: C_6  and  C_7
REMARK    4  A    between atoms: C_7  and  C_8
REMARK    5  A    between atoms: C_8  and  N_9
REMARK    6  A    between atoms: C_10  and  C_12
REMARK    7  A    between atoms: N_14  and  C_15
REMARK                            x       y       z     vdW  Elec       q    Type
REMARK                         _______ _______ _______ _____ _____    ______ ____
ROOT
ATOM      1  N   UNL     1       7.015   7.390  16.929  0.00  0.00    +0.000 N 
ATOM      2  C   UNL     1       7.857   7.643  17.990  0.00  0.00    +0.000 C 
ATOM      3  O   UNL     1       8.322   6.824  18.765  0.00  0.00    +0.000 OA
ATOM      4  H   UNL     1       6.698   8.201  16.404  0.00  0.00    +0.000 HD
ENDROOT
BRANCH   2   5
ATOM      5  C   UNL     1       8.204   9.138  18.143  0.00  0.00    +0.000 C 
ATOM      6  O   UNL     1       7.655   9.929  17.385  0.00  0.00    +0.000 OA
ATOM      7  N   UNL     1       9.144   9.388  19.122  0.00  0.00    +0.000 N 
ATOM      8  H   UNL     1       9.534   8.561  19.569  0.00  0.00    +0.000 HD
BRANCH   7   9
ATOM      9  C   UNL     1       9.640  10.653  19.496  0.00  0.00    +0.000 A 
ATOM     10  C   UNL     1       9.396  11.221  20.750  0.00  0.00    +0.000 A 
ATOM     11  C   UNL     1       9.900  12.483  21.074  0.00  0.00    +0.000 A 
ATOM     12  C   UNL     1      10.649  13.188  20.140  0.00  0.00    +0.000 A 
ATOM     13 CL   UNL     1      11.259  14.747  20.537  0.00  0.00    +0.000 Cl
ATOM     14  C   UNL     1      10.910  12.635  18.888  0.00  0.00    +0.000 A 
ATOM     15  C   UNL     1      10.416  11.363  18.570  0.00  0.00    +0.000 A 
ENDBRANCH   7   9
ENDBRANCH   2   5
BRANCH   1  16
ATOM     16  C   UNL     1       6.533   6.061  16.622  0.00  0.00    +0.000 C 
BRANCH  16  17
ATOM     17  C   UNL     1       5.047   6.048  16.259  0.00  0.00    +0.000 C 
BRANCH  17  21
ATOM     18  C   UNL     1       2.740   3.768  19.120  0.00  0.00    +0.000 A 
ATOM     19  C   UNL     1       2.302   5.025  18.700  0.00  0.00    +0.000 A 
ATOM     20  C   UNL     1       3.036   5.758  17.763  0.00  0.00    +0.000 A 
ATOM     21  C   UNL     1       4.232   5.246  17.243  0.00  0.00    +0.000 A 
ATOM     22  C   UNL     1       4.676   3.993  17.682  0.00  0.00    +0.000 A 
ATOM     23  C   UNL     1       3.935   3.257  18.614  0.00  0.00    +0.000 A 
BRANCH  18  25
ATOM     24  C   UNL     1       2.602   2.749  21.251  0.00  0.00    +0.000 C 
ATOM     25  O   UNL     1       1.948   3.157  20.054  0.00  0.00    +0.000 OA
ENDBRANCH  18  25
ENDBRANCH  17  21
ENDBRANCH  16  17
ENDBRANCH   1  16
TORSDOF 6
ENDMDL
MODEL 8
REMARK VINA RESULT:      -7.3      4.002      9.845
REMARK  Name = 
REMARK  7 active torsions:
REMARK  status: ('A' for Active; 'I' for Inactive)
REMARK    1  A    between atoms: C_1  and  O_2
REMARK    2  A    between atoms: O_2  and  C_3
REMARK    3  A    between atoms: C_6  and  C_7
REMARK    4  A    between atoms: C_7  and  C_8
REMARK    5  A    between atoms: C_8  and  N_9
REMARK    6  A    between atoms: C_10  and  C_12
REMARK    7  A    between atoms: N_14  and  C_15
REMARK                            x       y       z     vdW  Elec       q    Type
REMARK                         _______ _______ _______ _____ _____    ______ ____
ROOT
ATOM      1  N   UNL     1       7.129   8.248  17.800  0.00  0.00    +0.000 N 
ATOM      2  C   UNL     1       6.882   7.070  17.128  0.00  0.00    +0.000 C 
ATOM      3  O   UNL     1       7.600   6.540  16.295  0.00  0.00    +0.000 OA
ATOM      4  H   UNL     1       6.402   8.560  18.440  0.00  0.00    +0.000 HD
ENDROOT
BRANCH   2   5
ATOM      5  C   UNL     1       5.544   6.414  17.527  0.00  0.00    +0.000 C 
ATOM      6  O   UNL     1       4.560   6.669  16.842  0.00  0.00    +0.000 OA
ATOM      7  N   UNL     1       5.632   5.631  18.660  0.00  0.00    +0.000 N 
ATOM      8  H   UNL     1       6.538   5.637  19.122  0.00  0.00    +0.000 HD
BRANCH   7   9
ATOM      9  C   UNL     1       4.581   4.899  19.247  0.00  0.00    +0.000 A 
ATOM     10  C   UNL     1       4.589   3.504  19.340  0.00  0.00    +0.000 A 
ATOM     11  C   UNL     1       3.520   2.818  19.923  0.00  0.00    +0.000 A 
ATOM     12  C   UNL     1       2.431   3.527  20.414  0.00  0.00    +0.000 A 
ATOM     13 CL   UNL     1       1.111   2.681  21.120  0.00  0.00    +0.000 Cl
ATOM     14  C   UNL     1       2.408   4.918  20.338  0.00  0.00    +0.000 A 
ATOM     15  C   UNL     1       3.487   5.605  19.766  0.00  0.00    +0.000 A 
ENDBRANCH   7   9
ENDBRANCH   2   5
BRANCH   1  16
ATOM     16  C   UNL     1       8.309   9.047  17.555  0.00  0.00    +0.000 C 
BRANCH  16  17
ATOM     17  C   UNL     1       8.737   9.849  18.786  0.00  0.00    +0.000 C 
BRANCH  17  21
ATOM     18  C   UNL     1      11.086  13.305  17.672  0.00  0.00    +0.000 A 
ATOM     19  C   UNL     1       9.692  13.358  17.643  0.00  0.00    +0.000 A 
ATOM     20  C   UNL     1       8.929  12.249  18.018  0.00  0.00    +0.000 A 
ATOM     21  C   UNL     1       9.555  11.061  18.415  0.00  0.00    +0.000 A 
ATOM     22  C   UNL     1      10.954  11.006  18.424  0.00  0.00    +0.000 A 
ATOM     23  C   UNL     1      11.716  12.122  18.056  0.00  0.00    +0.000 A 
BRANCH  18  25
ATOM     24  C   UNL     1      10.879  15.511  16.842  0.00  0.00    +0.000 C 
ATOM     25  O   UNL     1      11.723  14.445  17.263  0.00  0.00    +0.000 OA
ENDBRANCH  18  25
ENDBRANCH  17  21
ENDBRANCH  16  17
ENDBRANCH   1  16
TORSDOF 6
ENDMDL
MODEL 9
REMARK VINA RESULT:      -7.2      3.995     10.031
REMARK  Name = 
REMARK  7 active torsions:
REMARK  status: ('A' for Active; 'I' for Inactive)
REMARK    1  A    between atoms: C_1  and  O_2
REMARK    2  A    between atoms: O_2  and  C_3
REMARK    3  A    between atoms: C_6  and  C_7
REMARK    4  A    between atoms: C_7  and  C_8
REMARK    5  A    between atoms: C_8  and  N_9
REMARK    6  A    between atoms: C_10  and  C_12
REMARK    7  A    between atoms: N_14  and  C_15
REMARK                            x       y       z     vdW  Elec       q    Type
REMARK                         _______ _______ _______ _____ _____    ______ ____
ROOT
ATOM      1  N   UNL     1       7.001   8.494  17.678  0.00  0.00    +0.000 N 
ATOM      2  C   UNL     1       6.890   7.219  17.169  0.00  0.00    +0.000 C 
ATOM      3  O   UNL     1       7.782   6.549  16.673  0.00  0.00    +0.000 OA
ATOM      4  H   UNL     1       6.142   8.915  18.027  0.00  0.00    +0.000 HD
ENDROOT
BRANCH   2   5
ATOM      5  C   UNL     1       5.462   6.644  17.280  0.00  0.00    +0.000 C 
ATOM      6  O   UNL     1       4.538   7.340  16.872  0.00  0.00    +0.000 OA
ATOM      7  N   UNL     1       5.413   5.400  17.875  0.00  0.00    +0.000 N 
ATOM      8  H   UNL     1       6.303   5.050  18.221  0.00  0.00    +0.000 HD
BRANCH   7   9
ATOM      9  C   UNL     1       4.255   4.628  18.093  0.00  0.00    +0.000 A 
ATOM     10  C   UNL     1       3.792   3.681  17.174  0.00  0.00    +0.000 A 
ATOM     11  C   UNL     1       2.633   2.944  17.428  0.00  0.00    +0.000 A 
ATOM     12  C   UNL     1       1.924   3.155  18.605  0.00  0.00    +0.000 A 
ATOM     13 CL   UNL     1       0.491   2.255  18.910  0.00  0.00    +0.000 Cl
ATOM     14  C   UNL     1       2.374   4.089  19.536  0.00  0.00    +0.000 A 
ATOM     15  C   UNL     1       3.545   4.816  19.286  0.00  0.00    +0.000 A 
ENDBRANCH   7   9
ENDBRANCH   2   5
BRANCH   1  16
ATOM     16  C   UNL     1       8.241   9.237  17.645  0.00  0.00    +0.000 C 
BRANCH  16  17
ATOM     17  C   UNL     1       8.856   9.408  19.036  0.00  0.00    +0.000 C 
BRANCH  17  21
ATOM     18  C   UNL     1      11.206  13.028  19.313  0.00  0.00    +0.000 A 
ATOM     19  C   UNL     1      10.744  12.395  20.467  0.00  0.00    +0.000 A 
ATOM     20  C   UNL     1       9.998  11.215  20.383  0.00  0.00    +0.000 A 
ATOM     21  C   UNL     1       9.692  10.661  19.134  0.00  0.00    +0.000 A 
ATOM     22  C   UNL     1      10.141  11.310  17.978  0.00  0.00    +0.000 A 
ATOM     23  C   UNL     1      10.895  12.486  18.066  0.00  0.00    +0.000 A 
BRANCH  18  25
ATOM     24  C   UNL     1      11.743  15.198  18.536  0.00  0.00    +0.000 C 
ATOM     25  O   UNL     1      11.906  14.185  19.522  0.00  0.00    +0.000 OA
ENDBRANCH  18  25
ENDBRANCH  17  21
ENDBRANCH  16  17
ENDBRANCH   1  16
TORSDOF 6
ENDMDL
