MODEL 1
REMARK VINA RESULT:      -7.2      0.000      0.000
REMARK  Name = 
REMARK  6 active torsions:
REMARK  status: ('A' for Active; 'I' for Inactive)
REMARK    1  A    between atoms: C_1  and  O_2
REMARK    2  A    between atoms: O_2  and  C_3
REMARK    3  A    between atoms: C_3  and  C_5
REMARK    4  A    between atoms: C_6  and  C_7
REMARK    5  A    between atoms: C_12  and  C_13
REMARK    6  A    between atoms: N_20  and  C_21
REMARK                            x       y       z     vdW  Elec       q    Type
REMARK                         _______ _______ _______ _____ _____    ______ ____
ROOT
ATOM      1  C   UNL     1       4.427   4.287  19.246  0.00  0.00    +0.000 C 
ATOM      2  C   UNL     1       3.408   5.235  20.037  0.00  0.00    +0.000 C 
ATOM      3  C   UNL     1       2.078   4.468  20.329  0.00  0.00    +0.000 C 
ATOM      4  C   UNL     1       1.609   3.543  19.167  0.00  0.00    +0.000 C 
ATOM      5  C   UNL     1       1.391   4.112  17.733  0.00  0.00    +0.000 C 
ATOM      6  C   UNL     1       2.704   3.726  16.990  0.00  0.00    +0.000 C 
ATOM      7  C   UNL     1       3.694   3.383  18.141  0.00  0.00    +0.000 C 
ATOM      8  N   UNL     1       2.734   2.650  19.030  0.00  0.00    +0.000 NA
ATOM      9  C   UNL     1       2.326   1.269  18.702  0.00  0.00    +0.000 C 
ENDROOT
BRANCH   2  10
ATOM     10  C   UNL     1       2.941   6.596  19.488  0.00  0.00    +0.000 A 
ATOM     11  C   UNL     1       3.181   7.118  18.201  0.00  0.00    +0.000 A 
ATOM     12  C   UNL     1       2.506   8.266  17.772  0.00  0.00    +0.000 A 
ATOM     13  C   UNL     1       1.621   8.942  18.623  0.00  0.00    +0.000 A 
ATOM     14 CL   UNL     1       0.761  10.342  17.992  0.00  0.00    +0.000 Cl
ATOM     15  C   UNL     1       1.430   8.477  19.938  0.00  0.00    +0.000 A 
ATOM     16  C   UNL     1       0.519   9.146  20.932  0.00  0.00    +0.000 C 
ATOM     17  C   UNL     1       2.088   7.319  20.346  0.00  0.00    +0.000 A 
ENDBRANCH   2  10
BRANCH   1  18
ATOM     18  C   UNL     1       5.705   5.061  18.886  0.00  0.00    +0.000 C 
ATOM     19  O   UNL     1       6.447   5.413  19.798  0.00  0.00    +0.000 OA
BRANCH  18  21
ATOM     20  C   UNL     1       6.999   4.703  16.890  0.00  0.00    +0.000 C 
ATOM     21  O   UNL     1       6.014   5.367  17.603  0.00  0.00    +0.000 OA
ENDBRANCH  18  21
ENDBRANCH   1  18
TORSDOF 3
ENDMDL
MODEL 2
REMARK VINA RESULT:      -7.0      0.988      1.228
REMARK  Name = 
REMARK  6 active torsions:
REMARK  status: ('A' for Active; 'I' for Inactive)
REMARK    1  A    between atoms: C_1  and  O_2
REMARK    2  A    between atoms: O_2  and  C_3
REMARK    3  A    between atoms: C_3  and  C_5
REMARK    4  A    between atoms: C_6  and  C_7
REMARK    5  A    between atoms: C_12  and  C_13
REMARK    6  A    between atoms: N_20  and  C_21
REMARK                            x       y       z     vdW  Elec       q    Type
REMARK                         _______ _______ _______ _____ _____    ______ ____
ROOT
ATOM      1  C   UNL     1       4.890   4.689  18.362  0.00  0.00    +0.000 C 
ATOM      2  C   UNL     1       4.084   5.517  19.470  0.00  0.00    +0.000 C 
ATOM      3  C   UNL     1       3.066   4.585  20.202  0.00  0.00    +0.000 C 
ATOM      4  C   UNL     1       2.361   3.557  19.268  0.00  0.00    +0.000 C 
ATOM      5  C   UNL     1       1.576   4.031  18.008  0.00  0.00    +0.000 C 
ATOM      6  C   UNL     1       2.590   3.802  16.848  0.00  0.00    +0.000 C 
ATOM      7  C   UNL     1       3.957   3.648  17.574  0.00  0.00    +0.000 C 
ATOM      8  N   UNL     1       3.485   2.824  18.735  0.00  0.00    +0.000 NA
ATOM      9  C   UNL     1       3.193   1.388  18.556  0.00  0.00    +0.000 C 
ENDROOT
BRANCH   2  10
ATOM     10  C   UNL     1       3.263   6.776  19.135  0.00  0.00    +0.000 A 
ATOM     11  C   UNL     1       3.194   7.437  17.892  0.00  0.00    +0.000 A 
ATOM     12  C   UNL     1       2.234   8.433  17.679  0.00  0.00    +0.000 A 
ATOM     13  C   UNL     1       1.362   8.824  18.703  0.00  0.00    +0.000 A 
ATOM     14 CL   UNL     1       0.141  10.039  18.342  0.00  0.00    +0.000 Cl
ATOM     15  C   UNL     1       1.471   8.229  19.974  0.00  0.00    +0.000 A 
ATOM     16  C   UNL     1       0.597   8.596  21.142  0.00  0.00    +0.000 C 
ATOM     17  C   UNL     1       2.413   7.220  20.168  0.00  0.00    +0.000 A 
ENDBRANCH   2  10
BRANCH   1  18
ATOM     18  C   UNL     1       5.835   5.619  17.585  0.00  0.00    +0.000 C 
ATOM     19  O   UNL     1       5.762   5.630  16.359  0.00  0.00    +0.000 OA
BRANCH  18  21
ATOM     20  C   UNL     1       7.478   7.377  17.563  0.00  0.00    +0.000 C 
ATOM     21  O   UNL     1       6.740   6.403  18.218  0.00  0.00    +0.000 OA
ENDBRANCH  18  21
ENDBRANCH   1  18
TORSDOF 3
ENDMDL
MODEL 3
REMARK VINA RESULT:      -6.8      2.236      3.912
REMARK  Name = 
REMARK  6 active torsions:
REMARK  status: ('A' for Active; 'I' for Inactive)
REMARK    1  A    between atoms: C_1  and  O_2
REMARK    2  A    between atoms: O_2  and  C_3
REMARK    3  A    between atoms: C_3  and  C_5
REMARK    4  A    between atoms: C_6  and  C_7
REMARK    5  A    between atoms: C_12  and  C_13
REMARK    6  A    between atoms: N_20  and  C_21
REMARK                            x       y       z     vdW  Elec       q    Type
REMARK                         _______ _______ _______ _____ _____    ______ ____
ROOT
ATOM      1  C   UNL     1       3.715   4.225  17.219  0.00  0.00    +0.000 C 
ATOM      2  C   UNL     1       3.310   5.774  17.198  0.00  0.00    +0.000 C 
ATOM      3  C   UNL     1       4.578   6.658  16.968  0.00  0.00    +0.000 C 
ATOM      4  C   UNL     1       5.850   6.149  17.711  0.00  0.00    +0.000 C 
ATOM      5  C   UNL     1       5.838   5.926  19.253  0.00  0.00    +0.000 C 
ATOM      6  C   UNL     1       5.618   4.391  19.391  0.00  0.00    +0.000 C 
ATOM      7  C   UNL     1       5.097   3.962  17.989  0.00  0.00    +0.000 C 
ATOM      8  N   UNL     1       6.002   4.824  17.159  0.00  0.00    +0.000 NA
ATOM      9  C   UNL     1       7.417   4.446  16.969  0.00  0.00    +0.000 C 
ENDROOT
BRANCH   2  10
ATOM     10  C   UNL     1       2.584   6.461  18.370  0.00  0.00    +0.000 A 
ATOM     11  C   UNL     1       2.366   5.932  19.658  0.00  0.00    +0.000 A 
ATOM     12  C   UNL     1       1.891   6.756  20.684  0.00  0.00    +0.000 A 
ATOM     13  C   UNL     1       1.580   8.101  20.442  0.00  0.00    +0.000 A 
ATOM     14 CL   UNL     1       1.046   9.091  21.796  0.00  0.00    +0.000 Cl
ATOM     15  C   UNL     1       1.717   8.623  19.142  0.00  0.00    +0.000 A 
ATOM     16  C   UNL     1       1.387  10.046  18.778  0.00  0.00    +0.000 C 
ATOM     17  C   UNL     1       2.216   7.801  18.134  0.00  0.00    +0.000 A 
ENDBRANCH   2  10
BRANCH   1  18
ATOM     18  C   UNL     1       2.484   3.357  17.523  0.00  0.00    +0.000 C 
ATOM     19  O   UNL     1       1.396   3.717  17.081  0.00  0.00    +0.000 OA
BRANCH  18  21
ATOM     20  C   UNL     1       2.181   2.173  19.595  0.00  0.00    +0.000 C 
ATOM     21  O   UNL     1       2.575   2.230  18.268  0.00  0.00    +0.000 OA
ENDBRANCH  18  21
ENDBRANCH   1  18
TORSDOF 3
ENDMDL
MODEL 4
REMARK VINA RESULT:      -6.6      2.149      3.903
REMARK  Name = 
REMARK  6 active torsions:
REMARK  status: ('A' for Active; 'I' for Inactive)
REMARK    1  A    between atoms: C_1  and  O_2
REMARK    2  A    between atoms: O_2  and  C_3
REMARK    3  A    between atoms: C_3  and  C_5
REMARK    4  A    between atoms: C_6  and  C_7
REMARK    5  A    between atoms: C_12  and  C_13
REMARK    6  A    between atoms: N_20  and  C_21
REMARK                            x       y       z     vdW  Elec       q    Type
REMARK                         _______ _______ _______ _____ _____    ______ ____
ROOT
ATOM      1  C   UNL     1       4.122   3.707  17.883  0.00  0.00    +0.000 C 
ATOM      2  C   UNL     1       3.342   5.026  17.419  0.00  0.00    +0.000 C 
ATOM      3  C   UNL     1       4.305   5.970  16.629  0.00  0.00    +0.000 C 
ATOM      4  C   UNL     1       5.752   6.028  17.204  0.00  0.00    +0.000 C 
ATOM      5  C   UNL     1       6.004   6.417  18.691  0.00  0.00    +0.000 C 
ATOM      6  C   UNL     1       6.198   5.041  19.394  0.00  0.00    +0.000 C 
ATOM      7  C   UNL     1       5.617   4.019  18.375  0.00  0.00    +0.000 C 
ATOM      8  N   UNL     1       6.156   4.645  17.123  0.00  0.00    +0.000 NA
ATOM      9  C   UNL     1       7.582   4.489  16.769  0.00  0.00    +0.000 C 
ENDROOT
BRANCH   2  10
ATOM     10  C   UNL     1       2.632   5.966  18.412  0.00  0.00    +0.000 A 
ATOM     11  C   UNL     1       2.327   5.697  19.762  0.00  0.00    +0.000 A 
ATOM     12  C   UNL     1       1.882   6.727  20.599  0.00  0.00    +0.000 A 
ATOM     13  C   UNL     1       1.687   8.024  20.105  0.00  0.00    +0.000 A 
ATOM     14 CL   UNL     1       1.187   9.280  21.231  0.00  0.00    +0.000 Cl
ATOM     15  C   UNL     1       1.912   8.289  18.741  0.00  0.00    +0.000 A 
ATOM     16  C   UNL     1       1.710   9.641  18.112  0.00  0.00    +0.000 C 
ATOM     17  C   UNL     1       2.379   7.263  17.922  0.00  0.00    +0.000 A 
ENDBRANCH   2  10
BRANCH   1  18
ATOM     18  C   UNL     1       3.202   2.814  18.729  0.00  0.00    +0.000 C 
ATOM     19  O   UNL     1       3.546   2.546  19.876  0.00  0.00    +0.000 OA
BRANCH  18  21
ATOM     20  C   UNL     1       0.823   2.481  18.869  0.00  0.00    +0.000 C 
ATOM     21  O   UNL     1       2.044   2.315  18.234  0.00  0.00    +0.000 OA
ENDBRANCH  18  21
ENDBRANCH   1  18
TORSDOF 3
ENDMDL
MODEL 5
REMARK VINA RESULT:      -6.4      3.409      5.303
REMARK  Name = 
REMARK  6 active torsions:
REMARK  status: ('A' for Active; 'I' for Inactive)
REMARK    1  A    between atoms: C_1  and  O_2
REMARK    2  A    between atoms: O_2  and  C_3
REMARK    3  A    between atoms: C_3  and  C_5
REMARK    4  A    between atoms: C_6  and  C_7
REMARK    5  A    between atoms: C_12  and  C_13
REMARK    6  A    between atoms: N_20  and  C_21
REMARK                            x       y       z     vdW  Elec       q    Type
REMARK                         _______ _______ _______ _____ _____    ______ ____
ROOT
ATOM      1  C   UNL     1       5.914   5.452  15.678  0.00  0.00    +0.000 C 
ATOM      2  C   UNL     1       4.489   5.694  16.366  0.00  0.00    +0.000 C 
ATOM      3  C   UNL     1       4.568   6.905  17.351  0.00  0.00    +0.000 C 
ATOM      4  C   UNL     1       5.897   6.982  18.160  0.00  0.00    +0.000 C 
ATOM      5  C   UNL     1       6.374   5.779  19.027  0.00  0.00    +0.000 C 
ATOM      6  C   UNL     1       7.422   5.074  18.117  0.00  0.00    +0.000 C 
ATOM      7  C   UNL     1       7.133   5.651  16.701  0.00  0.00    +0.000 C 
ATOM      8  N   UNL     1       6.878   7.073  17.105  0.00  0.00    +0.000 NA
ATOM      9  C   UNL     1       8.007   7.959  17.453  0.00  0.00    +0.000 C 
ENDROOT
BRANCH   2  10
ATOM     10  C   UNL     1       3.758   4.605  17.173  0.00  0.00    +0.000 A 
ATOM     11  C   UNL     1       3.995   3.216  17.129  0.00  0.00    +0.000 A 
ATOM     12  C   UNL     1       3.409   2.374  18.081  0.00  0.00    +0.000 A 
ATOM     13  C   UNL     1       2.545   2.883  19.060  0.00  0.00    +0.000 A 
ATOM     14 CL   UNL     1       1.896   1.772  20.260  0.00  0.00    +0.000 Cl
ATOM     15  C   UNL     1       2.238   4.257  19.068  0.00  0.00    +0.000 A 
ATOM     16  C   UNL     1       1.306   4.894  20.063  0.00  0.00    +0.000 C 
ATOM     17  C   UNL     1       2.846   5.090  18.132  0.00  0.00    +0.000 A 
ENDBRANCH   2  10
BRANCH   1  18
ATOM     18  C   UNL     1       5.862   4.213  14.770  0.00  0.00    +0.000 C 
ATOM     19  O   UNL     1       6.442   3.197  15.140  0.00  0.00    +0.000 OA
BRANCH  18  21
ATOM     20  C   UNL     1       5.621   3.478  12.492  0.00  0.00    +0.000 C 
ATOM     21  O   UNL     1       5.211   4.228  13.582  0.00  0.00    +0.000 OA
ENDBRANCH  18  21
ENDBRANCH   1  18
TORSDOF 3
ENDMDL
MODEL 6
REMARK VINA RESULT:      -6.3      3.303      5.570
REMARK  Name = 
REMARK  6 active torsions:
REMARK  status: ('A' for Active; 'I' for Inactive)
REMARK    1  A    between atoms: C_1  and  O_2
REMARK    2  A    between atoms: O_2  and  C_3
REMARK    3  A    between atoms: C_3  and  C_5
REMARK    4  A    between atoms: C_6  and  C_7
REMARK    5  A    between atoms: C_12  and  C_13
REMARK    6  A    between atoms: N_20  and  C_21
REMARK                            x       y       z     vdW  Elec       q    Type
REMARK                         _______ _______ _______ _____ _____    ______ ____
ROOT
ATOM      1  C   UNL     1       5.876   5.749  18.681  0.00  0.00    +0.000 C 
ATOM      2  C   UNL     1       5.334   6.045  17.204  0.00  0.00    +0.000 C 
ATOM      3  C   UNL     1       3.772   6.072  17.201  0.00  0.00    +0.000 C 
ATOM      4  C   UNL     1       3.115   4.999  18.119  0.00  0.00    +0.000 C 
ATOM      5  C   UNL     1       3.451   3.487  17.946  0.00  0.00    +0.000 C 
ATOM      6  C   UNL     1       4.511   3.226  19.056  0.00  0.00    +0.000 C 
ATOM      7  C   UNL     1       4.995   4.651  19.451  0.00  0.00    +0.000 C 
ATOM      8  N   UNL     1       3.663   5.341  19.410  0.00  0.00    +0.000 NA
ATOM      9  C   UNL     1       2.694   5.150  20.508  0.00  0.00    +0.000 C 
ENDROOT
BRANCH   2  10
ATOM     10  C   UNL     1       5.694   5.164  15.993  0.00  0.00    +0.000 A 
ATOM     11  C   UNL     1       4.997   4.026  15.537  0.00  0.00    +0.000 A 
ATOM     12  C   UNL     1       5.313   3.461  14.296  0.00  0.00    +0.000 A 
ATOM     13  C   UNL     1       6.350   3.981  13.510  0.00  0.00    +0.000 A 
ATOM     14 CL   UNL     1       6.647   3.257  11.934  0.00  0.00    +0.000 Cl
ATOM     15  C   UNL     1       7.106   5.068  13.988  0.00  0.00    +0.000 A 
ATOM     16  C   UNL     1       8.252   5.682  13.230  0.00  0.00    +0.000 C 
ATOM     17  C   UNL     1       6.767   5.639  15.213  0.00  0.00    +0.000 A 
ENDBRANCH   2  10
BRANCH   1  18
ATOM     18  C   UNL     1       7.409   5.642  18.675  0.00  0.00    +0.000 C 
ATOM     19  O   UNL     1       7.913   4.538  18.491  0.00  0.00    +0.000 OA
BRANCH  18  21
ATOM     20  C   UNL     1       8.133   7.859  18.085  0.00  0.00    +0.000 C 
ATOM     21  O   UNL     1       8.198   6.724  18.877  0.00  0.00    +0.000 OA
ENDBRANCH  18  21
ENDBRANCH   1  18
TORSDOF 3
ENDMDL
MODEL 7
REMARK VINA RESULT:      -6.0      1.264      1.979
REMARK  Name = 
REMARK  6 active torsions:
REMARK  status: ('A' for Active; 'I' for Inactive)
REMARK    1  A    between atoms: C_1  and  O_2
REMARK    2  A    between atoms: O_2  and  C_3
REMARK    3  A    between atoms: C_3  and  C_5
REMARK    4  A    between atoms: C_6  and  C_7
REMARK    5  A    between atoms: C_12  and  C_13
REMARK    6  A    between atoms: N_20  and  C_21
REMARK                            x       y       z     vdW  Elec       q    Type
REMARK                         _______ _______ _______ _____ _____    ______ ____
ROOT
ATOM      1  C   UNL     1       4.428   4.975  18.251  0.00  0.00    +0.000 C 
ATOM      2  C   UNL     1       3.825   5.443  19.658  0.00  0.00    +0.000 C 
ATOM      3  C   UNL     1       3.232   4.216  20.423  0.00  0.00    +0.000 C 
ATOM      4  C   UNL     1       2.491   3.195  19.508  0.00  0.00    +0.000 C 
ATOM      5  C   UNL     1       1.319   3.651  18.589  0.00  0.00    +0.000 C 
ATOM      6  C   UNL     1       1.997   3.814  17.197  0.00  0.00    +0.000 C 
ATOM      7  C   UNL     1       3.516   3.871  17.528  0.00  0.00    +0.000 C 
ATOM      8  N   UNL     1       3.537   2.811  18.590  0.00  0.00    +0.000 NA
ATOM      9  C   UNL     1       3.469   1.384  18.216  0.00  0.00    +0.000 C 
ENDROOT
BRANCH   2  10
ATOM     10  C   UNL     1       2.732   6.522  19.779  0.00  0.00    +0.000 A 
ATOM     11  C   UNL     1       1.860   6.726  20.867  0.00  0.00    +0.000 A 
ATOM     12  C   UNL     1       1.073   7.881  20.928  0.00  0.00    +0.000 A 
ATOM     13  C   UNL     1       1.100   8.828  19.895  0.00  0.00    +0.000 A 
ATOM     14 CL   UNL     1       0.130  10.285  20.072  0.00  0.00    +0.000 Cl
ATOM     15  C   UNL     1       1.908   8.599  18.765  0.00  0.00    +0.000 A 
ATOM     16  C   UNL     1       1.988   9.543  17.596  0.00  0.00    +0.000 C 
ATOM     17  C   UNL     1       2.707   7.458  18.726  0.00  0.00    +0.000 A 
ENDBRANCH   2  10
BRANCH   1  18
ATOM     18  C   UNL     1       4.941   6.189  17.461  0.00  0.00    +0.000 C 
ATOM     19  O   UNL     1       4.379   6.477  16.408  0.00  0.00    +0.000 OA
BRANCH  18  21
ATOM     20  C   UNL     1       7.308   6.516  17.746  0.00  0.00    +0.000 C 
ATOM     21  O   UNL     1       5.992   6.926  17.893  0.00  0.00    +0.000 OA
ENDBRANCH  18  21
ENDBRANCH   1  18
TORSDOF 3
ENDMDL
MODEL 8
REMARK VINA RESULT:      -5.8      1.224      1.847
REMARK  Name = 
REMARK  6 active torsions:
REMARK  status: ('A' for Active; 'I' for Inactive)
REMARK    1  A    between atoms: C_1  and  O_2
REMARK    2  A    between atoms: O_2  and  C_3
REMARK    3  A    between atoms: C_3  and  C_5
REMARK    4  A    between atoms: C_6  and  C_7
REMARK    5  A    between atoms: C_12  and  C_13
REMARK    6  A    between atoms: N_20  and  C_21
REMARK                            x       y       z     vdW  Elec       q    Type
REMARK                         _______ _______ _______ _____ _____    ______ ____
ROOT
ATOM      1  C   UNL     1       4.487   4.770  18.412  0.00  0.00    +0.000 C 
ATOM      2  C   UNL     1       3.815   5.255  19.782  0.00  0.00    +0.000 C 
ATOM      3  C   UNL     1       3.148   4.044  20.511  0.00  0.00    +0.000 C 
ATOM      4  C   UNL     1       2.438   3.040  19.555  0.00  0.00    +0.000 C 
ATOM      5  C   UNL     1       1.332   3.522  18.569  0.00  0.00    +0.000 C 
ATOM      6  C   UNL     1       2.094   3.667  17.219  0.00  0.00    +0.000 C 
ATOM      7  C   UNL     1       3.592   3.687  17.638  0.00  0.00    +0.000 C 
ATOM      8  N   UNL     1       3.525   2.629  18.699  0.00  0.00    +0.000 NA
ATOM      9  C   UNL     1       3.444   1.204  18.322  0.00  0.00    +0.000 C 
ENDROOT
BRANCH   2  10
ATOM     10  C   UNL     1       2.743   6.360  19.839  0.00  0.00    +0.000 A 
ATOM     11  C   UNL     1       1.858   6.628  20.903  0.00  0.00    +0.000 A 
ATOM     12  C   UNL     1       1.095   7.801  20.902  0.00  0.00    +0.000 A 
ATOM     13  C   UNL     1       1.159   8.702  19.831  0.00  0.00    +0.000 A 
ATOM     14 CL   UNL     1       0.218  10.185  19.929  0.00  0.00    +0.000 Cl
ATOM     15  C   UNL     1       1.980   8.409  18.725  0.00  0.00    +0.000 A 
ATOM     16  C   UNL     1       2.098   9.301  17.519  0.00  0.00    +0.000 C 
ATOM     17  C   UNL     1       2.754   7.251  18.747  0.00  0.00    +0.000 A 
ENDBRANCH   2  10
BRANCH   1  18
ATOM     18  C   UNL     1       5.074   5.971  17.654  0.00  0.00    +0.000 C 
ATOM     19  O   UNL     1       5.912   6.665  18.223  0.00  0.00    +0.000 OA
BRANCH  18  21
ATOM     20  C   UNL     1       5.375   5.863  15.269  0.00  0.00    +0.000 C 
ATOM     21  O   UNL     1       4.681   6.278  16.395  0.00  0.00    +0.000 OA
ENDBRANCH  18  21
ENDBRANCH   1  18
TORSDOF 3
ENDMDL
MODEL 9
REMARK VINA RESULT:      -5.7      3.262      4.767
REMARK  Name = 
REMARK  6 active torsions:
REMARK  status: ('A' for Active; 'I' for Inactive)
REMARK    1  A    between atoms: C_1  and  O_2
REMARK    2  A    between atoms: O_2  and  C_3
REMARK    3  A    between atoms: C_3  and  C_5
REMARK    4  A    between atoms: C_6  and  C_7
REMARK    5  A    between atoms: C_12  and  C_13
REMARK    6  A    between atoms: N_20  and  C_21
REMARK                            x       y       z     vdW  Elec       q    Type
REMARK                         _______ _______ _______ _____ _____    ______ ____
ROOT
ATOM      1  C   UNL     1       3.725   2.729  20.273  0.00  0.00    +0.000 C 
ATOM      2  C   UNL     1       4.392   4.099  19.783  0.00  0.00    +0.000 C 
ATOM      3  C   UNL     1       3.296   5.201  19.619  0.00  0.00    +0.000 C 
ATOM      4  C   UNL     1       1.954   4.678  19.024  0.00  0.00    +0.000 C 
ATOM      5  C   UNL     1       1.924   3.932  17.657  0.00  0.00    +0.000 C 
ATOM      6  C   UNL     1       1.875   2.431  18.070  0.00  0.00    +0.000 C 
ATOM      7  C   UNL     1       2.317   2.441  19.562  0.00  0.00    +0.000 C 
ATOM      8  N   UNL     1       1.576   3.673  19.989  0.00  0.00    +0.000 NA
ATOM      9  C   UNL     1       0.118   3.622  20.215  0.00  0.00    +0.000 C 
ENDROOT
BRANCH   2  10
ATOM     10  C   UNL     1       5.223   4.205  18.491  0.00  0.00    +0.000 A 
ATOM     11  C   UNL     1       5.133   3.374  17.355  0.00  0.00    +0.000 A 
ATOM     12  C   UNL     1       5.793   3.729  16.173  0.00  0.00    +0.000 A 
ATOM     13  C   UNL     1       6.588   4.881  16.108  0.00  0.00    +0.000 A 
ATOM     14 CL   UNL     1       7.335   5.294  14.570  0.00  0.00    +0.000 Cl
ATOM     15  C   UNL     1       6.750   5.678  17.257  0.00  0.00    +0.000 A 
ATOM     16  C   UNL     1       7.599   6.920  17.294  0.00  0.00    +0.000 C 
ATOM     17  C   UNL     1       6.068   5.331  18.421  0.00  0.00    +0.000 A 
ENDBRANCH   2  10
BRANCH   1  18
ATOM     18  C   UNL     1       4.787   1.621  20.359  0.00  0.00    +0.000 C 
ATOM     19  O   UNL     1       4.912   0.860  19.404  0.00  0.00    +0.000 OA
BRANCH  18  21
ATOM     20  C   UNL     1       5.967   0.223  21.922  0.00  0.00    +0.000 C 
ATOM     21  O   UNL     1       5.566   1.465  21.457  0.00  0.00    +0.000 OA
ENDBRANCH  18  21
ENDBRANCH   1  18
TORSDOF 3
ENDMDL
