MODEL 1
REMARK VINA RESULT:      -7.4      0.000      0.000
REMARK  Name = 
REMARK  4 active torsions:
REMARK  status: ('A' for Active; 'I' for Inactive)
REMARK    1  A    between atoms: C_1  and  C_2
REMARK    2  A    between atoms: C_5  and  O_6
REMARK    3  A    between atoms: O_6  and  C_7
REMARK    4  A    between atoms: C_10  and  C_11
REMARK                            x       y       z     vdW  Elec       q    Type
REMARK                         _______ _______ _______ _____ _____    ______ ____
ROOT
ATOM      1  C   UNL     1       2.448   7.818  18.579  0.00  0.00    +0.000 A 
ATOM      2  N   UNL     1       1.868   8.886  18.015  0.00  0.00    +0.000 NA
ATOM      3  C   UNL     1       1.069   9.619  18.821  0.00  0.00    +0.000 A 
ATOM      4  C   UNL     1       0.806   9.337  20.155  0.00  0.00    +0.000 A 
ATOM      5  C   UNL     1       1.452   8.197  20.602  0.00  0.00    +0.000 A 
ATOM      6  N   UNL     1       2.257   7.421  19.848  0.00  0.00    +0.000 NA
ENDROOT
BRANCH   4   7
ATOM      7  C   UNL     1      -0.079  10.155  21.004  0.00  0.00    +0.000 A 
ATOM      8  C   UNL     1      -0.246   9.871  22.372  0.00  0.00    +0.000 A 
ATOM      9  C   UNL     1      -1.079  10.650  23.183  0.00  0.00    +0.000 A 
ATOM     10  C   UNL     1      -1.752  11.737  22.641  0.00  0.00    +0.000 A 
ATOM     11 CL   UNL     1      -2.769  12.701  23.637  0.00  0.00    +0.000 Cl
ATOM     12  C   UNL     1      -1.604  12.050  21.293  0.00  0.00    +0.000 A 
ATOM     13  C   UNL     1      -0.780  11.260  20.482  0.00  0.00    +0.000 A 
ENDBRANCH   4   7
BRANCH   1  14
ATOM     14  O   UNL     1       3.261   7.075  17.737  0.00  0.00    +0.000 OA
BRANCH  14  19
ATOM     15  C   UNL     1       3.505   1.453  18.490  0.00  0.00    +0.000 C 
ATOM     16  C   UNL     1       3.434   2.934  18.278  0.00  0.00    +0.000 A 
ATOM     17  C   UNL     1       4.572   3.742  18.411  0.00  0.00    +0.000 A 
ATOM     18  C   UNL     1       4.483   5.121  18.210  0.00  0.00    +0.000 A 
ATOM     19  C   UNL     1       3.263   5.707  17.869  0.00  0.00    +0.000 A 
ATOM     20  C   UNL     1       2.120   4.909  17.771  0.00  0.00    +0.000 A 
ATOM     21  C   UNL     1       2.210   3.528  17.955  0.00  0.00    +0.000 A 
ENDBRANCH  14  19
ENDBRANCH   1  14
TORSDOF 3
ENDMDL
MODEL 2
REMARK VINA RESULT:      -7.3      0.065      1.488
REMARK  Name = 
REMARK  4 active torsions:
REMARK  status: ('A' for Active; 'I' for Inactive)
REMARK    1  A    between atoms: C_1  and  C_2
REMARK    2  A    between atoms: C_5  and  O_6
REMARK    3  A    between atoms: O_6  and  C_7
REMARK    4  A    between atoms: C_10  and  C_11
REMARK                            x       y       z     vdW  Elec       q    Type
REMARK                         _______ _______ _______ _____ _____    ______ ____
ROOT
ATOM      1  C   UNL     1       2.428   7.801  18.585  0.00  0.00    +0.000 A 
ATOM      2  N   UNL     1       1.842   8.864  18.017  0.00  0.00    +0.000 NA
ATOM      3  C   UNL     1       1.054   9.606  18.826  0.00  0.00    +0.000 A 
ATOM      4  C   UNL     1       0.808   9.338  20.165  0.00  0.00    +0.000 A 
ATOM      5  C   UNL     1       1.458   8.202  20.616  0.00  0.00    +0.000 A 
ATOM      6  N   UNL     1       2.252   7.417  19.860  0.00  0.00    +0.000 NA
ENDROOT
BRANCH   4   7
ATOM      7  C   UNL     1      -0.065  10.167  21.017  0.00  0.00    +0.000 A 
ATOM      8  C   UNL     1      -0.736  11.289  20.500  0.00  0.00    +0.000 A 
ATOM      9  C   UNL     1      -1.571  12.075  21.304  0.00  0.00    +0.000 A 
ATOM     10  C   UNL     1      -1.759  11.742  22.639  0.00  0.00    +0.000 A 
ATOM     11 CL   UNL     1      -2.791  12.699  23.625  0.00  0.00    +0.000 Cl
ATOM     12  C   UNL     1      -1.116  10.632  23.181  0.00  0.00    +0.000 A 
ATOM     13  C   UNL     1      -0.270   9.858  22.376  0.00  0.00    +0.000 A 
ENDBRANCH   4   7
BRANCH   1  14
ATOM     14  O   UNL     1       3.229   7.048  17.741  0.00  0.00    +0.000 OA
BRANCH  14  19
ATOM     15  C   UNL     1       3.497   1.429  18.512  0.00  0.00    +0.000 C 
ATOM     16  C   UNL     1       3.432   2.914  18.322  0.00  0.00    +0.000 A 
ATOM     17  C   UNL     1       2.245   3.544  17.923  0.00  0.00    +0.000 A 
ATOM     18  C   UNL     1       2.207   4.929  17.750  0.00  0.00    +0.000 A 
ATOM     19  C   UNL     1       3.348   5.700  17.981  0.00  0.00    +0.000 A 
ATOM     20  C   UNL     1       4.542   5.071  18.345  0.00  0.00    +0.000 A 
ATOM     21  C   UNL     1       4.577   3.689  18.533  0.00  0.00    +0.000 A 
ENDBRANCH  14  19
ENDBRANCH   1  14
TORSDOF 3
ENDMDL
MODEL 3
REMARK VINA RESULT:      -7.3      0.065      1.053
REMARK  Name = 
REMARK  4 active torsions:
REMARK  status: ('A' for Active; 'I' for Inactive)
REMARK    1  A    between atoms: C_1  and  C_2
REMARK    2  A    between atoms: C_5  and  O_6
REMARK    3  A    between atoms: O_6  and  C_7
REMARK    4  A    between atoms: C_10  and  C_11
REMARK                            x       y       z     vdW  Elec       q    Type
REMARK                         _______ _______ _______ _____ _____    ______ ____
ROOT
ATOM      1  C   UNL     1       2.419   7.848  18.572  0.00  0.00    +0.000 A 
ATOM      2  N   UNL     1       1.822   8.903  18.001  0.00  0.00    +0.000 NA
ATOM      3  C   UNL     1       1.029   9.642  18.808  0.00  0.00    +0.000 A 
ATOM      4  C   UNL     1       0.788   9.377  20.150  0.00  0.00    +0.000 A 
ATOM      5  C   UNL     1       1.450   8.249  20.603  0.00  0.00    +0.000 A 
ATOM      6  N   UNL     1       2.250   7.468  19.849  0.00  0.00    +0.000 NA
ENDROOT
BRANCH   4   7
ATOM      7  C   UNL     1      -0.090  10.201  21.000  0.00  0.00    +0.000 A 
ATOM      8  C   UNL     1      -0.792  11.301  20.474  0.00  0.00    +0.000 A 
ATOM      9  C   UNL     1      -1.632  12.082  21.276  0.00  0.00    +0.000 A 
ATOM     10  C   UNL     1      -1.794  11.767  22.620  0.00  0.00    +0.000 A 
ATOM     11 CL   UNL     1      -2.833  12.719  23.604  0.00  0.00    +0.000 Cl
ATOM     12  C   UNL     1      -1.120  10.681  23.170  0.00  0.00    +0.000 A 
ATOM     13  C   UNL     1      -0.270   9.911  22.367  0.00  0.00    +0.000 A 
ENDBRANCH   4   7
BRANCH   1  14
ATOM     14  O   UNL     1       3.225   7.099  17.729  0.00  0.00    +0.000 OA
BRANCH  14  19
ATOM     15  C   UNL     1       3.416   1.470  18.452  0.00  0.00    +0.000 C 
ATOM     16  C   UNL     1       3.359   2.954  18.248  0.00  0.00    +0.000 A 
ATOM     17  C   UNL     1       4.513   3.743  18.330  0.00  0.00    +0.000 A 
ATOM     18  C   UNL     1       4.437   5.125  18.138  0.00  0.00    +0.000 A 
ATOM     19  C   UNL     1       3.211   5.730  17.856  0.00  0.00    +0.000 A 
ATOM     20  C   UNL     1       2.053   4.950  17.808  0.00  0.00    +0.000 A 
ATOM     21  C   UNL     1       2.130   3.568  17.984  0.00  0.00    +0.000 A 
ENDBRANCH  14  19
ENDBRANCH   1  14
TORSDOF 3
ENDMDL
MODEL 4
REMARK VINA RESULT:      -7.3      6.087      7.638
REMARK  Name = 
REMARK  4 active torsions:
REMARK  status: ('A' for Active; 'I' for Inactive)
REMARK    1  A    between atoms: C_1  and  C_2
REMARK    2  A    between atoms: C_5  and  O_6
REMARK    3  A    between atoms: O_6  and  C_7
REMARK    4  A    between atoms: C_10  and  C_11
REMARK                            x       y       z     vdW  Elec       q    Type
REMARK                         _______ _______ _______ _____ _____    ______ ____
ROOT
ATOM      1  C   UNL     1       7.272   6.318  17.753  0.00  0.00    +0.000 A 
ATOM      2  N   UNL     1       8.089   6.392  18.813  0.00  0.00    +0.000 NA
ATOM      3  C   UNL     1       8.587   7.616  19.092  0.00  0.00    +0.000 A 
ATOM      4  C   UNL     1       8.325   8.769  18.362  0.00  0.00    +0.000 A 
ATOM      5  C   UNL     1       7.486   8.546  17.285  0.00  0.00    +0.000 A 
ATOM      6  N   UNL     1       6.961   7.349  16.951  0.00  0.00    +0.000 NA
ENDROOT
BRANCH   4   7
ATOM      7  C   UNL     1       8.893  10.090  18.691  0.00  0.00    +0.000 A 
ATOM      8  C   UNL     1       9.504  10.332  19.934  0.00  0.00    +0.000 A 
ATOM      9  C   UNL     1      10.050  11.582  20.248  0.00  0.00    +0.000 A 
ATOM     10  C   UNL     1      10.003  12.611  19.315  0.00  0.00    +0.000 A 
ATOM     11 CL   UNL     1      10.682  14.144  19.694  0.00  0.00    +0.000 Cl
ATOM     12  C   UNL     1       9.412  12.402  18.073  0.00  0.00    +0.000 A 
ATOM     13  C   UNL     1       8.855  11.154  17.769  0.00  0.00    +0.000 A 
ENDBRANCH   4   7
BRANCH   1  14
ATOM     14  O   UNL     1       6.774   5.054  17.479  0.00  0.00    +0.000 OA
BRANCH  14  19
ATOM     15  C   UNL     1       1.353   3.711  18.501  0.00  0.00    +0.000 C 
ATOM     16  C   UNL     1       2.781   4.080  18.234  0.00  0.00    +0.000 A 
ATOM     17  C   UNL     1       3.411   3.722  17.035  0.00  0.00    +0.000 A 
ATOM     18  C   UNL     1       4.744   4.074  16.808  0.00  0.00    +0.000 A 
ATOM     19  C   UNL     1       5.456   4.792  17.769  0.00  0.00    +0.000 A 
ATOM     20  C   UNL     1       4.841   5.120  18.980  0.00  0.00    +0.000 A 
ATOM     21  C   UNL     1       3.505   4.782  19.202  0.00  0.00    +0.000 A 
ENDBRANCH  14  19
ENDBRANCH   1  14
TORSDOF 3
ENDMDL
MODEL 5
REMARK VINA RESULT:      -7.3      6.246      7.483
REMARK  Name = 
REMARK  4 active torsions:
REMARK  status: ('A' for Active; 'I' for Inactive)
REMARK    1  A    between atoms: C_1  and  C_2
REMARK    2  A    between atoms: C_5  and  O_6
REMARK    3  A    between atoms: O_6  and  C_7
REMARK    4  A    between atoms: C_10  and  C_11
REMARK                            x       y       z     vdW  Elec       q    Type
REMARK                         _______ _______ _______ _____ _____    ______ ____
ROOT
ATOM      1  C   UNL     1       7.209   5.958  17.764  0.00  0.00    +0.000 A 
ATOM      2  N   UNL     1       6.833   6.927  16.920  0.00  0.00    +0.000 NA
ATOM      3  C   UNL     1       7.332   8.157  17.172  0.00  0.00    +0.000 A 
ATOM      4  C   UNL     1       8.173   8.475  18.230  0.00  0.00    +0.000 A 
ATOM      5  C   UNL     1       8.463   7.386  19.034  0.00  0.00    +0.000 A 
ATOM      6  N   UNL     1       7.995   6.137  18.838  0.00  0.00    +0.000 NA
ENDROOT
BRANCH   4   7
ATOM      7  C   UNL     1       8.693   9.832  18.481  0.00  0.00    +0.000 A 
ATOM      8  C   UNL     1       9.521  10.104  19.585  0.00  0.00    +0.000 A 
ATOM      9  C   UNL     1      10.022  11.389  19.823  0.00  0.00    +0.000 A 
ATOM     10  C   UNL     1       9.712  12.425  18.951  0.00  0.00    +0.000 A 
ATOM     11 CL   UNL     1      10.334  14.002  19.235  0.00  0.00    +0.000 Cl
ATOM     12  C   UNL     1       8.901  12.188  17.844  0.00  0.00    +0.000 A 
ATOM     13  C   UNL     1       8.391  10.904  17.619  0.00  0.00    +0.000 A 
ENDBRANCH   4   7
BRANCH   1  14
ATOM     14  O   UNL     1       6.686   4.703  17.493  0.00  0.00    +0.000 OA
BRANCH  14  19
ATOM     15  C   UNL     1       1.281   3.432  18.682  0.00  0.00    +0.000 C 
ATOM     16  C   UNL     1       2.705   3.781  18.374  0.00  0.00    +0.000 A 
ATOM     17  C   UNL     1       3.244   3.572  17.097  0.00  0.00    +0.000 A 
ATOM     18  C   UNL     1       4.574   3.903  16.831  0.00  0.00    +0.000 A 
ATOM     19  C   UNL     1       5.377   4.452  17.833  0.00  0.00    +0.000 A 
ATOM     20  C   UNL     1       4.853   4.630  19.116  0.00  0.00    +0.000 A 
ATOM     21  C   UNL     1       3.520   4.314  19.378  0.00  0.00    +0.000 A 
ENDBRANCH  14  19
ENDBRANCH   1  14
TORSDOF 3
ENDMDL
MODEL 6
REMARK VINA RESULT:      -7.3      6.184      7.659
REMARK  Name = 
REMARK  4 active torsions:
REMARK  status: ('A' for Active; 'I' for Inactive)
REMARK    1  A    between atoms: C_1  and  C_2
REMARK    2  A    between atoms: C_5  and  O_6
REMARK    3  A    between atoms: O_6  and  C_7
REMARK    4  A    between atoms: C_10  and  C_11
REMARK                            x       y       z     vdW  Elec       q    Type
REMARK                         _______ _______ _______ _____ _____    ______ ____
ROOT
ATOM      1  C   UNL     1       7.231   6.076  17.836  0.00  0.00    +0.000 A 
ATOM      2  N   UNL     1       8.036   6.223  18.897  0.00  0.00    +0.000 NA
ATOM      3  C   UNL     1       8.517   7.468  19.107  0.00  0.00    +0.000 A 
ATOM      4  C   UNL     1       8.250   8.571  18.307  0.00  0.00    +0.000 A 
ATOM      5  C   UNL     1       7.424   8.274  17.237  0.00  0.00    +0.000 A 
ATOM      6  N   UNL     1       6.915   7.054  16.971  0.00  0.00    +0.000 NA
ENDROOT
BRANCH   4   7
ATOM      7  C   UNL     1       8.798   9.916  18.561  0.00  0.00    +0.000 A 
ATOM      8  C   UNL     1       8.582  10.975  17.660  0.00  0.00    +0.000 A 
ATOM      9  C   UNL     1       9.095  12.255  17.901  0.00  0.00    +0.000 A 
ATOM     10  C   UNL     1       9.826  12.501  19.057  0.00  0.00    +0.000 A 
ATOM     11 CL   UNL     1      10.449  14.074  19.359  0.00  0.00    +0.000 Cl
ATOM     12  C   UNL     1      10.052  11.477  19.972  0.00  0.00    +0.000 A 
ATOM     13  C   UNL     1       9.549  10.195  19.720  0.00  0.00    +0.000 A 
ENDBRANCH   4   7
BRANCH   1  14
ATOM     14  O   UNL     1       6.750   4.792  17.634  0.00  0.00    +0.000 OA
BRANCH  14  19
ATOM     15  C   UNL     1       1.295   3.501  18.534  0.00  0.00    +0.000 C 
ATOM     16  C   UNL     1       2.732   3.856  18.300  0.00  0.00    +0.000 A 
ATOM     17  C   UNL     1       3.360   3.575  17.079  0.00  0.00    +0.000 A 
ATOM     18  C   UNL     1       4.701   3.913  16.883  0.00  0.00    +0.000 A 
ATOM     19  C   UNL     1       5.425   4.540  17.899  0.00  0.00    +0.000 A 
ATOM     20  C   UNL     1       4.812   4.788  19.130  0.00  0.00    +0.000 A 
ATOM     21  C   UNL     1       3.468   4.466  19.321  0.00  0.00    +0.000 A 
ENDBRANCH  14  19
ENDBRANCH   1  14
TORSDOF 3
ENDMDL
MODEL 7
REMARK VINA RESULT:      -7.3      0.113      1.059
REMARK  Name = 
REMARK  4 active torsions:
REMARK  status: ('A' for Active; 'I' for Inactive)
REMARK    1  A    between atoms: C_1  and  C_2
REMARK    2  A    between atoms: C_5  and  O_6
REMARK    3  A    between atoms: O_6  and  C_7
REMARK    4  A    between atoms: C_10  and  C_11
REMARK                            x       y       z     vdW  Elec       q    Type
REMARK                         _______ _______ _______ _____ _____    ______ ____
ROOT
ATOM      1  C   UNL     1       2.372   7.894  18.581  0.00  0.00    +0.000 A 
ATOM      2  N   UNL     1       1.753   8.933  18.004  0.00  0.00    +0.000 NA
ATOM      3  C   UNL     1       0.951   9.664  18.808  0.00  0.00    +0.000 A 
ATOM      4  C   UNL     1       0.722   9.407  20.153  0.00  0.00    +0.000 A 
ATOM      5  C   UNL     1       1.406   8.295  20.613  0.00  0.00    +0.000 A 
ATOM      6  N   UNL     1       2.216   7.522  19.862  0.00  0.00    +0.000 NA
ENDROOT
BRANCH   4   7
ATOM      7  C   UNL     1      -0.168  10.222  21.001  0.00  0.00    +0.000 A 
ATOM      8  C   UNL     1      -0.332   9.941  22.369  0.00  0.00    +0.000 A 
ATOM      9  C   UNL     1      -1.170  10.717  23.179  0.00  0.00    +0.000 A 
ATOM     10  C   UNL     1      -1.850  11.798  22.634  0.00  0.00    +0.000 A 
ATOM     11 CL   UNL     1      -2.872  12.758  23.628  0.00  0.00    +0.000 Cl
ATOM     12  C   UNL     1      -1.704  12.109  21.285  0.00  0.00    +0.000 A 
ATOM     13  C   UNL     1      -0.876  11.321  20.476  0.00  0.00    +0.000 A 
ENDBRANCH   4   7
BRANCH   1  14
ATOM     14  O   UNL     1       3.188   7.152  17.740  0.00  0.00    +0.000 OA
BRANCH  14  19
ATOM     15  C   UNL     1       3.443   1.526  18.462  0.00  0.00    +0.000 C 
ATOM     16  C   UNL     1       3.382   3.013  18.285  0.00  0.00    +0.000 A 
ATOM     17  C   UNL     1       2.187   3.653  17.931  0.00  0.00    +0.000 A 
ATOM     18  C   UNL     1       2.152   5.040  17.769  0.00  0.00    +0.000 A 
ATOM     19  C   UNL     1       3.305   5.801  17.967  0.00  0.00    +0.000 A 
ATOM     20  C   UNL     1       4.506   5.162  18.286  0.00  0.00    +0.000 A 
ATOM     21  C   UNL     1       4.538   3.778  18.463  0.00  0.00    +0.000 A 
ENDBRANCH  14  19
ENDBRANCH   1  14
TORSDOF 3
ENDMDL
MODEL 8
REMARK VINA RESULT:      -7.3      0.097      1.028
REMARK  Name = 
REMARK  4 active torsions:
REMARK  status: ('A' for Active; 'I' for Inactive)
REMARK    1  A    between atoms: C_1  and  C_2
REMARK    2  A    between atoms: C_5  and  O_6
REMARK    3  A    between atoms: O_6  and  C_7
REMARK    4  A    between atoms: C_10  and  C_11
REMARK                            x       y       z     vdW  Elec       q    Type
REMARK                         _______ _______ _______ _____ _____    ______ ____
ROOT
ATOM      1  C   UNL     1       2.510   7.851  18.463  0.00  0.00    +0.000 A 
ATOM      2  N   UNL     1       2.346   7.435  19.726  0.00  0.00    +0.000 NA
ATOM      3  C   UNL     1       1.519   8.179  20.492  0.00  0.00    +0.000 A 
ATOM      4  C   UNL     1       0.856   9.325  20.070  0.00  0.00    +0.000 A 
ATOM      5  C   UNL     1       1.131   9.651  18.753  0.00  0.00    +0.000 A 
ATOM      6  N   UNL     1       1.950   8.954  17.940  0.00  0.00    +0.000 NA
ENDROOT
BRANCH   4   7
ATOM      7  C   UNL     1      -0.035  10.118  20.935  0.00  0.00    +0.000 A 
ATOM      8  C   UNL     1      -0.180   9.820  22.302  0.00  0.00    +0.000 A 
ATOM      9  C   UNL     1      -1.020  10.575  23.129  0.00  0.00    +0.000 A 
ATOM     10  C   UNL     1      -1.722  11.652  22.603  0.00  0.00    +0.000 A 
ATOM     11 CL   UNL     1      -2.746  12.587  23.619  0.00  0.00    +0.000 Cl
ATOM     12  C   UNL     1      -1.595  11.979  21.256  0.00  0.00    +0.000 A 
ATOM     13  C   UNL     1      -0.765  11.212  20.430  0.00  0.00    +0.000 A 
ENDBRANCH   4   7
BRANCH   1  14
ATOM     14  O   UNL     1       3.366   7.079  17.693  0.00  0.00    +0.000 OA
BRANCH  14  19
ATOM     15  C   UNL     1       3.434   1.462  18.520  0.00  0.00    +0.000 C 
ATOM     16  C   UNL     1       3.410   2.942  18.288  0.00  0.00    +0.000 A 
ATOM     17  C   UNL     1       4.567   3.719  18.434  0.00  0.00    +0.000 A 
ATOM     18  C   UNL     1       4.522   5.097  18.214  0.00  0.00    +0.000 A 
ATOM     19  C   UNL     1       3.325   5.712  17.842  0.00  0.00    +0.000 A 
ATOM     20  C   UNL     1       2.162   4.946  17.730  0.00  0.00    +0.000 A 
ATOM     21  C   UNL     1       2.210   3.566  17.933  0.00  0.00    +0.000 A 
ENDBRANCH  14  19
ENDBRANCH   1  14
TORSDOF 3
ENDMDL
MODEL 9
REMARK VINA RESULT:      -7.3      0.102      1.470
REMARK  Name = 
REMARK  4 active torsions:
REMARK  status: ('A' for Active; 'I' for Inactive)
REMARK    1  A    between atoms: C_1  and  C_2
REMARK    2  A    between atoms: C_5  and  O_6
REMARK    3  A    between atoms: O_6  and  C_7
REMARK    4  A    between atoms: C_10  and  C_11
REMARK                            x       y       z     vdW  Elec       q    Type
REMARK                         _______ _______ _______ _____ _____    ______ ____
ROOT
ATOM      1  C   UNL     1       2.436   7.904  18.484  0.00  0.00    +0.000 A 
ATOM      2  N   UNL     1       2.323   7.517  19.762  0.00  0.00    +0.000 NA
ATOM      3  C   UNL     1       1.501   8.261  20.534  0.00  0.00    +0.000 A 
ATOM      4  C   UNL     1       0.796   9.378  20.104  0.00  0.00    +0.000 A 
ATOM      5  C   UNL     1       1.021   9.676  18.771  0.00  0.00    +0.000 A 
ATOM      6  N   UNL     1       1.832   8.978  17.951  0.00  0.00    +0.000 NA
ENDROOT
BRANCH   4   7
ATOM      7  C   UNL     1      -0.088  10.172  20.977  0.00  0.00    +0.000 A 
ATOM      8  C   UNL     1      -0.815  11.268  20.477  0.00  0.00    +0.000 A 
ATOM      9  C   UNL     1      -1.660  12.020  21.300  0.00  0.00    +0.000 A 
ATOM     10  C   UNL     1      -1.802  11.681  22.640  0.00  0.00    +0.000 A 
ATOM     11 CL   UNL     1      -2.847  12.597  23.651  0.00  0.00    +0.000 Cl
ATOM     12  C   UNL     1      -1.103  10.598  23.165  0.00  0.00    +0.000 A 
ATOM     13  C   UNL     1      -0.247   9.857  22.341  0.00  0.00    +0.000 A 
ENDBRANCH   4   7
BRANCH   1  14
ATOM     14  O   UNL     1       3.287   7.132  17.708  0.00  0.00    +0.000 OA
BRANCH  14  19
ATOM     15  C   UNL     1       3.358   1.509  18.490  0.00  0.00    +0.000 C 
ATOM     16  C   UNL     1       3.332   2.991  18.271  0.00  0.00    +0.000 A 
ATOM     17  C   UNL     1       4.506   3.754  18.328  0.00  0.00    +0.000 A 
ATOM     18  C   UNL     1       4.459   5.135  18.122  0.00  0.00    +0.000 A 
ATOM     19  C   UNL     1       3.243   5.765  17.850  0.00  0.00    +0.000 A 
ATOM     20  C   UNL     1       2.066   5.012  17.828  0.00  0.00    +0.000 A 
ATOM     21  C   UNL     1       2.115   3.631  18.018  0.00  0.00    +0.000 A 
ENDBRANCH  14  19
ENDBRANCH   1  14
TORSDOF 3
ENDMDL
