MODEL 1
REMARK VINA RESULT:      -6.5      0.000      0.000
REMARK  Name = 
REMARK  4 active torsions:
REMARK  status: ('A' for Active; 'I' for Inactive)
REMARK    1  A    between atoms: C_1  and  N_2
REMARK    2  A    between atoms: C_6  and  C_7
REMARK    3  A    between atoms: C_7  and  O_8
REMARK    4  A    between atoms: O_8  and  C_9
REMARK                            x       y       z     vdW  Elec       q    Type
REMARK                         _______ _______ _______ _____ _____    ______ ____
ROOT
ATOM      1  O   UNL     1       3.680   3.106  17.549  0.00  0.00    +0.000 OA
ENDROOT
BRANCH   1   2
ATOM      2  C   UNL     1       2.915   3.047  18.685  0.00  0.00    +0.000 A 
ATOM      3  C   UNL     1       3.602   2.714  19.857  0.00  0.00    +0.000 A 
ATOM      4  C   UNL     1       2.911   2.567  21.060  0.00  0.00    +0.000 A 
ATOM      5  C   UNL     1       1.538   2.774  21.089  0.00  0.00    +0.000 A 
ATOM      6  F   UNL     1       0.868   2.614  22.238  0.00  0.00    +0.000 F 
ATOM      7  C   UNL     1       0.847   3.147  19.942  0.00  0.00    +0.000 A 
ATOM      8  C   UNL     1       1.539   3.293  18.738  0.00  0.00    +0.000 A 
ENDBRANCH   1   2
BRANCH   1   9
ATOM      9  C   UNL     1       4.011   4.426  17.117  0.00  0.00    +0.000 C 
BRANCH   9  15
ATOM     10  C   UNL     1       5.967   5.298  19.366  0.00  0.00    +0.000 C 
ATOM     11  N   UNL     1       6.336   4.886  18.036  0.00  0.00    +0.000 N 
ATOM     12  C   UNL     1       7.616   4.770  17.575  0.00  0.00    +0.000 A 
ATOM     13  N   UNL     1       7.646   4.352  16.329  0.00  0.00    +0.000 NA
ATOM     14  C   UNL     1       6.335   4.195  15.972  0.00  0.00    +0.000 A 
ATOM     15  C   UNL     1       5.489   4.513  17.016  0.00  0.00    +0.000 A 
ENDBRANCH   9  15
ENDBRANCH   1   9
TORSDOF 3
ENDMDL
MODEL 2
REMARK VINA RESULT:      -6.4      0.716      1.596
REMARK  Name = 
REMARK  4 active torsions:
REMARK  status: ('A' for Active; 'I' for Inactive)
REMARK    1  A    between atoms: C_1  and  N_2
REMARK    2  A    between atoms: C_6  and  C_7
REMARK    3  A    between atoms: C_7  and  O_8
REMARK    4  A    between atoms: O_8  and  C_9
REMARK                            x       y       z     vdW  Elec       q    Type
REMARK                         _______ _______ _______ _____ _____    ______ ____
ROOT
ATOM      1  O   UNL     1       3.443   3.849  17.644  0.00  0.00    +0.000 OA
ENDROOT
BRANCH   1   2
ATOM      2  C   UNL     1       2.755   3.617  18.807  0.00  0.00    +0.000 A 
ATOM      3  C   UNL     1       3.427   2.845  19.759  0.00  0.00    +0.000 A 
ATOM      4  C   UNL     1       2.797   2.498  20.955  0.00  0.00    +0.000 A 
ATOM      5  C   UNL     1       1.504   2.942  21.200  0.00  0.00    +0.000 A 
ATOM      6  F   UNL     1       0.888   2.594  22.337  0.00  0.00    +0.000 F 
ATOM      7  C   UNL     1       0.839   3.745  20.281  0.00  0.00    +0.000 A 
ATOM      8  C   UNL     1       1.469   4.092  19.085  0.00  0.00    +0.000 A 
ENDBRANCH   1   2
BRANCH   1   9
ATOM      9  C   UNL     1       4.049   5.138  17.552  0.00  0.00    +0.000 C 
BRANCH   9  15
ATOM     10  C   UNL     1       6.273   4.124  15.634  0.00  0.00    +0.000 C 
ATOM     11  N   UNL     1       6.459   4.550  16.998  0.00  0.00    +0.000 N 
ATOM     12  C   UNL     1       7.661   4.618  17.643  0.00  0.00    +0.000 A 
ATOM     13  N   UNL     1       7.527   5.064  18.872  0.00  0.00    +0.000 NA
ATOM     14  C   UNL     1       6.186   5.289  19.027  0.00  0.00    +0.000 A 
ATOM     15  C   UNL     1       5.490   4.985  17.874  0.00  0.00    +0.000 A 
ENDBRANCH   9  15
ENDBRANCH   1   9
TORSDOF 3
ENDMDL
MODEL 3
REMARK VINA RESULT:      -6.3      1.384      1.975
REMARK  Name = 
REMARK  4 active torsions:
REMARK  status: ('A' for Active; 'I' for Inactive)
REMARK    1  A    between atoms: C_1  and  N_2
REMARK    2  A    between atoms: C_6  and  C_7
REMARK    3  A    between atoms: C_7  and  O_8
REMARK    4  A    between atoms: O_8  and  C_9
REMARK                            x       y       z     vdW  Elec       q    Type
REMARK                         _______ _______ _______ _____ _____    ______ ____
ROOT
ATOM      1  O   UNL     1       2.950   5.188  17.571  0.00  0.00    +0.000 OA
ENDROOT
BRANCH   1   2
ATOM      2  C   UNL     1       2.380   4.488  18.604  0.00  0.00    +0.000 A 
ATOM      3  C   UNL     1       2.354   5.150  19.835  0.00  0.00    +0.000 A 
ATOM      4  C   UNL     1       1.851   4.508  20.968  0.00  0.00    +0.000 A 
ATOM      5  C   UNL     1       1.359   3.213  20.858  0.00  0.00    +0.000 A 
ATOM      6  F   UNL     1       0.894   2.586  21.946  0.00  0.00    +0.000 F 
ATOM      7  C   UNL     1       1.340   2.559  19.632  0.00  0.00    +0.000 A 
ATOM      8  C   UNL     1       1.843   3.201  18.499  0.00  0.00    +0.000 A 
ENDBRANCH   1   2
BRANCH   1   9
ATOM      9  C   UNL     1       3.935   6.143  17.964  0.00  0.00    +0.000 C 
BRANCH   9  15
ATOM     10  C   UNL     1       5.557   5.551  15.382  0.00  0.00    +0.000 C 
ATOM     11  N   UNL     1       5.969   5.250  16.730  0.00  0.00    +0.000 N 
ATOM     12  C   UNL     1       7.167   4.697  17.081  0.00  0.00    +0.000 A 
ATOM     13  N   UNL     1       7.274   4.559  18.383  0.00  0.00    +0.000 NA
ATOM     14  C   UNL     1       6.099   5.038  18.892  0.00  0.00    +0.000 A 
ATOM     15  C   UNL     1       5.262   5.485  17.888  0.00  0.00    +0.000 A 
ENDBRANCH   9  15
ENDBRANCH   1   9
TORSDOF 3
ENDMDL
MODEL 4
REMARK VINA RESULT:      -6.3      1.360      2.058
REMARK  Name = 
REMARK  4 active torsions:
REMARK  status: ('A' for Active; 'I' for Inactive)
REMARK    1  A    between atoms: C_1  and  N_2
REMARK    2  A    between atoms: C_6  and  C_7
REMARK    3  A    between atoms: C_7  and  O_8
REMARK    4  A    between atoms: O_8  and  C_9
REMARK                            x       y       z     vdW  Elec       q    Type
REMARK                         _______ _______ _______ _____ _____    ______ ____
ROOT
ATOM      1  O   UNL     1       3.078   5.069  17.597  0.00  0.00    +0.000 OA
ENDROOT
BRANCH   1   2
ATOM      2  C   UNL     1       2.583   4.489  18.737  0.00  0.00    +0.000 A 
ATOM      3  C   UNL     1       1.910   3.277  18.551  0.00  0.00    +0.000 A 
ATOM      4  C   UNL     1       1.314   2.631  19.636  0.00  0.00    +0.000 A 
ATOM      5  C   UNL     1       1.411   3.191  20.903  0.00  0.00    +0.000 A 
ATOM      6  F   UNL     1       0.824   2.585  21.942  0.00  0.00    +0.000 F 
ATOM      7  C   UNL     1       2.112   4.374  21.109  0.00  0.00    +0.000 A 
ATOM      8  C   UNL     1       2.708   5.020  20.025  0.00  0.00    +0.000 A 
ENDBRANCH   1   2
BRANCH   1   9
ATOM      9  C   UNL     1       4.064   6.077  17.816  0.00  0.00    +0.000 C 
BRANCH   9  15
ATOM     10  C   UNL     1       5.584   5.285  15.225  0.00  0.00    +0.000 C 
ATOM     11  N   UNL     1       6.059   5.108  16.575  0.00  0.00    +0.000 N 
ATOM     12  C   UNL     1       7.280   4.604  16.918  0.00  0.00    +0.000 A 
ATOM     13  N   UNL     1       7.446   4.581  18.222  0.00  0.00    +0.000 NA
ATOM     14  C   UNL     1       6.285   5.086  18.739  0.00  0.00    +0.000 A 
ATOM     15  C   UNL     1       5.398   5.433  17.738  0.00  0.00    +0.000 A 
ENDBRANCH   9  15
ENDBRANCH   1   9
TORSDOF 3
ENDMDL
MODEL 5
REMARK VINA RESULT:      -6.3      1.658      2.273
REMARK  Name = 
REMARK  4 active torsions:
REMARK  status: ('A' for Active; 'I' for Inactive)
REMARK    1  A    between atoms: C_1  and  N_2
REMARK    2  A    between atoms: C_6  and  C_7
REMARK    3  A    between atoms: C_7  and  O_8
REMARK    4  A    between atoms: O_8  and  C_9
REMARK                            x       y       z     vdW  Elec       q    Type
REMARK                         _______ _______ _______ _____ _____    ______ ____
ROOT
ATOM      1  O   UNL     1       5.351   3.612  19.541  0.00  0.00    +0.000 OA
ENDROOT
BRANCH   1   2
ATOM      2  C   UNL     1       4.065   3.276  19.206  0.00  0.00    +0.000 A 
ATOM      3  C   UNL     1       3.067   3.841  20.007  0.00  0.00    +0.000 A 
ATOM      4  C   UNL     1       1.726   3.519  19.793  0.00  0.00    +0.000 A 
ATOM      5  C   UNL     1       1.389   2.648  18.765  0.00  0.00    +0.000 A 
ATOM      6  F   UNL     1       0.105   2.320  18.568  0.00  0.00    +0.000 F 
ATOM      7  C   UNL     1       2.365   2.112  17.933  0.00  0.00    +0.000 A 
ATOM      8  C   UNL     1       3.707   2.434  18.148  0.00  0.00    +0.000 A 
ENDBRANCH   1   2
BRANCH   1   9
ATOM      9  C   UNL     1       5.705   4.969  19.274  0.00  0.00    +0.000 C 
BRANCH   9  15
ATOM     10  C   UNL     1       4.475   6.495  16.865  0.00  0.00    +0.000 C 
ATOM     11  N   UNL     1       5.698   5.733  16.850  0.00  0.00    +0.000 N 
ATOM     12  C   UNL     1       6.532   5.605  15.777  0.00  0.00    +0.000 A 
ATOM     13  N   UNL     1       7.582   4.870  16.064  0.00  0.00    +0.000 NA
ATOM     14  C   UNL     1       7.417   4.506  17.372  0.00  0.00    +0.000 A 
ATOM     15  C   UNL     1       6.254   5.034  17.897  0.00  0.00    +0.000 A 
ENDBRANCH   9  15
ENDBRANCH   1   9
TORSDOF 3
ENDMDL
MODEL 6
REMARK VINA RESULT:      -6.3      1.528      1.646
REMARK  Name = 
REMARK  4 active torsions:
REMARK  status: ('A' for Active; 'I' for Inactive)
REMARK    1  A    between atoms: C_1  and  N_2
REMARK    2  A    between atoms: C_6  and  C_7
REMARK    3  A    between atoms: C_7  and  O_8
REMARK    4  A    between atoms: O_8  and  C_9
REMARK                            x       y       z     vdW  Elec       q    Type
REMARK                         _______ _______ _______ _____ _____    ______ ____
ROOT
ATOM      1  O   UNL     1       2.864   5.417  17.792  0.00  0.00    +0.000 OA
ENDROOT
BRANCH   1   2
ATOM      2  C   UNL     1       2.293   4.666  18.786  0.00  0.00    +0.000 A 
ATOM      3  C   UNL     1       2.693   4.985  20.088  0.00  0.00    +0.000 A 
ATOM      4  C   UNL     1       2.219   4.244  21.171  0.00  0.00    +0.000 A 
ATOM      5  C   UNL     1       1.332   3.199  20.948  0.00  0.00    +0.000 A 
ATOM      6  F   UNL     1       0.890   2.473  21.983  0.00  0.00    +0.000 F 
ATOM      7  C   UNL     1       0.892   2.897  19.665  0.00  0.00    +0.000 A 
ATOM      8  C   UNL     1       1.366   3.638  18.581  0.00  0.00    +0.000 A 
ENDBRANCH   1   2
BRANCH   1   9
ATOM      9  C   UNL     1       4.188   5.873  18.070  0.00  0.00    +0.000 C 
BRANCH   9  15
ATOM     10  C   UNL     1       7.090   6.759  17.401  0.00  0.00    +0.000 C 
ATOM     11  N   UNL     1       6.392   5.637  16.827  0.00  0.00    +0.000 N 
ATOM     12  C   UNL     1       6.925   4.757  15.929  0.00  0.00    +0.000 A 
ATOM     13  N   UNL     1       6.064   3.821  15.598  0.00  0.00    +0.000 NA
ATOM     14  C   UNL     1       4.931   4.110  16.308  0.00  0.00    +0.000 A 
ATOM     15  C   UNL     1       5.103   5.234  17.092  0.00  0.00    +0.000 A 
ENDBRANCH   9  15
ENDBRANCH   1   9
TORSDOF 3
ENDMDL
MODEL 7
REMARK VINA RESULT:      -6.3      3.465      5.741
REMARK  Name = 
REMARK  4 active torsions:
REMARK  status: ('A' for Active; 'I' for Inactive)
REMARK    1  A    between atoms: C_1  and  N_2
REMARK    2  A    between atoms: C_6  and  C_7
REMARK    3  A    between atoms: C_7  and  O_8
REMARK    4  A    between atoms: O_8  and  C_9
REMARK                            x       y       z     vdW  Elec       q    Type
REMARK                         _______ _______ _______ _____ _____    ______ ____
ROOT
ATOM      1  O   UNL     1       5.125   3.449  19.298  0.00  0.00    +0.000 OA
ENDROOT
BRANCH   1   2
ATOM      2  C   UNL     1       5.127   4.287  18.213  0.00  0.00    +0.000 A 
ATOM      3  C   UNL     1       4.920   5.640  18.499  0.00  0.00    +0.000 A 
ATOM      4  C   UNL     1       4.843   6.574  17.464  0.00  0.00    +0.000 A 
ATOM      5  C   UNL     1       4.994   6.151  16.150  0.00  0.00    +0.000 A 
ATOM      6  F   UNL     1       4.900   7.041  15.153  0.00  0.00    +0.000 F 
ATOM      7  C   UNL     1       5.242   4.816  15.853  0.00  0.00    +0.000 A 
ATOM      8  C   UNL     1       5.319   3.882  16.888  0.00  0.00    +0.000 A 
ENDBRANCH   1   2
BRANCH   1   9
ATOM      9  C   UNL     1       4.188   2.374  19.225  0.00  0.00    +0.000 C 
BRANCH   9  15
ATOM     10  C   UNL     1       1.474   3.593  18.332  0.00  0.00    +0.000 C 
ATOM     11  N   UNL     1       1.841   3.235  19.679  0.00  0.00    +0.000 N 
ATOM     12  C   UNL     1       1.023   3.334  20.769  0.00  0.00    +0.000 A 
ATOM     13  N   UNL     1       1.620   2.913  21.861  0.00  0.00    +0.000 NA
ATOM     14  C   UNL     1       2.871   2.531  21.462  0.00  0.00    +0.000 A 
ATOM     15  C   UNL     1       3.041   2.711  20.103  0.00  0.00    +0.000 A 
ENDBRANCH   9  15
ENDBRANCH   1   9
TORSDOF 3
ENDMDL
MODEL 8
REMARK VINA RESULT:      -6.2      3.655      6.155
REMARK  Name = 
REMARK  4 active torsions:
REMARK  status: ('A' for Active; 'I' for Inactive)
REMARK    1  A    between atoms: C_1  and  N_2
REMARK    2  A    between atoms: C_6  and  C_7
REMARK    3  A    between atoms: C_7  and  O_8
REMARK    4  A    between atoms: O_8  and  C_9
REMARK                            x       y       z     vdW  Elec       q    Type
REMARK                         _______ _______ _______ _____ _____    ______ ____
ROOT
ATOM      1  O   UNL     1       5.474   3.964  19.347  0.00  0.00    +0.000 OA
ENDROOT
BRANCH   1   2
ATOM      2  C   UNL     1       6.161   5.052  18.874  0.00  0.00    +0.000 A 
ATOM      3  C   UNL     1       5.556   5.729  17.811  0.00  0.00    +0.000 A 
ATOM      4  C   UNL     1       6.197   6.815  17.212  0.00  0.00    +0.000 A 
ATOM      5  C   UNL     1       7.432   7.230  17.695  0.00  0.00    +0.000 A 
ATOM      6  F   UNL     1       8.060   8.259  17.110  0.00  0.00    +0.000 F 
ATOM      7  C   UNL     1       8.026   6.593  18.778  0.00  0.00    +0.000 A 
ATOM      8  C   UNL     1       7.384   5.507  19.376  0.00  0.00    +0.000 A 
ENDBRANCH   1   2
BRANCH   1   9
ATOM      9  C   UNL     1       4.399   3.525  18.517  0.00  0.00    +0.000 C 
BRANCH   9  15
ATOM     10  C   UNL     1       1.465   4.243  17.794  0.00  0.00    +0.000 C 
ATOM     11  N   UNL     1       1.912   3.646  19.027  0.00  0.00    +0.000 N 
ATOM     12  C   UNL     1       1.099   3.259  20.053  0.00  0.00    +0.000 A 
ATOM     13  N   UNL     1       1.785   2.725  21.039  0.00  0.00    +0.000 NA
ATOM     14  C   UNL     1       3.091   2.773  20.635  0.00  0.00    +0.000 A 
ATOM     15  C   UNL     1       3.206   3.335  19.379  0.00  0.00    +0.000 A 
ENDBRANCH   9  15
ENDBRANCH   1   9
TORSDOF 3
ENDMDL
MODEL 9
REMARK VINA RESULT:      -6.2      1.878      2.468
REMARK  Name = 
REMARK  4 active torsions:
REMARK  status: ('A' for Active; 'I' for Inactive)
REMARK    1  A    between atoms: C_1  and  N_2
REMARK    2  A    between atoms: C_6  and  C_7
REMARK    3  A    between atoms: C_7  and  O_8
REMARK    4  A    between atoms: O_8  and  C_9
REMARK                            x       y       z     vdW  Elec       q    Type
REMARK                         _______ _______ _______ _____ _____    ______ ____
ROOT
ATOM      1  O   UNL     1       5.413   3.689  19.290  0.00  0.00    +0.000 OA
ENDROOT
BRANCH   1   2
ATOM      2  C   UNL     1       4.092   3.329  19.210  0.00  0.00    +0.000 A 
ATOM      3  C   UNL     1       3.750   2.539  18.108  0.00  0.00    +0.000 A 
ATOM      4  C   UNL     1       2.422   2.165  17.896  0.00  0.00    +0.000 A 
ATOM      5  C   UNL     1       1.447   2.566  18.799  0.00  0.00    +0.000 A 
ATOM      6  F   UNL     1       0.169   2.227  18.588  0.00  0.00    +0.000 F 
ATOM      7  C   UNL     1       1.778   3.316  19.922  0.00  0.00    +0.000 A 
ATOM      8  C   UNL     1       3.106   3.690  20.134  0.00  0.00    +0.000 A 
ENDBRANCH   1   2
BRANCH   1   9
ATOM      9  C   UNL     1       5.653   5.097  19.281  0.00  0.00    +0.000 C 
BRANCH   9  15
ATOM     10  C   UNL     1       3.480   6.793  17.847  0.00  0.00    +0.000 C 
ATOM     11  N   UNL     1       4.706   6.312  17.260  0.00  0.00    +0.000 N 
ATOM     12  C   UNL     1       5.122   6.573  15.986  0.00  0.00    +0.000 A 
ATOM     13  N   UNL     1       6.288   6.023  15.735  0.00  0.00    +0.000 NA
ATOM     14  C   UNL     1       6.637   5.379  16.890  0.00  0.00    +0.000 A 
ATOM     15  C   UNL     1       5.674   5.545  17.867  0.00  0.00    +0.000 A 
ENDBRANCH   9  15
ENDBRANCH   1   9
TORSDOF 3
ENDMDL
