MODEL 1
REMARK VINA RESULT:      -7.9      0.000      0.000
REMARK  Name = 
REMARK  4 active torsions:
REMARK  status: ('A' for Active; 'I' for Inactive)
REMARK    1  A    between atoms: C_1  and  C_2
REMARK    2  A    between atoms: C_2  and  N_3
REMARK    3  A    between atoms: N_12  and  C_13
REMARK    4  A    between atoms: C_17  and  C_18
REMARK                            x       y       z     vdW  Elec       q    Type
REMARK                         _______ _______ _______ _____ _____    ______ ____
ROOT
ATOM      1  N   UNL     1       0.934  10.481  18.829  0.00  0.00    +0.000 N 
ATOM      2  C   UNL     1      -0.325  11.075  18.961  0.00  0.00    +0.000 A 
ATOM      3  N   UNL     1      -1.070  11.306  17.848  0.00  0.00    +0.000 NA
ATOM      4  C   UNL     1      -2.320  11.809  17.998  0.00  0.00    +0.000 A 
ATOM      5  C   UNL     1      -2.872  12.161  19.215  0.00  0.00    +0.000 A 
ATOM      6  C   UNL     1      -2.094  11.974  20.343  0.00  0.00    +0.000 A 
ATOM      7  C   UNL     1      -0.825  11.403  20.206  0.00  0.00    +0.000 A 
ATOM      8  C   UNL     1      -0.063  11.145  21.423  0.00  0.00    +0.000 C 
ATOM      9  O   UNL     1       0.004  12.042  22.262  0.00  0.00    +0.000 OA
ATOM     10  N   UNL     1       0.246   9.818  21.676  0.00  0.00    +0.000 N 
ATOM     11  C   UNL     1      -0.060   9.370  23.026  0.00  0.00    +0.000 C 
ATOM     12  C   UNL     1       0.912   8.933  20.751  0.00  0.00    +0.000 A 
ATOM     13  C   UNL     1       1.254   7.652  21.193  0.00  0.00    +0.000 A 
ATOM     14  C   UNL     1       1.987   6.782  20.402  0.00  0.00    +0.000 A 
ATOM     15  C   UNL     1       2.416   7.199  19.154  0.00  0.00    +0.000 A 
ATOM     16  N   UNL     1       2.110   8.435  18.687  0.00  0.00    +0.000 NA
ATOM     17  C   UNL     1       1.344   9.290  19.444  0.00  0.00    +0.000 A 
ENDROOT
BRANCH  15  18
ATOM     18  C   UNL     1       3.164   6.281  18.275  0.00  0.00    +0.000 A 
ATOM     19  C   UNL     1       4.169   6.733  17.404  0.00  0.00    +0.000 A 
ATOM     20  C   UNL     1       4.965   5.833  16.697  0.00  0.00    +0.000 A 
ATOM     21  C   UNL     1       4.729   4.477  16.843  0.00  0.00    +0.000 A 
ATOM     22  N   UNL     1       5.559   3.552  16.217  0.00  0.00    +0.000 N 
ATOM     23  N   UNL     1       3.753   3.998  17.632  0.00  0.00    +0.000 NA
ATOM     24  C   UNL     1       2.997   4.898  18.321  0.00  0.00    +0.000 A 
ATOM     25  H   UNL     1       5.644   3.728  15.224  0.00  0.00    +0.000 HD
ATOM     26  H   UNL     1       5.182   2.629  16.415  0.00  0.00    +0.000 HD
ENDBRANCH  15  18
BRANCH   1  28
ATOM     27  C   UNL     1       2.231  12.521  18.522  0.00  0.00    +0.000 C 
ATOM     28  C   UNL     1       1.850  11.168  17.919  0.00  0.00    +0.000 C 
ENDBRANCH   1  28
TORSDOF 2
ENDMDL
MODEL 2
REMARK VINA RESULT:      -7.4      2.789      7.892
REMARK  Name = 
REMARK  4 active torsions:
REMARK  status: ('A' for Active; 'I' for Inactive)
REMARK    1  A    between atoms: C_1  and  C_2
REMARK    2  A    between atoms: C_2  and  N_3
REMARK    3  A    between atoms: N_12  and  C_13
REMARK    4  A    between atoms: C_17  and  C_18
REMARK                            x       y       z     vdW  Elec       q    Type
REMARK                         _______ _______ _______ _____ _____    ______ ____
ROOT
ATOM      1  N   UNL     1       2.306   5.387  19.708  0.00  0.00    +0.000 N 
ATOM      2  C   UNL     1       2.425   4.145  19.077  0.00  0.00    +0.000 A 
ATOM      3  N   UNL     1       1.362   3.297  19.077  0.00  0.00    +0.000 NA
ATOM      4  C   UNL     1       1.465   2.130  18.393  0.00  0.00    +0.000 A 
ATOM      5  C   UNL     1       2.608   1.714  17.737  0.00  0.00    +0.000 A 
ATOM      6  C   UNL     1       3.706   2.554  17.782  0.00  0.00    +0.000 A 
ATOM      7  C   UNL     1       3.594   3.786  18.435  0.00  0.00    +0.000 A 
ATOM      8  C   UNL     1       4.744   4.682  18.394  0.00  0.00    +0.000 C 
ATOM      9  O   UNL     1       5.852   4.211  18.643  0.00  0.00    +0.000 OA
ATOM     10  N   UNL     1       4.541   5.902  17.768  0.00  0.00    +0.000 N 
ATOM     11  C   UNL     1       5.554   6.257  16.786  0.00  0.00    +0.000 C 
ATOM     12  C   UNL     1       3.487   6.833  18.094  0.00  0.00    +0.000 A 
ATOM     13  C   UNL     1       3.479   8.073  17.448  0.00  0.00    +0.000 A 
ATOM     14  C   UNL     1       2.566   9.060  17.781  0.00  0.00    +0.000 A 
ATOM     15  C   UNL     1       1.655   8.825  18.796  0.00  0.00    +0.000 A 
ATOM     16  N   UNL     1       1.630   7.638  19.452  0.00  0.00    +0.000 NA
ATOM     17  C   UNL     1       2.502   6.635  19.099  0.00  0.00    +0.000 A 
ENDROOT
BRANCH  15  18
ATOM     18  C   UNL     1       0.646   9.841  19.146  0.00  0.00    +0.000 A 
ATOM     19  C   UNL     1      -0.394  10.197  18.270  0.00  0.00    +0.000 A 
ATOM     20  C   UNL     1      -1.420  11.045  18.681  0.00  0.00    +0.000 A 
ATOM     21  C   UNL     1      -1.387  11.560  19.966  0.00  0.00    +0.000 A 
ATOM     22  N   UNL     1      -2.439  12.342  20.433  0.00  0.00    +0.000 N 
ATOM     23  N   UNL     1      -0.394  11.282  20.825  0.00  0.00    +0.000 NA
ATOM     24  C   UNL     1       0.592  10.441  20.404  0.00  0.00    +0.000 A 
ATOM     25  H   UNL     1      -2.644  13.115  19.812  0.00  0.00    +0.000 HD
ATOM     26  H   UNL     1      -2.191  12.651  21.368  0.00  0.00    +0.000 HD
ENDBRANCH  15  18
BRANCH   1  28
ATOM     27  C   UNL     1       2.356   4.007  21.716  0.00  0.00    +0.000 C 
ATOM     28  C   UNL     1       1.889   5.332  21.108  0.00  0.00    +0.000 C 
ENDBRANCH   1  28
TORSDOF 2
ENDMDL
MODEL 3
REMARK VINA RESULT:      -7.1      2.859      8.024
REMARK  Name = 
REMARK  4 active torsions:
REMARK  status: ('A' for Active; 'I' for Inactive)
REMARK    1  A    between atoms: C_1  and  C_2
REMARK    2  A    between atoms: C_2  and  N_3
REMARK    3  A    between atoms: N_12  and  C_13
REMARK    4  A    between atoms: C_17  and  C_18
REMARK                            x       y       z     vdW  Elec       q    Type
REMARK                         _______ _______ _______ _____ _____    ______ ____
ROOT
ATOM      1  N   UNL     1       2.353   5.161  20.165  0.00  0.00    +0.000 N 
ATOM      2  C   UNL     1       2.357   4.056  19.308  0.00  0.00    +0.000 A 
ATOM      3  N   UNL     1       1.391   3.108  19.443  0.00  0.00    +0.000 NA
ATOM      4  C   UNL     1       1.359   2.085  18.554  0.00  0.00    +0.000 A 
ATOM      5  C   UNL     1       2.287   1.906  17.545  0.00  0.00    +0.000 A 
ATOM      6  C   UNL     1       3.299   2.842  17.440  0.00  0.00    +0.000 A 
ATOM      7  C   UNL     1       3.309   3.934  18.314  0.00  0.00    +0.000 A 
ATOM      8  C   UNL     1       4.343   4.945  18.125  0.00  0.00    +0.000 C 
ATOM      9  O   UNL     1       5.501   4.563  17.969  0.00  0.00    +0.000 OA
ATOM     10  N   UNL     1       3.896   6.220  17.815  0.00  0.00    +0.000 N 
ATOM     11  C   UNL     1       4.559   6.836  16.676  0.00  0.00    +0.000 C 
ATOM     12  C   UNL     1       2.929   6.966  18.584  0.00  0.00    +0.000 A 
ATOM     13  C   UNL     1       2.661   8.285  18.206  0.00  0.00    +0.000 A 
ATOM     14  C   UNL     1       1.828   9.101  18.954  0.00  0.00    +0.000 A 
ATOM     15  C   UNL     1       1.266   8.608  20.119  0.00  0.00    +0.000 A 
ATOM     16  N   UNL     1       1.501   7.336  20.525  0.00  0.00    +0.000 NA
ATOM     17  C   UNL     1       2.291   6.504  19.767  0.00  0.00    +0.000 A 
ENDROOT
BRANCH  15  18
ATOM     18  C   UNL     1       0.343   9.440  20.914  0.00  0.00    +0.000 A 
ATOM     19  C   UNL     1       0.101   9.195  22.276  0.00  0.00    +0.000 A 
ATOM     20  C   UNL     1      -0.653  10.082  23.042  0.00  0.00    +0.000 A 
ATOM     21  C   UNL     1      -1.189  11.203  22.430  0.00  0.00    +0.000 A 
ATOM     22  N   UNL     1      -1.875  12.150  23.185  0.00  0.00    +0.000 N 
ATOM     23  N   UNL     1      -1.018  11.459  21.123  0.00  0.00    +0.000 NA
ATOM     24  C   UNL     1      -0.268  10.582  20.399  0.00  0.00    +0.000 A 
ATOM     25  H   UNL     1      -2.617  11.734  23.735  0.00  0.00    +0.000 HD
ATOM     26  H   UNL     1      -2.221  12.854  22.539  0.00  0.00    +0.000 HD
ENDBRANCH  15  18
BRANCH   1  28
ATOM     27  C   UNL     1       2.369   3.316  21.758  0.00  0.00    +0.000 C 
ATOM     28  C   UNL     1       2.364   4.837  21.591  0.00  0.00    +0.000 C 
ENDBRANCH   1  28
TORSDOF 2
ENDMDL
MODEL 4
REMARK VINA RESULT:      -7.0      8.646     11.069
REMARK  Name = 
REMARK  4 active torsions:
REMARK  status: ('A' for Active; 'I' for Inactive)
REMARK    1  A    between atoms: C_1  and  C_2
REMARK    2  A    between atoms: C_2  and  N_3
REMARK    3  A    between atoms: N_12  and  C_13
REMARK    4  A    between atoms: C_17  and  C_18
REMARK                            x       y       z     vdW  Elec       q    Type
REMARK                         _______ _______ _______ _____ _____    ______ ____
ROOT
ATOM      1  N   UNL     1       8.715  14.791  19.015  0.00  0.00    +0.000 N 
ATOM      2  C   UNL     1       9.667  15.650  18.458  0.00  0.00    +0.000 A 
ATOM      3  N   UNL     1       9.578  16.985  18.699  0.00  0.00    +0.000 NA
ATOM      4  C   UNL     1      10.553  17.797  18.220  0.00  0.00    +0.000 A 
ATOM      5  C   UNL     1      11.611  17.361  17.444  0.00  0.00    +0.000 A 
ATOM      6  C   UNL     1      11.672  16.010  17.154  0.00  0.00    +0.000 A 
ATOM      7  C   UNL     1      10.705  15.155  17.692  0.00  0.00    +0.000 A 
ATOM      8  C   UNL     1      10.844  13.727  17.434  0.00  0.00    +0.000 C 
ATOM      9  O   UNL     1      11.081  13.368  16.282  0.00  0.00    +0.000 OA
ATOM     10  N   UNL     1      11.020  12.923  18.550  0.00  0.00    +0.000 N 
ATOM     11  C   UNL     1      12.126  11.982  18.453  0.00  0.00    +0.000 C 
ATOM     12  C   UNL     1      10.149  12.904  19.700  0.00  0.00    +0.000 A 
ATOM     13  C   UNL     1      10.397  11.958  20.700  0.00  0.00    +0.000 A 
ATOM     14  C   UNL     1       9.546  11.805  21.783  0.00  0.00    +0.000 A 
ATOM     15  C   UNL     1       8.408  12.589  21.866  0.00  0.00    +0.000 A 
ATOM     16  N   UNL     1       8.127  13.516  20.917  0.00  0.00    +0.000 NA
ATOM     17  C   UNL     1       8.988  13.707  19.862  0.00  0.00    +0.000 A 
ENDROOT
BRANCH  15  18
ATOM     18  C   UNL     1       7.505  12.476  23.026  0.00  0.00    +0.000 A 
ATOM     19  C   UNL     1       7.802  11.658  24.128  0.00  0.00    +0.000 A 
ATOM     20  C   UNL     1       7.012  11.684  25.276  0.00  0.00    +0.000 A 
ATOM     21  C   UNL     1       5.904  12.514  25.304  0.00  0.00    +0.000 A 
ATOM     22  N   UNL     1       5.143  12.626  26.464  0.00  0.00    +0.000 N 
ATOM     23  N   UNL     1       5.556  13.284  24.260  0.00  0.00    +0.000 NA
ATOM     24  C   UNL     1       6.351  13.248  23.154  0.00  0.00    +0.000 A 
ATOM     25  H   UNL     1       4.842  11.723  26.810  0.00  0.00    +0.000 HD
ATOM     26  H   UNL     1       4.362  13.239  26.252  0.00  0.00    +0.000 HD
ENDBRANCH  15  18
BRANCH   1  28
ATOM     27  C   UNL     1       6.843  14.224  17.560  0.00  0.00    +0.000 C 
ATOM     28  C   UNL     1       7.325  15.122  18.702  0.00  0.00    +0.000 C 
ENDBRANCH   1  28
TORSDOF 2
ENDMDL
MODEL 5
REMARK VINA RESULT:      -6.8      1.818      2.973
REMARK  Name = 
REMARK  4 active torsions:
REMARK  status: ('A' for Active; 'I' for Inactive)
REMARK    1  A    between atoms: C_1  and  C_2
REMARK    2  A    between atoms: C_2  and  N_3
REMARK    3  A    between atoms: N_12  and  C_13
REMARK    4  A    between atoms: C_17  and  C_18
REMARK                            x       y       z     vdW  Elec       q    Type
REMARK                         _______ _______ _______ _____ _____    ______ ____
ROOT
ATOM      1  N   UNL     1      -1.503  11.764  19.040  0.00  0.00    +0.000 N 
ATOM      2  C   UNL     1      -2.874  12.018  19.142  0.00  0.00    +0.000 A 
ATOM      3  N   UNL     1      -3.690  11.683  18.108  0.00  0.00    +0.000 NA
ATOM      4  C   UNL     1      -5.026  11.862  18.252  0.00  0.00    +0.000 A 
ATOM      5  C   UNL     1      -5.616  12.422  19.370  0.00  0.00    +0.000 A 
ATOM      6  C   UNL     1      -4.781  12.811  20.401  0.00  0.00    +0.000 A 
ATOM      7  C   UNL     1      -3.406  12.579  20.287  0.00  0.00    +0.000 A 
ATOM      8  C   UNL     1      -2.564  12.927  21.425  0.00  0.00    +0.000 C 
ATOM      9  O   UNL     1      -2.728  14.027  21.950  0.00  0.00    +0.000 OA
ATOM     10  N   UNL     1      -1.880  11.877  22.018  0.00  0.00    +0.000 N 
ATOM     11  C   UNL     1      -2.001  11.813  23.466  0.00  0.00    +0.000 C 
ATOM     12  C   UNL     1      -1.019  10.952  21.320  0.00  0.00    +0.000 A 
ATOM     13  C   UNL     1      -0.311  10.012  22.074  0.00  0.00    +0.000 A 
ATOM     14  C   UNL     1       0.614   9.161  21.492  0.00  0.00    +0.000 A 
ATOM     15  C   UNL     1       0.865   9.260  20.135  0.00  0.00    +0.000 A 
ATOM     16  N   UNL     1       0.204  10.160  19.365  0.00  0.00    +0.000 NA
ATOM     17  C   UNL     1      -0.750  10.978  19.925  0.00  0.00    +0.000 A 
ENDROOT
BRANCH  15  18
ATOM     18  C   UNL     1       1.815   8.341  19.480  0.00  0.00    +0.000 A 
ATOM     19  C   UNL     1       2.160   7.099  20.039  0.00  0.00    +0.000 A 
ATOM     20  C   UNL     1       2.939   6.185  19.331  0.00  0.00    +0.000 A 
ATOM     21  C   UNL     1       3.395   6.532  18.071  0.00  0.00    +0.000 A 
ATOM     22  N   UNL     1       4.103   5.610  17.306  0.00  0.00    +0.000 N 
ATOM     23  N   UNL     1       3.125   7.723  17.512  0.00  0.00    +0.000 NA
ATOM     24  C   UNL     1       2.353   8.594  18.220  0.00  0.00    +0.000 A 
ATOM     25  H   UNL     1       4.894   5.226  17.808  0.00  0.00    +0.000 HD
ATOM     26  H   UNL     1       4.381   6.082  16.450  0.00  0.00    +0.000 HD
ENDBRANCH  15  18
BRANCH   1  28
ATOM     27  C   UNL     1      -0.181  13.659  18.266  0.00  0.00    +0.000 C 
ATOM     28  C   UNL     1      -0.851  12.343  17.866  0.00  0.00    +0.000 C 
ENDBRANCH   1  28
TORSDOF 2
ENDMDL
MODEL 6
REMARK VINA RESULT:      -6.8      1.708      2.501
REMARK  Name = 
REMARK  4 active torsions:
REMARK  status: ('A' for Active; 'I' for Inactive)
REMARK    1  A    between atoms: C_1  and  C_2
REMARK    2  A    between atoms: C_2  and  N_3
REMARK    3  A    between atoms: N_12  and  C_13
REMARK    4  A    between atoms: C_17  and  C_18
REMARK                            x       y       z     vdW  Elec       q    Type
REMARK                         _______ _______ _______ _____ _____    ______ ____
ROOT
ATOM      1  N   UNL     1      -1.200  11.605  19.004  0.00  0.00    +0.000 N 
ATOM      2  C   UNL     1      -2.557  11.925  19.118  0.00  0.00    +0.000 A 
ATOM      3  N   UNL     1      -3.389  11.667  18.075  0.00  0.00    +0.000 NA
ATOM      4  C   UNL     1      -4.715  11.908  18.229  0.00  0.00    +0.000 A 
ATOM      5  C   UNL     1      -5.275  12.457  19.367  0.00  0.00    +0.000 A 
ATOM      6  C   UNL     1      -4.421  12.768  20.409  0.00  0.00    +0.000 A 
ATOM      7  C   UNL     1      -3.059  12.471  20.284  0.00  0.00    +0.000 A 
ATOM      8  C   UNL     1      -2.199  12.736  21.431  0.00  0.00    +0.000 C 
ATOM      9  O   UNL     1      -2.308  13.823  21.994  0.00  0.00    +0.000 OA
ATOM     10  N   UNL     1      -1.569  11.633  21.985  0.00  0.00    +0.000 N 
ATOM     11  C   UNL     1      -1.692  11.525  23.430  0.00  0.00    +0.000 C 
ATOM     12  C   UNL     1      -0.756  10.691  21.253  0.00  0.00    +0.000 A 
ATOM     13  C   UNL     1      -0.095   9.690  21.972  0.00  0.00    +0.000 A 
ATOM     14  C   UNL     1       0.785   8.815  21.358  0.00  0.00    +0.000 A 
ATOM     15  C   UNL     1       1.039   8.949  20.004  0.00  0.00    +0.000 A 
ATOM     16  N   UNL     1       0.423   9.907  19.268  0.00  0.00    +0.000 NA
ATOM     17  C   UNL     1      -0.487  10.753  19.858  0.00  0.00    +0.000 A 
ENDROOT
BRANCH  15  18
ATOM     18  C   UNL     1       1.941   8.007  19.315  0.00  0.00    +0.000 A 
ATOM     19  C   UNL     1       2.549   8.316  18.087  0.00  0.00    +0.000 A 
ATOM     20  C   UNL     1       3.514   7.477  17.532  0.00  0.00    +0.000 A 
ATOM     21  C   UNL     1       3.847   6.310  18.199  0.00  0.00    +0.000 A 
ATOM     22  N   UNL     1       4.864   5.494  17.714  0.00  0.00    +0.000 N 
ATOM     23  N   UNL     1       3.263   5.952  19.355  0.00  0.00    +0.000 NA
ATOM     24  C   UNL     1       2.332   6.794  19.882  0.00  0.00    +0.000 A 
ATOM     25  H   UNL     1       4.723   5.246  16.743  0.00  0.00    +0.000 HD
ATOM     26  H   UNL     1       4.908   4.679  18.319  0.00  0.00    +0.000 HD
ENDBRANCH  15  18
BRANCH   1  28
ATOM     27  C   UNL     1      -0.077  13.613  18.201  0.00  0.00    +0.000 C 
ATOM     28  C   UNL     1      -0.522  12.192  17.849  0.00  0.00    +0.000 C 
ENDBRANCH   1  28
TORSDOF 2
ENDMDL
MODEL 7
REMARK VINA RESULT:      -6.8      1.977      3.392
REMARK  Name = 
REMARK  4 active torsions:
REMARK  status: ('A' for Active; 'I' for Inactive)
REMARK    1  A    between atoms: C_1  and  C_2
REMARK    2  A    between atoms: C_2  and  N_3
REMARK    3  A    between atoms: N_12  and  C_13
REMARK    4  A    between atoms: C_17  and  C_18
REMARK                            x       y       z     vdW  Elec       q    Type
REMARK                         _______ _______ _______ _____ _____    ______ ____
ROOT
ATOM      1  N   UNL     1       0.447  10.865  20.970  0.00  0.00    +0.000 N 
ATOM      2  C   UNL     1       0.297  12.255  21.012  0.00  0.00    +0.000 A 
ATOM      3  N   UNL     1       1.253  13.007  21.620  0.00  0.00    +0.000 NA
ATOM      4  C   UNL     1       1.134  14.357  21.584  0.00  0.00    +0.000 A 
ATOM      5  C   UNL     1       0.068  15.026  21.014  0.00  0.00    +0.000 A 
ATOM      6  C   UNL     1      -0.930  14.259  20.440  0.00  0.00    +0.000 A 
ATOM      7  C   UNL     1      -0.791  12.868  20.421  0.00  0.00    +0.000 A 
ATOM      8  C   UNL     1      -1.820  12.093  19.738  0.00  0.00    +0.000 C 
ATOM      9  O   UNL     1      -2.997  12.361  19.974  0.00  0.00    +0.000 OA
ATOM     10  N   UNL     1      -1.397  11.348  18.649  0.00  0.00    +0.000 N 
ATOM     11  C   UNL     1      -2.204  11.512  17.449  0.00  0.00    +0.000 C 
ATOM     12  C   UNL     1      -0.314  10.394  18.670  0.00  0.00    +0.000 A 
ATOM     13  C   UNL     1      -0.076   9.639  17.518  0.00  0.00    +0.000 A 
ATOM     14  C   UNL     1       0.873   8.631  17.492  0.00  0.00    +0.000 A 
ATOM     15  C   UNL     1       1.587   8.344  18.643  0.00  0.00    +0.000 A 
ATOM     16  N   UNL     1       1.387   9.049  19.784  0.00  0.00    +0.000 NA
ATOM     17  C   UNL     1       0.479  10.082  19.807  0.00  0.00    +0.000 A 
ENDROOT
BRANCH  15  18
ATOM     18  C   UNL     1       2.632   7.303  18.635  0.00  0.00    +0.000 A 
ATOM     19  C   UNL     1       3.655   7.277  17.672  0.00  0.00    +0.000 A 
ATOM     20  C   UNL     1       4.714   6.377  17.775  0.00  0.00    +0.000 A 
ATOM     21  C   UNL     1       4.730   5.483  18.832  0.00  0.00    +0.000 A 
ATOM     22  N   UNL     1       5.815   4.629  19.009  0.00  0.00    +0.000 N 
ATOM     23  N   UNL     1       3.755   5.443  19.754  0.00  0.00    +0.000 NA
ATOM     24  C   UNL     1       2.736   6.340  19.637  0.00  0.00    +0.000 A 
ATOM     25  H   UNL     1       6.022   4.098  18.172  0.00  0.00    +0.000 HD
ATOM     26  H   UNL     1       5.601   4.033  19.803  0.00  0.00    +0.000 HD
ENDBRANCH  15  18
BRANCH   1  28
ATOM     27  C   UNL     1      -0.723  10.086  22.961  0.00  0.00    +0.000 C 
ATOM     28  C   UNL     1       0.636  10.223  22.270  0.00  0.00    +0.000 C 
ENDBRANCH   1  28
TORSDOF 2
ENDMDL
MODEL 8
REMARK VINA RESULT:      -6.8      5.645      7.464
REMARK  Name = 
REMARK  4 active torsions:
REMARK  status: ('A' for Active; 'I' for Inactive)
REMARK    1  A    between atoms: C_1  and  C_2
REMARK    2  A    between atoms: C_2  and  N_3
REMARK    3  A    between atoms: N_12  and  C_13
REMARK    4  A    between atoms: C_17  and  C_18
REMARK                            x       y       z     vdW  Elec       q    Type
REMARK                         _______ _______ _______ _____ _____    ______ ____
ROOT
ATOM      1  N   UNL     1      -2.024  12.676  22.324  0.00  0.00    +0.000 N 
ATOM      2  C   UNL     1      -1.883  13.739  23.221  0.00  0.00    +0.000 A 
ATOM      3  N   UNL     1      -0.833  14.592  23.079  0.00  0.00    +0.000 NA
ATOM      4  C   UNL     1      -0.753  15.663  23.907  0.00  0.00    +0.000 A 
ATOM      5  C   UNL     1      -1.643  15.918  24.933  0.00  0.00    +0.000 A 
ATOM      6  C   UNL     1      -2.681  15.021  25.110  0.00  0.00    +0.000 A 
ATOM      7  C   UNL     1      -2.807  13.944  24.226  0.00  0.00    +0.000 A 
ATOM      8  C   UNL     1      -3.958  13.064  24.391  0.00  0.00    +0.000 C 
ATOM      9  O   UNL     1      -4.225  12.668  25.525  0.00  0.00    +0.000 OA
ATOM     10  N   UNL     1      -4.838  13.008  23.321  0.00  0.00    +0.000 N 
ATOM     11  C   UNL     1      -6.239  13.175  23.677  0.00  0.00    +0.000 C 
ATOM     12  C   UNL     1      -4.465  12.709  21.960  0.00  0.00    +0.000 A 
ATOM     13  C   UNL     1      -5.482  12.581  21.009  0.00  0.00    +0.000 A 
ATOM     14  C   UNL     1      -5.216  12.192  19.707  0.00  0.00    +0.000 A 
ATOM     15  C   UNL     1      -3.914  11.898  19.341  0.00  0.00    +0.000 A 
ATOM     16  N   UNL     1      -2.896  12.005  20.231  0.00  0.00    +0.000 NA
ATOM     17  C   UNL     1      -3.143  12.434  21.514  0.00  0.00    +0.000 A 
ENDROOT
BRANCH  15  18
ATOM     18  C   UNL     1      -3.594  11.520  17.952  0.00  0.00    +0.000 A 
ATOM     19  C   UNL     1      -2.410  10.843  17.614  0.00  0.00    +0.000 A 
ATOM     20  C   UNL     1      -2.201  10.363  16.323  0.00  0.00    +0.000 A 
ATOM     21  C   UNL     1      -3.172  10.588  15.362  0.00  0.00    +0.000 A 
ATOM     22  N   UNL     1      -3.031  10.049  14.086  0.00  0.00    +0.000 N 
ATOM     23  N   UNL     1      -4.302  11.265  15.626  0.00  0.00    +0.000 NA
ATOM     24  C   UNL     1      -4.487  11.714  16.899  0.00  0.00    +0.000 A 
ATOM     25  H   UNL     1      -2.142  10.291  13.667  0.00  0.00    +0.000 HD
ATOM     26  H   UNL     1      -3.820  10.374  13.535  0.00  0.00    +0.000 HD
ENDBRANCH  15  18
BRANCH   1  28
ATOM     27  C   UNL     1      -1.031  10.621  23.177  0.00  0.00    +0.000 C 
ATOM     28  C   UNL     1      -0.860  11.799  22.215  0.00  0.00    +0.000 C 
ENDBRANCH   1  28
TORSDOF 2
ENDMDL
MODEL 9
REMARK VINA RESULT:      -6.5      2.224      3.914
REMARK  Name = 
REMARK  4 active torsions:
REMARK  status: ('A' for Active; 'I' for Inactive)
REMARK    1  A    between atoms: C_1  and  C_2
REMARK    2  A    between atoms: C_2  and  N_3
REMARK    3  A    between atoms: N_12  and  C_13
REMARK    4  A    between atoms: C_17  and  C_18
REMARK                            x       y       z     vdW  Elec       q    Type
REMARK                         _______ _______ _______ _____ _____    ______ ____
ROOT
ATOM      1  N   UNL     1      -2.575  11.449  18.494  0.00  0.00    +0.000 N 
ATOM      2  C   UNL     1      -3.933  11.551  18.811  0.00  0.00    +0.000 A 
ATOM      3  N   UNL     1      -4.825  10.745  18.176  0.00  0.00    +0.000 NA
ATOM      4  C   UNL     1      -6.127  10.798  18.550  0.00  0.00    +0.000 A 
ATOM      5  C   UNL     1      -6.625  11.668  19.502  0.00  0.00    +0.000 A 
ATOM      6  C   UNL     1      -5.726  12.525  20.110  0.00  0.00    +0.000 A 
ATOM      7  C   UNL     1      -4.371  12.439  19.775  0.00  0.00    +0.000 A 
ATOM      8  C   UNL     1      -3.439  13.300  20.493  0.00  0.00    +0.000 C 
ATOM      9  O   UNL     1      -3.732  14.488  20.620  0.00  0.00    +0.000 OA
ATOM     10  N   UNL     1      -2.470  12.654  21.244  0.00  0.00    +0.000 N 
ATOM     11  C   UNL     1      -2.335  13.139  22.609  0.00  0.00    +0.000 C 
ATOM     12  C   UNL     1      -1.568  11.646  20.739  0.00  0.00    +0.000 A 
ATOM     13  C   UNL     1      -0.571  11.165  21.593  0.00  0.00    +0.000 A 
ATOM     14  C   UNL     1       0.397  10.278  21.152  0.00  0.00    +0.000 A 
ATOM     15  C   UNL     1       0.394   9.876  19.828  0.00  0.00    +0.000 A 
ATOM     16  N   UNL     1      -0.552  10.320  18.964  0.00  0.00    +0.000 NA
ATOM     17  C   UNL     1      -1.544  11.166  19.402  0.00  0.00    +0.000 A 
ENDROOT
BRANCH  15  18
ATOM     18  C   UNL     1       1.388   8.902  19.340  0.00  0.00    +0.000 A 
ATOM     19  C   UNL     1       1.738   7.757  20.075  0.00  0.00    +0.000 A 
ATOM     20  C   UNL     1       2.562   6.776  19.528  0.00  0.00    +0.000 A 
ATOM     21  C   UNL     1       3.059   6.959  18.249  0.00  0.00    +0.000 A 
ATOM     22  N   UNL     1       3.816   5.961  17.643  0.00  0.00    +0.000 N 
ATOM     23  N   UNL     1       2.786   8.055  17.522  0.00  0.00    +0.000 NA
ATOM     24  C   UNL     1       1.969   8.995  18.076  0.00  0.00    +0.000 A 
ATOM     25  H   UNL     1       4.594   5.669  18.221  0.00  0.00    +0.000 HD
ATOM     26  H   UNL     1       4.116   6.318  16.740  0.00  0.00    +0.000 HD
ENDBRANCH  15  18
BRANCH   1  28
ATOM     27  C   UNL     1      -2.381  10.249  16.383  0.00  0.00    +0.000 C 
ATOM     28  C   UNL     1      -2.256  11.607  17.076  0.00  0.00    +0.000 C 
ENDBRANCH   1  28
TORSDOF 2
ENDMDL
