MODEL 1
REMARK VINA RESULT:      -7.1      0.000      0.000
REMARK  Name = 
REMARK  6 active torsions:
REMARK  status: ('A' for Active; 'I' for Inactive)
REMARK    1  A    between atoms: C_1  and  N_2
REMARK    2  A    between atoms: N_2  and  C_3
REMARK    3  A    between atoms: N_12  and  C1*_13
REMARK    4  A    between atoms: C3*_15  and  O3*_16
REMARK    5  A    between atoms: C4*_17  and  C5*_18
REMARK    6  A    between atoms: C5*_18  and  O5*_19
REMARK                            x       y       z     vdW  Elec       q    Type
REMARK                         _______ _______ _______ _____ _____    ______ ____
ROOT
ATOM      1  C   UNL     1       6.874   5.888  16.844  0.00  0.00    +0.000 A 
ATOM      2  C   UNL     1       6.809   5.323  15.564  0.00  0.00    +0.000 A 
ATOM      3  C   UNL     1       5.727   4.521  15.215  0.00  0.00    +0.000 A 
ATOM      4 CL   UNL     1       5.630   3.866  13.626  0.00  0.00    +0.000 Cl
ATOM      5  N   UNL     1       4.680   4.176  16.006  0.00  0.00    +0.000 NA
ATOM      6  C   UNL     1       4.792   4.728  17.231  0.00  0.00    +0.000 A 
ATOM      7  C   UNL     1       5.802   5.554  17.707  0.00  0.00    +0.000 A 
ATOM      8  N   UNL     1       5.559   5.916  19.014  0.00  0.00    +0.000 NA
ATOM      9  C   UNL     1       4.428   5.320  19.327  0.00  0.00    +0.000 A 
ATOM     10  N   UNL     1       3.928   4.586  18.286  0.00  0.00    +0.000 N 
ENDROOT
BRANCH  10  11
ATOM     11  C1* UNL     1       2.723   3.788  18.280  0.00  0.00    +0.000 C 
ATOM     12  C2* UNL     1       2.929   2.357  18.752  0.00  0.00    +0.000 C 
ATOM     13  C3* UNL     1       1.578   2.014  19.339  0.00  0.00    +0.000 C 
ATOM     14  C4* UNL     1       1.103   3.339  19.929  0.00  0.00    +0.000 C 
ATOM     15  O4* UNL     1       1.748   4.386  19.162  0.00  0.00    +0.000 OA
BRANCH  13  16
ATOM     16  O3* UNL     1       0.713   1.567  18.294  0.00  0.00    +0.000 OA
ATOM     17  H3* UNL     1       0.575   0.606  18.369  0.00  0.00    +0.000 HD
ENDBRANCH  13  16
BRANCH  14  18
ATOM     18  C5* UNL     1       1.505   3.502  21.399  0.00  0.00    +0.000 C 
BRANCH  18  19
ATOM     19  O5* UNL     1       1.589   2.229  22.036  0.00  0.00    +0.000 OA
ATOM     20  H5* UNL     1       1.066   1.607  21.498  0.00  0.00    +0.000 HD
ENDBRANCH  18  19
ENDBRANCH  14  18
ENDBRANCH  10  11
BRANCH   1  22
ATOM     21  C   UNL     1       7.735   8.086  17.546  0.00  0.00    +0.000 C 
ATOM     22  N   UNL     1       7.937   6.678  17.283  0.00  0.00    +0.000 N 
ATOM     23  H   UNL     1       8.511   6.174  17.964  0.00  0.00    +0.000 HD
ENDBRANCH   1  22
TORSDOF 5
ENDMDL
MODEL 2
REMARK VINA RESULT:      -7.0      2.123      3.239
REMARK  Name = 
REMARK  6 active torsions:
REMARK  status: ('A' for Active; 'I' for Inactive)
REMARK    1  A    between atoms: C_1  and  N_2
REMARK    2  A    between atoms: N_2  and  C_3
REMARK    3  A    between atoms: N_12  and  C1*_13
REMARK    4  A    between atoms: C3*_15  and  O3*_16
REMARK    5  A    between atoms: C4*_17  and  C5*_18
REMARK    6  A    between atoms: C5*_18  and  O5*_19
REMARK                            x       y       z     vdW  Elec       q    Type
REMARK                         _______ _______ _______ _____ _____    ______ ____
ROOT
ATOM      1  C   UNL     1       6.574   5.339  16.431  0.00  0.00    +0.000 A 
ATOM      2  C   UNL     1       7.485   5.751  17.412  0.00  0.00    +0.000 A 
ATOM      3  C   UNL     1       7.254   5.438  18.748  0.00  0.00    +0.000 A 
ATOM      4 CL   UNL     1       8.400   5.908  19.943  0.00  0.00    +0.000 Cl
ATOM      5  N   UNL     1       6.189   4.767  19.254  0.00  0.00    +0.000 NA
ATOM      6  C   UNL     1       5.332   4.404  18.279  0.00  0.00    +0.000 A 
ATOM      7  C   UNL     1       5.443   4.636  16.915  0.00  0.00    +0.000 A 
ATOM      8  N   UNL     1       4.363   4.107  16.241  0.00  0.00    +0.000 NA
ATOM      9  C   UNL     1       3.610   3.569  17.178  0.00  0.00    +0.000 A 
ATOM     10  N   UNL     1       4.148   3.728  18.426  0.00  0.00    +0.000 N 
ENDROOT
BRANCH  10  11
ATOM     11  C1* UNL     1       3.586   3.286  19.682  0.00  0.00    +0.000 C 
ATOM     12  C2* UNL     1       2.797   4.359  20.416  0.00  0.00    +0.000 C 
ATOM     13  C3* UNL     1       1.784   3.543  21.185  0.00  0.00    +0.000 C 
ATOM     14  C4* UNL     1       1.493   2.370  20.254  0.00  0.00    +0.000 C 
ATOM     15  O4* UNL     1       2.679   2.188  19.440  0.00  0.00    +0.000 OA
BRANCH  13  16
ATOM     16  O3* UNL     1       2.369   3.106  22.412  0.00  0.00    +0.000 OA
ATOM     17  H3* UNL     1       2.642   2.174  22.334  0.00  0.00    +0.000 HD
ENDBRANCH  13  16
BRANCH  14  18
ATOM     18  C5* UNL     1       0.307   2.642  19.322  0.00  0.00    +0.000 C 
BRANCH  18  19
ATOM     19  O5* UNL     1       0.355   1.776  18.190  0.00  0.00    +0.000 OA
ATOM     20  H5* UNL     1       1.285   1.739  17.900  0.00  0.00    +0.000 HD
ENDBRANCH  18  19
ENDBRANCH  14  18
ENDBRANCH  10  11
BRANCH   1  22
ATOM     21  C   UNL     1       6.838   4.570  14.106  0.00  0.00    +0.000 C 
ATOM     22  N   UNL     1       6.715   5.637  15.076  0.00  0.00    +0.000 N 
ATOM     23  H   UNL     1       6.110   6.418  14.807  0.00  0.00    +0.000 HD
ENDBRANCH   1  22
TORSDOF 5
ENDMDL
MODEL 3
REMARK VINA RESULT:      -7.0      4.529      5.693
REMARK  Name = 
REMARK  6 active torsions:
REMARK  status: ('A' for Active; 'I' for Inactive)
REMARK    1  A    between atoms: C_1  and  N_2
REMARK    2  A    between atoms: N_2  and  C_3
REMARK    3  A    between atoms: N_12  and  C1*_13
REMARK    4  A    between atoms: C3*_15  and  O3*_16
REMARK    5  A    between atoms: C4*_17  and  C5*_18
REMARK    6  A    between atoms: C5*_18  and  O5*_19
REMARK                            x       y       z     vdW  Elec       q    Type
REMARK                         _______ _______ _______ _____ _____    ______ ____
ROOT
ATOM      1  C   UNL     1       1.454   9.602  19.036  0.00  0.00    +0.000 A 
ATOM      2  C   UNL     1       0.800   9.936  20.229  0.00  0.00    +0.000 A 
ATOM      3  C   UNL     1       0.714   9.002  21.257  0.00  0.00    +0.000 A 
ATOM      4 CL   UNL     1      -0.051   9.433  22.737  0.00  0.00    +0.000 Cl
ATOM      5  N   UNL     1       1.186   7.730  21.242  0.00  0.00    +0.000 NA
ATOM      6  C   UNL     1       1.792   7.447  20.072  0.00  0.00    +0.000 A 
ATOM      7  C   UNL     1       1.962   8.282  18.975  0.00  0.00    +0.000 A 
ATOM      8  N   UNL     1       2.636   7.627  17.966  0.00  0.00    +0.000 NA
ATOM      9  C   UNL     1       2.866   6.420  18.438  0.00  0.00    +0.000 A 
ATOM     10  N   UNL     1       2.370   6.260  19.704  0.00  0.00    +0.000 N 
ENDROOT
BRANCH  10  11
ATOM     11  C1* UNL     1       2.421   5.065  20.516  0.00  0.00    +0.000 C 
ATOM     12  C2* UNL     1       1.131   4.260  20.511  0.00  0.00    +0.000 C 
ATOM     13  C3* UNL     1       1.630   2.852  20.745  0.00  0.00    +0.000 C 
ATOM     14  C4* UNL     1       2.977   2.830  20.027  0.00  0.00    +0.000 C 
ATOM     15  O4* UNL     1       3.464   4.195  20.023  0.00  0.00    +0.000 OA
BRANCH  13  16
ATOM     16  O3* UNL     1       1.782   2.637  22.149  0.00  0.00    +0.000 OA
ATOM     17  H3* UNL     1       2.430   1.927  22.306  0.00  0.00    +0.000 HD
ENDBRANCH  13  16
BRANCH  14  18
ATOM     18  C5* UNL     1       2.857   2.358  18.574  0.00  0.00    +0.000 C 
BRANCH  18  19
ATOM     19  O5* UNL     1       1.641   1.639  18.382  0.00  0.00    +0.000 OA
ATOM     20  H5* UNL     1       1.572   1.448  17.429  0.00  0.00    +0.000 HD
ENDBRANCH  18  19
ENDBRANCH  14  18
ENDBRANCH  10  11
BRANCH   1  22
ATOM     21  C   UNL     1       2.231  11.741  18.095  0.00  0.00    +0.000 C 
ATOM     22  N   UNL     1       1.559  10.469  17.948  0.00  0.00    +0.000 N 
ATOM     23  H   UNL     1       1.761   9.954  17.087  0.00  0.00    +0.000 HD
ENDBRANCH   1  22
TORSDOF 5
ENDMDL
MODEL 4
REMARK VINA RESULT:      -6.9      3.589      6.506
REMARK  Name = 
REMARK  6 active torsions:
REMARK  status: ('A' for Active; 'I' for Inactive)
REMARK    1  A    between atoms: C_1  and  N_2
REMARK    2  A    between atoms: N_2  and  C_3
REMARK    3  A    between atoms: N_12  and  C1*_13
REMARK    4  A    between atoms: C3*_15  and  O3*_16
REMARK    5  A    between atoms: C4*_17  and  C5*_18
REMARK    6  A    between atoms: C5*_18  and  O5*_19
REMARK                            x       y       z     vdW  Elec       q    Type
REMARK                         _______ _______ _______ _____ _____    ______ ____
ROOT
ATOM      1  C   UNL     1       1.615   4.068  20.210  0.00  0.00    +0.000 A 
ATOM      2  C   UNL     1       1.396   5.406  20.560  0.00  0.00    +0.000 A 
ATOM      3  C   UNL     1       2.156   6.410  19.970  0.00  0.00    +0.000 A 
ATOM      4 CL   UNL     1       1.851   8.056  20.371  0.00  0.00    +0.000 Cl
ATOM      5  N   UNL     1       3.156   6.250  19.066  0.00  0.00    +0.000 NA
ATOM      6  C   UNL     1       3.342   4.948  18.771  0.00  0.00    +0.000 A 
ATOM      7  C   UNL     1       2.652   3.852  19.269  0.00  0.00    +0.000 A 
ATOM      8  N   UNL     1       3.135   2.682  18.723  0.00  0.00    +0.000 NA
ATOM      9  C   UNL     1       4.102   3.061  17.913  0.00  0.00    +0.000 A 
ATOM     10  N   UNL     1       4.270   4.419  17.911  0.00  0.00    +0.000 N 
ENDROOT
BRANCH  10  11
ATOM     11  C1* UNL     1       5.247   5.176  17.162  0.00  0.00    +0.000 C 
ATOM     12  C2* UNL     1       6.583   4.469  17.000  0.00  0.00    +0.000 C 
ATOM     13  C3* UNL     1       7.086   5.029  15.689  0.00  0.00    +0.000 C 
ATOM     14  C4* UNL     1       5.809   5.229  14.876  0.00  0.00    +0.000 C 
ATOM     15  O4* UNL     1       4.740   5.430  15.834  0.00  0.00    +0.000 OA
BRANCH  13  16
ATOM     16  O3* UNL     1       7.750   6.270  15.934  0.00  0.00    +0.000 OA
ATOM     17  H3* UNL     1       8.487   6.379  15.307  0.00  0.00    +0.000 HD
ENDBRANCH  13  16
BRANCH  14  18
ATOM     18  C5* UNL     1       5.464   4.006  14.020  0.00  0.00    +0.000 C 
BRANCH  18  19
ATOM     19  O5* UNL     1       6.605   3.578  13.280  0.00  0.00    +0.000 OA
ATOM     20  H5* UNL     1       7.390   3.815  13.806  0.00  0.00    +0.000 HD
ENDBRANCH  18  19
ENDBRANCH  14  18
ENDBRANCH  10  11
BRANCH   1  22
ATOM     21  C   UNL     1       1.419   2.357  21.971  0.00  0.00    +0.000 C 
ATOM     22  N   UNL     1       0.918   3.000  20.776  0.00  0.00    +0.000 N 
ATOM     23  H   UNL     1      -0.091   3.165  20.748  0.00  0.00    +0.000 HD
ENDBRANCH   1  22
TORSDOF 5
ENDMDL
MODEL 5
REMARK VINA RESULT:      -6.6      1.997      3.289
REMARK  Name = 
REMARK  6 active torsions:
REMARK  status: ('A' for Active; 'I' for Inactive)
REMARK    1  A    between atoms: C_1  and  N_2
REMARK    2  A    between atoms: N_2  and  C_3
REMARK    3  A    between atoms: N_12  and  C1*_13
REMARK    4  A    between atoms: C3*_15  and  O3*_16
REMARK    5  A    between atoms: C4*_17  and  C5*_18
REMARK    6  A    between atoms: C5*_18  and  O5*_19
REMARK                            x       y       z     vdW  Elec       q    Type
REMARK                         _______ _______ _______ _____ _____    ______ ____
ROOT
ATOM      1  C   UNL     1       6.359   4.354  15.676  0.00  0.00    +0.000 A 
ATOM      2  C   UNL     1       7.138   5.496  15.899  0.00  0.00    +0.000 A 
ATOM      3  C   UNL     1       6.859   6.324  16.982  0.00  0.00    +0.000 A 
ATOM      4 CL   UNL     1       7.847   7.702  17.277  0.00  0.00    +0.000 Cl
ATOM      5  N   UNL     1       5.858   6.172  17.886  0.00  0.00    +0.000 NA
ATOM      6  C   UNL     1       5.126   5.071  17.624  0.00  0.00    +0.000 A 
ATOM      7  C   UNL     1       5.301   4.155  16.595  0.00  0.00    +0.000 A 
ATOM      8  N   UNL     1       4.349   3.161  16.663  0.00  0.00    +0.000 NA
ATOM      9  C   UNL     1       3.610   3.469  17.708  0.00  0.00    +0.000 A 
ATOM     10  N   UNL     1       4.035   4.617  18.318  0.00  0.00    +0.000 N 
ENDROOT
BRANCH  10  11
ATOM     11  C1* UNL     1       3.450   5.260  19.473  0.00  0.00    +0.000 C 
ATOM     12  C2* UNL     1       2.022   5.737  19.256  0.00  0.00    +0.000 C 
ATOM     13  C3* UNL     1       1.441   5.657  20.649  0.00  0.00    +0.000 C 
ATOM     14  C4* UNL     1       2.146   4.447  21.257  0.00  0.00    +0.000 C 
ATOM     15  O4* UNL     1       3.420   4.328  20.576  0.00  0.00    +0.000 OA
BRANCH  13  16
ATOM     16  O3* UNL     1       1.756   6.856  21.358  0.00  0.00    +0.000 OA
ATOM     17  H3* UNL     1       2.423   6.671  22.042  0.00  0.00    +0.000 HD
ENDBRANCH  13  16
BRANCH  14  18
ATOM     18  C5* UNL     1       1.364   3.147  21.046  0.00  0.00    +0.000 C 
BRANCH  18  19
ATOM     19  O5* UNL     1       1.330   2.384  22.250  0.00  0.00    +0.000 OA
ATOM     20  H5* UNL     1       1.974   1.659  22.144  0.00  0.00    +0.000 HD
ENDBRANCH  18  19
ENDBRANCH  14  18
ENDBRANCH  10  11
BRANCH   1  22
ATOM     21  C   UNL     1       6.095   3.859  13.277  0.00  0.00    +0.000 C 
ATOM     22  N   UNL     1       6.554   3.489  14.598  0.00  0.00    +0.000 N 
ATOM     23  H   UNL     1       7.476   3.049  14.643  0.00  0.00    +0.000 HD
ENDBRANCH   1  22
TORSDOF 5
ENDMDL
MODEL 6
REMARK VINA RESULT:      -6.5      5.080      6.226
REMARK  Name = 
REMARK  6 active torsions:
REMARK  status: ('A' for Active; 'I' for Inactive)
REMARK    1  A    between atoms: C_1  and  N_2
REMARK    2  A    between atoms: N_2  and  C_3
REMARK    3  A    between atoms: N_12  and  C1*_13
REMARK    4  A    between atoms: C3*_15  and  O3*_16
REMARK    5  A    between atoms: C4*_17  and  C5*_18
REMARK    6  A    between atoms: C5*_18  and  O5*_19
REMARK                            x       y       z     vdW  Elec       q    Type
REMARK                         _______ _______ _______ _____ _____    ______ ____
ROOT
ATOM      1  C   UNL     1       1.049  10.320  19.177  0.00  0.00    +0.000 A 
ATOM      2  C   UNL     1       0.491  10.325  20.462  0.00  0.00    +0.000 A 
ATOM      3  C   UNL     1       0.632   9.211  21.283  0.00  0.00    +0.000 A 
ATOM      4 CL   UNL     1      -0.017   9.240  22.876  0.00  0.00    +0.000 Cl
ATOM      5  N   UNL     1       1.255   8.045  20.974  0.00  0.00    +0.000 NA
ATOM      6  C   UNL     1       1.762   8.079  19.725  0.00  0.00    +0.000 A 
ATOM      7  C   UNL     1       1.708   9.121  18.810  0.00  0.00    +0.000 A 
ATOM      8  N   UNL     1       2.345   8.773  17.638  0.00  0.00    +0.000 NA
ATOM      9  C   UNL     1       2.773   7.544  17.837  0.00  0.00    +0.000 A 
ATOM     10  N   UNL     1       2.440   7.078  19.080  0.00  0.00    +0.000 N 
ENDROOT
BRANCH  10  11
ATOM     11  C1* UNL     1       2.727   5.771  19.627  0.00  0.00    +0.000 C 
ATOM     12  C2* UNL     1       2.180   4.621  18.797  0.00  0.00    +0.000 C 
ATOM     13  C3* UNL     1       3.160   3.511  19.100  0.00  0.00    +0.000 C 
ATOM     14  C4* UNL     1       4.486   4.247  19.272  0.00  0.00    +0.000 C 
ATOM     15  O4* UNL     1       4.158   5.589  19.709  0.00  0.00    +0.000 OA
BRANCH  13  16
ATOM     16  O3* UNL     1       2.766   2.854  20.305  0.00  0.00    +0.000 OA
ATOM     17  H3* UNL     1       2.245   2.060  20.093  0.00  0.00    +0.000 HD
ENDBRANCH  13  16
BRANCH  14  18
ATOM     18  C5* UNL     1       5.274   4.347  17.961  0.00  0.00    +0.000 C 
BRANCH  18  19
ATOM     19  O5* UNL     1       6.661   4.112  18.195  0.00  0.00    +0.000 OA
ATOM     20  H5* UNL     1       6.960   3.482  17.514  0.00  0.00    +0.000 HD
ENDBRANCH  18  19
ENDBRANCH  14  18
ENDBRANCH  10  11
BRANCH   1  22
ATOM     21  C   UNL     1       1.638  12.620  18.521  0.00  0.00    +0.000 C 
ATOM     22  N   UNL     1       0.927  11.382  18.281  0.00  0.00    +0.000 N 
ATOM     23  H   UNL     1       0.927  11.048  17.314  0.00  0.00    +0.000 HD
ENDBRANCH   1  22
TORSDOF 5
ENDMDL
MODEL 7
REMARK VINA RESULT:      -6.5      3.379      6.033
REMARK  Name = 
REMARK  6 active torsions:
REMARK  status: ('A' for Active; 'I' for Inactive)
REMARK    1  A    between atoms: C_1  and  N_2
REMARK    2  A    between atoms: N_2  and  C_3
REMARK    3  A    between atoms: N_12  and  C1*_13
REMARK    4  A    between atoms: C3*_15  and  O3*_16
REMARK    5  A    between atoms: C4*_17  and  C5*_18
REMARK    6  A    between atoms: C5*_18  and  O5*_19
REMARK                            x       y       z     vdW  Elec       q    Type
REMARK                         _______ _______ _______ _____ _____    ______ ____
ROOT
ATOM      1  C   UNL     1       1.650   3.998  19.955  0.00  0.00    +0.000 A 
ATOM      2  C   UNL     1       1.587   5.396  20.022  0.00  0.00    +0.000 A 
ATOM      3  C   UNL     1       2.499   6.166  19.307  0.00  0.00    +0.000 A 
ATOM      4 CL   UNL     1       2.388   7.883  19.359  0.00  0.00    +0.000 Cl
ATOM      5  N   UNL     1       3.513   5.713  18.528  0.00  0.00    +0.000 NA
ATOM      6  C   UNL     1       3.546   4.365  18.505  0.00  0.00    +0.000 A 
ATOM      7  C   UNL     1       2.696   3.480  19.153  0.00  0.00    +0.000 A 
ATOM      8  N   UNL     1       3.052   2.176  18.880  0.00  0.00    +0.000 NA
ATOM      9  C   UNL     1       4.099   2.269  18.086  0.00  0.00    +0.000 A 
ATOM     10  N   UNL     1       4.439   3.570  17.835  0.00  0.00    +0.000 N 
ENDROOT
BRANCH  10  11
ATOM     11  C1* UNL     1       5.542   4.043  17.029  0.00  0.00    +0.000 C 
ATOM     12  C2* UNL     1       5.345   5.446  16.476  0.00  0.00    +0.000 C 
ATOM     13  C3* UNL     1       6.765   5.949  16.361  0.00  0.00    +0.000 C 
ATOM     14  C4* UNL     1       7.471   5.292  17.544  0.00  0.00    +0.000 C 
ATOM     15  O4* UNL     1       6.744   4.071  17.830  0.00  0.00    +0.000 OA
BRANCH  13  16
ATOM     16  O3* UNL     1       7.316   5.515  15.116  0.00  0.00    +0.000 OA
ATOM     17  H3* UNL     1       7.398   4.545  15.112  0.00  0.00    +0.000 HD
ENDBRANCH  13  16
BRANCH  14  18
ATOM     18  C5* UNL     1       7.447   6.171  18.800  0.00  0.00    +0.000 C 
BRANCH  18  19
ATOM     19  O5* UNL     1       7.149   5.385  19.952  0.00  0.00    +0.000 OA
ATOM     20  H5* UNL     1       6.233   5.068  19.850  0.00  0.00    +0.000 HD
ENDBRANCH  18  19
ENDBRANCH  14  18
ENDBRANCH  10  11
BRANCH   1  22
ATOM     21  C   UNL     1       1.245   2.521  21.884  0.00  0.00    +0.000 C 
ATOM     22  N   UNL     1       0.794   3.154  20.663  0.00  0.00    +0.000 N 
ATOM     23  H   UNL     1      -0.158   3.527  20.678  0.00  0.00    +0.000 HD
ENDBRANCH   1  22
TORSDOF 5
ENDMDL
MODEL 8
REMARK VINA RESULT:      -6.5      3.341      6.115
REMARK  Name = 
REMARK  6 active torsions:
REMARK  status: ('A' for Active; 'I' for Inactive)
REMARK    1  A    between atoms: C_1  and  N_2
REMARK    2  A    between atoms: N_2  and  C_3
REMARK    3  A    between atoms: N_12  and  C1*_13
REMARK    4  A    between atoms: C3*_15  and  O3*_16
REMARK    5  A    between atoms: C4*_17  and  C5*_18
REMARK    6  A    between atoms: C5*_18  and  O5*_19
REMARK                            x       y       z     vdW  Elec       q    Type
REMARK                         _______ _______ _______ _____ _____    ______ ____
ROOT
ATOM      1  C   UNL     1       1.663   3.982  19.757  0.00  0.00    +0.000 A 
ATOM      2  C   UNL     1       1.645   5.382  19.720  0.00  0.00    +0.000 A 
ATOM      3  C   UNL     1       2.521   6.064  18.882  0.00  0.00    +0.000 A 
ATOM      4 CL   UNL     1       2.464   7.783  18.809  0.00  0.00    +0.000 Cl
ATOM      5  N   UNL     1       3.458   5.519  18.066  0.00  0.00    +0.000 NA
ATOM      6  C   UNL     1       3.450   4.173  18.144  0.00  0.00    +0.000 A 
ATOM      7  C   UNL     1       2.628   3.368  18.921  0.00  0.00    +0.000 A 
ATOM      8  N   UNL     1       2.924   2.036  18.724  0.00  0.00    +0.000 NA
ATOM      9  C   UNL     1       3.908   2.033  17.849  0.00  0.00    +0.000 A 
ATOM     10  N   UNL     1       4.266   3.300  17.473  0.00  0.00    +0.000 N 
ENDROOT
BRANCH  10  11
ATOM     11  C1* UNL     1       5.315   3.672  16.552  0.00  0.00    +0.000 C 
ATOM     12  C2* UNL     1       4.889   4.697  15.512  0.00  0.00    +0.000 C 
ATOM     13  C3* UNL     1       6.185   5.418  15.222  0.00  0.00    +0.000 C 
ATOM     14  C4* UNL     1       6.904   5.410  16.568  0.00  0.00    +0.000 C 
ATOM     15  O4* UNL     1       6.415   4.252  17.289  0.00  0.00    +0.000 OA
BRANCH  13  16
ATOM     16  O3* UNL     1       6.915   4.690  14.234  0.00  0.00    +0.000 OA
ATOM     17  H3* UNL     1       6.309   4.377  13.539  0.00  0.00    +0.000 HD
ENDBRANCH  13  16
BRANCH  14  18
ATOM     18  C5* UNL     1       6.599   6.659  17.402  0.00  0.00    +0.000 C 
BRANCH  18  19
ATOM     19  O5* UNL     1       7.476   7.725  17.042  0.00  0.00    +0.000 OA
ATOM     20  H5* UNL     1       7.109   8.539  17.433  0.00  0.00    +0.000 HD
ENDBRANCH  18  19
ENDBRANCH  14  18
ENDBRANCH  10  11
BRANCH   1  22
ATOM     21  C   UNL     1       1.370   2.652  21.809  0.00  0.00    +0.000 C 
ATOM     22  N   UNL     1       0.840   3.223  20.590  0.00  0.00    +0.000 N 
ATOM     23  H   UNL     1      -0.093   3.637  20.660  0.00  0.00    +0.000 HD
ENDBRANCH   1  22
TORSDOF 5
ENDMDL
MODEL 9
REMARK VINA RESULT:      -6.4      3.632      6.535
REMARK  Name = 
REMARK  6 active torsions:
REMARK  status: ('A' for Active; 'I' for Inactive)
REMARK    1  A    between atoms: C_1  and  N_2
REMARK    2  A    between atoms: N_2  and  C_3
REMARK    3  A    between atoms: N_12  and  C1*_13
REMARK    4  A    between atoms: C3*_15  and  O3*_16
REMARK    5  A    between atoms: C4*_17  and  C5*_18
REMARK    6  A    between atoms: C5*_18  and  O5*_19
REMARK                            x       y       z     vdW  Elec       q    Type
REMARK                         _______ _______ _______ _____ _____    ______ ____
ROOT
ATOM      1  C   UNL     1       1.456   4.385  20.387  0.00  0.00    +0.000 A 
ATOM      2  C   UNL     1       1.120   5.669  20.836  0.00  0.00    +0.000 A 
ATOM      3  C   UNL     1       1.822   6.774  20.365  0.00  0.00    +0.000 A 
ATOM      4 CL   UNL     1       1.375   8.352  20.887  0.00  0.00    +0.000 Cl
ATOM      5  N   UNL     1       2.865   6.766  19.497  0.00  0.00    +0.000 NA
ATOM      6  C   UNL     1       3.164   5.512  19.104  0.00  0.00    +0.000 A 
ATOM      7  C   UNL     1       2.542   4.329  19.479  0.00  0.00    +0.000 A 
ATOM      8  N   UNL     1       3.136   3.250  18.860  0.00  0.00    +0.000 NA
ATOM      9  C   UNL     1       4.100   3.767  18.128  0.00  0.00    +0.000 A 
ATOM     10  N   UNL     1       4.162   5.129  18.246  0.00  0.00    +0.000 N 
ENDROOT
BRANCH  10  11
ATOM     11  C1* UNL     1       5.105   6.018  17.607  0.00  0.00    +0.000 C 
ATOM     12  C2* UNL     1       6.498   5.981  18.216  0.00  0.00    +0.000 C 
ATOM     13  C3* UNL     1       7.374   6.337  17.037  0.00  0.00    +0.000 C 
ATOM     14  C4* UNL     1       6.644   5.711  15.851  0.00  0.00    +0.000 C 
ATOM     15  O4* UNL     1       5.243   5.650  16.217  0.00  0.00    +0.000 OA
BRANCH  13  16
ATOM     16  O3* UNL     1       7.442   7.759  16.917  0.00  0.00    +0.000 OA
ATOM     17  H3* UNL     1       7.983   8.000  16.144  0.00  0.00    +0.000 HD
ENDBRANCH  13  16
BRANCH  14  18
ATOM     18  C5* UNL     1       7.126   4.287  15.555  0.00  0.00    +0.000 C 
BRANCH  18  19
ATOM     19  O5* UNL     1       6.031   3.374  15.585  0.00  0.00    +0.000 OA
ATOM     20  H5* UNL     1       5.268   3.859  15.950  0.00  0.00    +0.000 HD
ENDBRANCH  18  19
ENDBRANCH  14  18
ENDBRANCH  10  11
BRANCH   1  22
ATOM     21  C   UNL     1       1.448   2.396  21.839  0.00  0.00    +0.000 C 
ATOM     22  N   UNL     1       0.823   3.224  20.831  0.00  0.00    +0.000 N 
ATOM     23  H   UNL     1      -0.184   3.373  20.937  0.00  0.00    +0.000 HD
ENDBRANCH   1  22
TORSDOF 5
ENDMDL
