MODEL 1
REMARK VINA RESULT:      -7.1      0.000      0.000
REMARK  Name = 
REMARK  4 active torsions:
REMARK  status: ('A' for Active; 'I' for Inactive)
REMARK    1  A    between atoms: C_2  and  C_3
REMARK    2  A    between atoms: C_12  and  C_13
REMARK    3  A    between atoms: C_13  and  N_14
REMARK    4  A    between atoms: C_18  and  O_19
REMARK                            x       y       z     vdW  Elec       q    Type
REMARK                         _______ _______ _______ _____ _____    ______ ____
ROOT
ATOM      1  C   UNL     1       2.292   7.808  19.123  0.00  0.00    +0.000 A 
ATOM      2  N   UNL     1       2.805   8.288  17.913  0.00  0.00    +0.000 NA
ATOM      3  C   UNL     1       3.730   7.412  17.525  0.00  0.00    +0.000 A 
ATOM      4  C   UNL     1       4.553   7.304  16.358  0.00  0.00    +0.000 A 
ATOM      5  C   UNL     1       5.578   6.411  16.316  0.00  0.00    +0.000 A 
ATOM      6  C   UNL     1       5.867   5.548  17.454  0.00  0.00    +0.000 A 
ATOM      7 CL   UNL     1       7.262   4.546  17.424  0.00  0.00    +0.000 Cl
ATOM      8  C   UNL     1       5.015   5.550  18.485  0.00  0.00    +0.000 A 
ATOM      9  N   UNL     1       3.943   6.441  18.499  0.00  0.00    +0.000 N 
ATOM     10  C   UNL     1       2.893   6.557  19.387  0.00  0.00    +0.000 A 
ENDROOT
BRANCH   1  12
ATOM     11  O   UNL     1       1.443   8.053  21.271  0.00  0.00    +0.000 OA
ATOM     12  C   UNL     1       1.310   8.403  20.080  0.00  0.00    +0.000 C 
ATOM     13  N   UNL     1       0.297   9.347  19.834  0.00  0.00    +0.000 N 
ATOM     14  C   UNL     1      -0.264   9.784  18.562  0.00  0.00    +0.000 C 
ATOM     15  C   UNL     1      -0.139  11.292  18.299  0.00  0.00    +0.000 C 
ATOM     16  C   UNL     1       1.283  11.818  18.433  0.00  0.00    +0.000 C 
ATOM     17  C   UNL     1       1.693  12.436  19.777  0.00  0.00    +0.000 C 
ATOM     18  C   UNL     1       1.469  11.697  21.101  0.00  0.00    +0.000 C 
ATOM     19  C   UNL     1       0.029  11.305  21.427  0.00  0.00    +0.000 C 
ATOM     20  C   UNL     1      -0.385   9.885  21.027  0.00  0.00    +0.000 C 
ENDBRANCH   1  12
BRANCH  10  21
ATOM     21  C   UNL     1       2.523   5.464  20.343  0.00  0.00    +0.000 C 
BRANCH  21  22
ATOM     22  N   UNL     1       1.383   4.695  19.819  0.00  0.00    +0.000 NA
ATOM     23  C   UNL     1       0.924   3.578  20.646  0.00  0.00    +0.000 C 
ATOM     24  C   UNL     1       1.727   2.294  20.524  0.00  0.00    +0.000 C 
ATOM     25  C   UNL     1       1.851   1.794  19.095  0.00  0.00    +0.000 C 
ATOM     26  C   UNL     1       1.985   2.884  18.033  0.00  0.00    +0.000 C 
ATOM     27  C   UNL     1       1.536   4.319  18.411  0.00  0.00    +0.000 C 
BRANCH  26  28
ATOM     28  O   UNL     1       3.340   2.876  17.573  0.00  0.00    +0.000 OA
ATOM     29  H   UNL     1       3.637   3.796  17.476  0.00  0.00    +0.000 HD
ENDBRANCH  26  28
ENDBRANCH  21  22
ENDBRANCH  10  21
TORSDOF 4
ENDMDL
MODEL 2
REMARK VINA RESULT:      -7.0      9.040     11.051
REMARK  Name = 
REMARK  4 active torsions:
REMARK  status: ('A' for Active; 'I' for Inactive)
REMARK    1  A    between atoms: C_2  and  C_3
REMARK    2  A    between atoms: C_12  and  C_13
REMARK    3  A    between atoms: C_13  and  N_14
REMARK    4  A    between atoms: C_18  and  O_19
REMARK                            x       y       z     vdW  Elec       q    Type
REMARK                         _______ _______ _______ _____ _____    ______ ____
ROOT
ATOM      1  C   UNL     1       8.123  14.079  20.123  0.00  0.00    +0.000 A 
ATOM      2  N   UNL     1       7.526  14.543  18.946  0.00  0.00    +0.000 NA
ATOM      3  C   UNL     1       6.499  15.303  19.322  0.00  0.00    +0.000 A 
ATOM      4  C   UNL     1       5.553  16.102  18.603  0.00  0.00    +0.000 A 
ATOM      5  C   UNL     1       4.462  16.615  19.232  0.00  0.00    +0.000 A 
ATOM      6  C   UNL     1       4.226  16.362  20.648  0.00  0.00    +0.000 A 
ATOM      7 CL   UNL     1       2.761  16.893  21.371  0.00  0.00    +0.000 Cl
ATOM      8  C   UNL     1       5.178  15.737  21.349  0.00  0.00    +0.000 A 
ATOM      9  N   UNL     1       6.313  15.252  20.700  0.00  0.00    +0.000 N 
ATOM     10  C   UNL     1       7.455  14.676  21.217  0.00  0.00    +0.000 A 
ENDROOT
BRANCH   1  12
ATOM     11  O   UNL     1       8.898  11.952  20.643  0.00  0.00    +0.000 OA
ATOM     12  C   UNL     1       9.243  13.114  20.344  0.00  0.00    +0.000 C 
ATOM     13  N   UNL     1      10.627  13.320  20.203  0.00  0.00    +0.000 N 
ATOM     14  C   UNL     1      11.364  14.573  20.091  0.00  0.00    +0.000 C 
ATOM     15  C   UNL     1      12.197  14.705  18.807  0.00  0.00    +0.000 C 
ATOM     16  C   UNL     1      11.396  14.473  17.534  0.00  0.00    +0.000 C 
ATOM     17  C   UNL     1      11.424  13.067  16.917  0.00  0.00    +0.000 C 
ATOM     18  C   UNL     1      11.120  11.818  17.753  0.00  0.00    +0.000 C 
ATOM     19  C   UNL     1      12.009  11.582  18.973  0.00  0.00    +0.000 C 
ATOM     20  C   UNL     1      11.471  12.114  20.305  0.00  0.00    +0.000 C 
ENDBRANCH   1  12
BRANCH  10  21
ATOM     21  C   UNL     1       7.836  14.797  22.661  0.00  0.00    +0.000 C 
BRANCH  21  22
ATOM     22  N   UNL     1       6.835  14.128  23.508  0.00  0.00    +0.000 NA
ATOM     23  C   UNL     1       6.940  14.375  24.946  0.00  0.00    +0.000 C 
ATOM     24  C   UNL     1       7.980  13.548  25.684  0.00  0.00    +0.000 C 
ATOM     25  C   UNL     1       7.816  12.053  25.480  0.00  0.00    +0.000 C 
ATOM     26  C   UNL     1       7.353  11.632  24.086  0.00  0.00    +0.000 C 
ATOM     27  C   UNL     1       6.672  12.705  23.198  0.00  0.00    +0.000 C 
BRANCH  26  28
ATOM     28  O   UNL     1       8.472  11.047  23.415  0.00  0.00    +0.000 OA
ATOM     29  H   UNL     1       9.148  11.734  23.289  0.00  0.00    +0.000 HD
ENDBRANCH  26  28
ENDBRANCH  21  22
ENDBRANCH  10  21
TORSDOF 4
ENDMDL
MODEL 3
REMARK VINA RESULT:      -6.9      2.748      6.008
REMARK  Name = 
REMARK  4 active torsions:
REMARK  status: ('A' for Active; 'I' for Inactive)
REMARK    1  A    between atoms: C_2  and  C_3
REMARK    2  A    between atoms: C_12  and  C_13
REMARK    3  A    between atoms: C_13  and  N_14
REMARK    4  A    between atoms: C_18  and  O_19
REMARK                            x       y       z     vdW  Elec       q    Type
REMARK                         _______ _______ _______ _____ _____    ______ ____
ROOT
ATOM      1  C   UNL     1       3.088   6.357  18.109  0.00  0.00    +0.000 A 
ATOM      2  N   UNL     1       2.809   7.626  17.590  0.00  0.00    +0.000 NA
ATOM      3  C   UNL     1       2.225   8.311  18.570  0.00  0.00    +0.000 A 
ATOM      4  C   UNL     1       1.769   9.664  18.687  0.00  0.00    +0.000 A 
ATOM      5  C   UNL     1       1.006  10.047  19.746  0.00  0.00    +0.000 A 
ATOM      6  C   UNL     1       0.630   9.094  20.782  0.00  0.00    +0.000 A 
ATOM      7 CL   UNL     1      -0.461   9.575  22.019  0.00  0.00    +0.000 Cl
ATOM      8  C   UNL     1       1.170   7.871  20.746  0.00  0.00    +0.000 A 
ATOM      9  N   UNL     1       1.986   7.503  19.676  0.00  0.00    +0.000 N 
ATOM     10  C   UNL     1       2.724   6.355  19.475  0.00  0.00    +0.000 A 
ENDROOT
BRANCH   1  12
ATOM     11  O   UNL     1       2.894   4.579  16.628  0.00  0.00    +0.000 OA
ATOM     12  C   UNL     1       3.642   5.128  17.462  0.00  0.00    +0.000 C 
ATOM     13  N   UNL     1       4.911   4.542  17.620  0.00  0.00    +0.000 N 
ATOM     14  C   UNL     1       5.915   4.785  18.648  0.00  0.00    +0.000 C 
ATOM     15  C   UNL     1       7.273   5.257  18.108  0.00  0.00    +0.000 C 
ATOM     16  C   UNL     1       7.178   6.472  17.195  0.00  0.00    +0.000 C 
ATOM     17  C   UNL     1       7.124   6.226  15.681  0.00  0.00    +0.000 C 
ATOM     18  C   UNL     1       6.121   5.246  15.062  0.00  0.00    +0.000 C 
ATOM     19  C   UNL     1       6.187   3.802  15.554  0.00  0.00    +0.000 C 
ATOM     20  C   UNL     1       5.229   3.439  16.694  0.00  0.00    +0.000 C 
ENDBRANCH   1  12
BRANCH  10  21
ATOM     21  C   UNL     1       3.065   5.411  20.587  0.00  0.00    +0.000 C 
BRANCH  21  22
ATOM     22  N   UNL     1       1.866   4.671  21.013  0.00  0.00    +0.000 NA
ATOM     23  C   UNL     1       2.076   3.621  22.010  0.00  0.00    +0.000 C 
ATOM     24  C   UNL     1       2.590   2.295  21.473  0.00  0.00    +0.000 C 
ATOM     25  C   UNL     1       1.728   1.718  20.365  0.00  0.00    +0.000 C 
ATOM     26  C   UNL     1       1.120   2.745  19.411  0.00  0.00    +0.000 C 
ATOM     27  C   UNL     1       1.039   4.216  19.890  0.00  0.00    +0.000 C 
BRANCH  26  28
ATOM     28  O   UNL     1       1.821   2.649  18.168  0.00  0.00    +0.000 OA
ATOM     29  H   UNL     1       2.556   2.024  18.277  0.00  0.00    +0.000 HD
ENDBRANCH  26  28
ENDBRANCH  21  22
ENDBRANCH  10  21
TORSDOF 4
ENDMDL
MODEL 4
REMARK VINA RESULT:      -6.9      8.569     10.947
REMARK  Name = 
REMARK  4 active torsions:
REMARK  status: ('A' for Active; 'I' for Inactive)
REMARK    1  A    between atoms: C_2  and  C_3
REMARK    2  A    between atoms: C_12  and  C_13
REMARK    3  A    between atoms: C_13  and  N_14
REMARK    4  A    between atoms: C_18  and  O_19
REMARK                            x       y       z     vdW  Elec       q    Type
REMARK                         _______ _______ _______ _____ _____    ______ ____
ROOT
ATOM      1  C   UNL     1       8.546  15.434  20.397  0.00  0.00    +0.000 A 
ATOM      2  N   UNL     1       8.028  16.632  19.893  0.00  0.00    +0.000 NA
ATOM      3  C   UNL     1       6.710  16.574  20.070  0.00  0.00    +0.000 A 
ATOM      4  C   UNL     1       5.644  17.500  19.828  0.00  0.00    +0.000 A 
ATOM      5  C   UNL     1       4.348  17.097  19.905  0.00  0.00    +0.000 A 
ATOM      6  C   UNL     1       4.010  15.717  20.229  0.00  0.00    +0.000 A 
ATOM      7 CL   UNL     1       2.371  15.208  20.164  0.00  0.00    +0.000 Cl
ATOM      8  C   UNL     1       4.998  14.890  20.592  0.00  0.00    +0.000 A 
ATOM      9  N   UNL     1       6.321  15.328  20.549  0.00  0.00    +0.000 N 
ATOM     10  C   UNL     1       7.478  14.702  20.965  0.00  0.00    +0.000 A 
ENDROOT
BRANCH   1  12
ATOM     11  O   UNL     1      10.555  14.975  21.467  0.00  0.00    +0.000 OA
ATOM     12  C   UNL     1       9.935  14.881  20.388  0.00  0.00    +0.000 C 
ATOM     13  N   UNL     1      10.614  14.218  19.351  0.00  0.00    +0.000 N 
ATOM     14  C   UNL     1      10.281  14.141  17.934  0.00  0.00    +0.000 C 
ATOM     15  C   UNL     1      10.085  12.712  17.406  0.00  0.00    +0.000 C 
ATOM     16  C   UNL     1       9.078  11.899  18.208  0.00  0.00    +0.000 C 
ATOM     17  C   UNL     1       9.619  10.977  19.310  0.00  0.00    +0.000 C 
ATOM     18  C   UNL     1      10.586  11.491  20.383  0.00  0.00    +0.000 C 
ATOM     19  C   UNL     1      11.898  12.094  19.885  0.00  0.00    +0.000 C 
ATOM     20  C   UNL     1      11.912  13.617  19.714  0.00  0.00    +0.000 C 
ENDBRANCH   1  12
BRANCH  10  21
ATOM     21  C   UNL     1       7.470  13.530  21.897  0.00  0.00    +0.000 C 
BRANCH  21  22
ATOM     22  N   UNL     1       7.340  13.988  23.290  0.00  0.00    +0.000 NA
ATOM     23  C   UNL     1       8.480  13.719  24.167  0.00  0.00    +0.000 C 
ATOM     24  C   UNL     1       8.557  12.311  24.735  0.00  0.00    +0.000 C 
ATOM     25  C   UNL     1       7.297  11.887  25.468  0.00  0.00    +0.000 C 
ATOM     26  C   UNL     1       5.990  12.398  24.865  0.00  0.00    +0.000 C 
ATOM     27  C   UNL     1       6.063  13.613  23.906  0.00  0.00    +0.000 C 
BRANCH  26  28
ATOM     28  O   UNL     1       5.340  11.288  24.237  0.00  0.00    +0.000 OA
ATOM     29  H   UNL     1       5.949  10.532  24.242  0.00  0.00    +0.000 HD
ENDBRANCH  26  28
ENDBRANCH  21  22
ENDBRANCH  10  21
TORSDOF 4
ENDMDL
MODEL 5
REMARK VINA RESULT:      -6.8      7.107      9.330
REMARK  Name = 
REMARK  4 active torsions:
REMARK  status: ('A' for Active; 'I' for Inactive)
REMARK    1  A    between atoms: C_2  and  C_3
REMARK    2  A    between atoms: C_12  and  C_13
REMARK    3  A    between atoms: C_13  and  N_14
REMARK    4  A    between atoms: C_18  and  O_19
REMARK                            x       y       z     vdW  Elec       q    Type
REMARK                         _______ _______ _______ _____ _____    ______ ____
ROOT
ATOM      1  C   UNL     1      -3.263  13.014  20.504  0.00  0.00    +0.000 A 
ATOM      2  N   UNL     1      -4.523  12.684  19.994  0.00  0.00    +0.000 NA
ATOM      3  C   UNL     1      -4.306  11.953  18.903  0.00  0.00    +0.000 A 
ATOM      4  C   UNL     1      -5.172  11.272  17.988  0.00  0.00    +0.000 A 
ATOM      5  C   UNL     1      -4.687  10.769  16.821  0.00  0.00    +0.000 A 
ATOM      6  C   UNL     1      -3.280  10.914  16.470  0.00  0.00    +0.000 A 
ATOM      7 CL   UNL     1      -2.736  10.407  14.922  0.00  0.00    +0.000 Cl
ATOM      8  C   UNL     1      -2.447  11.425  17.384  0.00  0.00    +0.000 A 
ATOM      9  N   UNL     1      -2.950  11.899  18.595  0.00  0.00    +0.000 N 
ATOM     10  C   UNL     1      -2.288  12.365  19.712  0.00  0.00    +0.000 A 
ENDROOT
BRANCH   1  12
ATOM     11  O   UNL     1      -2.388  15.003  21.324  0.00  0.00    +0.000 OA
ATOM     12  C   UNL     1      -2.862  13.893  21.644  0.00  0.00    +0.000 C 
ATOM     13  N   UNL     1      -2.999  13.666  23.025  0.00  0.00    +0.000 N 
ATOM     14  C   UNL     1      -3.293  12.424  23.729  0.00  0.00    +0.000 C 
ATOM     15  C   UNL     1      -4.560  12.470  24.596  0.00  0.00    +0.000 C 
ATOM     16  C   UNL     1      -5.799  12.930  23.841  0.00  0.00    +0.000 C 
ATOM     17  C   UNL     1      -6.181  14.414  23.928  0.00  0.00    +0.000 C 
ATOM     18  C   UNL     1      -5.163  15.523  23.635  0.00  0.00    +0.000 C 
ATOM     19  C   UNL     1      -3.899  15.531  24.493  0.00  0.00    +0.000 C 
ATOM     20  C   UNL     1      -2.684  14.811  23.900  0.00  0.00    +0.000 C 
ENDBRANCH   1  12
BRANCH  10  21
ATOM     21  C   UNL     1      -0.833  12.103  19.954  0.00  0.00    +0.000 C 
BRANCH  21  22
ATOM     22  N   UNL     1      -0.021  12.724  18.895  0.00  0.00    +0.000 NA
ATOM     23  C   UNL     1       1.400  12.376  18.884  0.00  0.00    +0.000 C 
ATOM     24  C   UNL     1       2.273  13.134  19.870  0.00  0.00    +0.000 C 
ATOM     25  C   UNL     1       2.164  14.642  19.737  0.00  0.00    +0.000 C 
ATOM     26  C   UNL     1       0.771  15.166  19.388  0.00  0.00    +0.000 C 
ATOM     27  C   UNL     1      -0.241  14.169  18.770  0.00  0.00    +0.000 C 
BRANCH  26  28
ATOM     28  O   UNL     1       0.233  15.780  20.563  0.00  0.00    +0.000 OA
ATOM     29  H   UNL     1      -0.736  15.764  20.501  0.00  0.00    +0.000 HD
ENDBRANCH  26  28
ENDBRANCH  21  22
ENDBRANCH  10  21
TORSDOF 4
ENDMDL
MODEL 6
REMARK VINA RESULT:      -6.8      5.011      8.269
REMARK  Name = 
REMARK  4 active torsions:
REMARK  status: ('A' for Active; 'I' for Inactive)
REMARK    1  A    between atoms: C_2  and  C_3
REMARK    2  A    between atoms: C_12  and  C_13
REMARK    3  A    between atoms: C_13  and  N_14
REMARK    4  A    between atoms: C_18  and  O_19
REMARK                            x       y       z     vdW  Elec       q    Type
REMARK                         _______ _______ _______ _____ _____    ______ ____
ROOT
ATOM      1  C   UNL     1      -0.669  12.277  22.610  0.00  0.00    +0.000 A 
ATOM      2  N   UNL     1      -0.377  10.970  23.012  0.00  0.00    +0.000 NA
ATOM      3  C   UNL     1       0.223  10.385  21.976  0.00  0.00    +0.000 A 
ATOM      4  C   UNL     1       0.812   9.095  21.782  0.00  0.00    +0.000 A 
ATOM      5  C   UNL     1       1.172   8.679  20.538  0.00  0.00    +0.000 A 
ATOM      6  C   UNL     1       0.962   9.531  19.374  0.00  0.00    +0.000 A 
ATOM      7 CL   UNL     1       1.283   8.912  17.804  0.00  0.00    +0.000 Cl
ATOM      8  C   UNL     1       0.544  10.786  19.572  0.00  0.00    +0.000 A 
ATOM      9  N   UNL     1       0.218  11.214  20.859  0.00  0.00    +0.000 N 
ATOM     10  C   UNL     1      -0.131  12.468  21.317  0.00  0.00    +0.000 A 
ENDROOT
BRANCH   1  12
ATOM     11  O   UNL     1      -0.725  14.322  23.710  0.00  0.00    +0.000 OA
ATOM     12  C   UNL     1      -1.421  13.373  23.296  0.00  0.00    +0.000 C 
ATOM     13  N   UNL     1      -2.808  13.508  23.484  0.00  0.00    +0.000 N 
ATOM     14  C   UNL     1      -3.859  12.510  23.331  0.00  0.00    +0.000 C 
ATOM     15  C   UNL     1      -4.943  12.883  22.308  0.00  0.00    +0.000 C 
ATOM     16  C   UNL     1      -4.389  13.249  20.938  0.00  0.00    +0.000 C 
ATOM     17  C   UNL     1      -4.167  14.736  20.631  0.00  0.00    +0.000 C 
ATOM     18  C   UNL     1      -3.376  15.643  21.581  0.00  0.00    +0.000 C 
ATOM     19  C   UNL     1      -3.898  15.752  23.012  0.00  0.00    +0.000 C 
ATOM     20  C   UNL     1      -3.259  14.802  24.031  0.00  0.00    +0.000 C 
ENDBRANCH   1  12
BRANCH  10  21
ATOM     21  C   UNL     1       0.132  13.715  20.529  0.00  0.00    +0.000 C 
BRANCH  21  22
ATOM     22  N   UNL     1       1.423  14.303  20.923  0.00  0.00    +0.000 NA
ATOM     23  C   UNL     1       1.522  15.760  20.834  0.00  0.00    +0.000 C 
ATOM     24  C   UNL     1       1.795  16.319  19.447  0.00  0.00    +0.000 C 
ATOM     25  C   UNL     1       3.031  15.729  18.792  0.00  0.00    +0.000 C 
ATOM     26  C   UNL     1       3.278  14.249  19.083  0.00  0.00    +0.000 C 
ATOM     27  C   UNL     1       2.574  13.628  20.316  0.00  0.00    +0.000 C 
BRANCH  26  28
ATOM     28  O   UNL     1       2.968  13.517  17.893  0.00  0.00    +0.000 OA
ATOM     29  H   UNL     1       2.106  13.817  17.563  0.00  0.00    +0.000 HD
ENDBRANCH  26  28
ENDBRANCH  21  22
ENDBRANCH  10  21
TORSDOF 4
ENDMDL
MODEL 7
REMARK VINA RESULT:      -6.8      7.443     10.210
REMARK  Name = 
REMARK  4 active torsions:
REMARK  status: ('A' for Active; 'I' for Inactive)
REMARK    1  A    between atoms: C_2  and  C_3
REMARK    2  A    between atoms: C_12  and  C_13
REMARK    3  A    between atoms: C_13  and  N_14
REMARK    4  A    between atoms: C_18  and  O_19
REMARK                            x       y       z     vdW  Elec       q    Type
REMARK                         _______ _______ _______ _____ _____    ______ ____
ROOT
ATOM      1  C   UNL     1      -4.791  12.933  22.596  0.00  0.00    +0.000 A 
ATOM      2  N   UNL     1      -6.044  12.320  22.489  0.00  0.00    +0.000 NA
ATOM      3  C   UNL     1      -6.320  12.257  21.188  0.00  0.00    +0.000 A 
ATOM      4  C   UNL     1      -7.401  11.692  20.439  0.00  0.00    +0.000 A 
ATOM      5  C   UNL     1      -7.538  11.960  19.112  0.00  0.00    +0.000 A 
ATOM      6  C   UNL     1      -6.593  12.829  18.423  0.00  0.00    +0.000 A 
ATOM      7 CL   UNL     1      -6.886  13.270  16.788  0.00  0.00    +0.000 Cl
ATOM      8  C   UNL     1      -5.508  13.242  19.087  0.00  0.00    +0.000 A 
ATOM      9  N   UNL     1      -5.358  12.925  20.437  0.00  0.00    +0.000 N 
ATOM     10  C   UNL     1      -4.296  13.147  21.289  0.00  0.00    +0.000 A 
ENDROOT
BRANCH   1  12
ATOM     11  O   UNL     1      -3.320  12.474  24.335  0.00  0.00    +0.000 OA
ATOM     12  C   UNL     1      -4.006  13.365  23.793  0.00  0.00    +0.000 C 
ATOM     13  N   UNL     1      -3.887  14.649  24.354  0.00  0.00    +0.000 N 
ATOM     14  C   UNL     1      -4.700  15.836  24.118  0.00  0.00    +0.000 C 
ATOM     15  C   UNL     1      -3.915  17.050  23.601  0.00  0.00    +0.000 C 
ATOM     16  C   UNL     1      -3.081  16.753  22.362  0.00  0.00    +0.000 C 
ATOM     17  C   UNL     1      -1.601  16.400  22.565  0.00  0.00    +0.000 C 
ATOM     18  C   UNL     1      -1.164  15.309  23.549  0.00  0.00    +0.000 C 
ATOM     19  C   UNL     1      -1.584  15.497  25.005  0.00  0.00    +0.000 C 
ATOM     20  C   UNL     1      -2.880  14.793  25.423  0.00  0.00    +0.000 C 
ENDBRANCH   1  12
BRANCH  10  21
ATOM     21  C   UNL     1      -2.920  13.472  20.794  0.00  0.00    +0.000 C 
BRANCH  21  22
ATOM     22  N   UNL     1      -2.106  12.248  20.714  0.00  0.00    +0.000 NA
ATOM     23  C   UNL     1      -0.805  12.293  21.382  0.00  0.00    +0.000 C 
ATOM     24  C   UNL     1       0.311  12.975  20.608  0.00  0.00    +0.000 C 
ATOM     25  C   UNL     1       0.522  12.397  19.220  0.00  0.00    +0.000 C 
ATOM     26  C   UNL     1      -0.750  11.955  18.499  0.00  0.00    +0.000 C 
ATOM     27  C   UNL     1      -2.016  11.701  19.356  0.00  0.00    +0.000 C 
BRANCH  26  28
ATOM     28  O   UNL     1      -1.015  12.908  17.464  0.00  0.00    +0.000 OA
ATOM     29  H   UNL     1      -0.176  13.328  17.212  0.00  0.00    +0.000 HD
ENDBRANCH  26  28
ENDBRANCH  21  22
ENDBRANCH  10  21
TORSDOF 4
ENDMDL
MODEL 8
REMARK VINA RESULT:      -6.7      4.880      8.013
REMARK  Name = 
REMARK  4 active torsions:
REMARK  status: ('A' for Active; 'I' for Inactive)
REMARK    1  A    between atoms: C_2  and  C_3
REMARK    2  A    between atoms: C_12  and  C_13
REMARK    3  A    between atoms: C_13  and  N_14
REMARK    4  A    between atoms: C_18  and  O_19
REMARK                            x       y       z     vdW  Elec       q    Type
REMARK                         _______ _______ _______ _____ _____    ______ ____
ROOT
ATOM      1  C   UNL     1      -2.917  12.812  20.455  0.00  0.00    +0.000 A 
ATOM      2  N   UNL     1      -4.256  12.753  20.054  0.00  0.00    +0.000 NA
ATOM      3  C   UNL     1      -4.272  12.089  18.900  0.00  0.00    +0.000 A 
ATOM      4  C   UNL     1      -5.324  11.649  18.034  0.00  0.00    +0.000 A 
ATOM      5  C   UNL     1      -5.043  11.168  16.793  0.00  0.00    +0.000 A 
ATOM      6  C   UNL     1      -3.669  11.093  16.313  0.00  0.00    +0.000 A 
ATOM      7 CL   UNL     1      -3.365  10.628  14.688  0.00  0.00    +0.000 Cl
ATOM      8  C   UNL     1      -2.680  11.370  17.170  0.00  0.00    +0.000 A 
ATOM      9  N   UNL     1      -2.981  11.823  18.455  0.00  0.00    +0.000 N 
ATOM     10  C   UNL     1      -2.150  12.070  19.528  0.00  0.00    +0.000 A 
ENDROOT
BRANCH   1  12
ATOM     11  O   UNL     1      -1.494  14.443  21.299  0.00  0.00    +0.000 OA
ATOM     12  C   UNL     1      -2.264  13.509  21.605  0.00  0.00    +0.000 C 
ATOM     13  N   UNL     1      -2.443  13.296  22.984  0.00  0.00    +0.000 N 
ATOM     14  C   UNL     1      -3.074  12.173  23.667  0.00  0.00    +0.000 C 
ATOM     15  C   UNL     1      -4.261  12.561  24.560  0.00  0.00    +0.000 C 
ATOM     16  C   UNL     1      -5.325  13.378  23.840  0.00  0.00    +0.000 C 
ATOM     17  C   UNL     1      -5.260  14.907  23.965  0.00  0.00    +0.000 C 
ATOM     18  C   UNL     1      -3.970  15.681  23.675  0.00  0.00    +0.000 C 
ATOM     19  C   UNL     1      -2.746  15.303  24.508  0.00  0.00    +0.000 C 
ATOM     20  C   UNL     1      -1.798  14.278  23.875  0.00  0.00    +0.000 C 
ENDBRANCH   1  12
BRANCH  10  21
ATOM     21  C   UNL     1      -0.753  11.536  19.604  0.00  0.00    +0.000 C 
BRANCH  21  22
ATOM     22  N   UNL     1      -0.752  10.080  19.391  0.00  0.00    +0.000 NA
ATOM     23  C   UNL     1      -0.255   9.266  20.500  0.00  0.00    +0.000 C 
ATOM     24  C   UNL     1       1.257   9.157  20.611  0.00  0.00    +0.000 C 
ATOM     25  C   UNL     1       1.922   8.663  19.338  0.00  0.00    +0.000 C 
ATOM     26  C   UNL     1       1.284   9.153  18.039  0.00  0.00    +0.000 C 
ATOM     27  C   UNL     1      -0.171   9.684  18.104  0.00  0.00    +0.000 C 
BRANCH  26  28
ATOM     28  O   UNL     1       2.160  10.128  17.467  0.00  0.00    +0.000 OA
ATOM     29  H   UNL     1       1.727  10.509  16.685  0.00  0.00    +0.000 HD
ENDBRANCH  26  28
ENDBRANCH  21  22
ENDBRANCH  10  21
TORSDOF 4
ENDMDL
MODEL 9
REMARK VINA RESULT:      -6.7      8.553     11.834
REMARK  Name = 
REMARK  4 active torsions:
REMARK  status: ('A' for Active; 'I' for Inactive)
REMARK    1  A    between atoms: C_2  and  C_3
REMARK    2  A    between atoms: C_12  and  C_13
REMARK    3  A    between atoms: C_13  and  N_14
REMARK    4  A    between atoms: C_18  and  O_19
REMARK                            x       y       z     vdW  Elec       q    Type
REMARK                         _______ _______ _______ _____ _____    ______ ____
ROOT
ATOM      1  C   UNL     1       7.795  14.495  18.247  0.00  0.00    +0.000 A 
ATOM      2  N   UNL     1       6.636  14.735  17.501  0.00  0.00    +0.000 NA
ATOM      3  C   UNL     1       5.685  15.047  18.378  0.00  0.00    +0.000 A 
ATOM      4  C   UNL     1       4.318  15.455  18.243  0.00  0.00    +0.000 A 
ATOM      5  C   UNL     1       3.502  15.508  19.329  0.00  0.00    +0.000 A 
ATOM      6  C   UNL     1       3.993  15.148  20.653  0.00  0.00    +0.000 A 
ATOM      7 CL   UNL     1       2.895  15.076  21.973  0.00  0.00    +0.000 Cl
ATOM      8  C   UNL     1       5.300  14.904  20.802  0.00  0.00    +0.000 A 
ATOM      9  N   UNL     1       6.135  14.894  19.685  0.00  0.00    +0.000 N 
ATOM     10  C   UNL     1       7.507  14.771  19.603  0.00  0.00    +0.000 A 
ENDROOT
BRANCH   1  12
ATOM     11  O   UNL     1       9.958  14.903  17.505  0.00  0.00    +0.000 OA
ATOM     12  C   UNL     1       9.148  14.012  17.834  0.00  0.00    +0.000 C 
ATOM     13  N   UNL     1       9.651  12.698  17.824  0.00  0.00    +0.000 N 
ATOM     14  C   UNL     1       8.931  11.436  17.928  0.00  0.00    +0.000 C 
ATOM     15  C   UNL     1       9.362  10.555  19.110  0.00  0.00    +0.000 C 
ATOM     16  C   UNL     1       9.322  11.273  20.452  0.00  0.00    +0.000 C 
ATOM     17  C   UNL     1      10.627  11.894  20.970  0.00  0.00    +0.000 C 
ATOM     18  C   UNL     1      11.471  12.831  20.098  0.00  0.00    +0.000 C 
ATOM     19  C   UNL     1      11.967  12.263  18.770  0.00  0.00    +0.000 C 
ATOM     20  C   UNL     1      11.094  12.565  17.547  0.00  0.00    +0.000 C 
ENDBRANCH   1  12
BRANCH  10  21
ATOM     21  C   UNL     1       8.407  14.987  20.781  0.00  0.00    +0.000 C 
BRANCH  21  22
ATOM     22  N   UNL     1       8.979  16.343  20.743  0.00  0.00    +0.000 NA
ATOM     23  C   UNL     1      10.440  16.426  20.738  0.00  0.00    +0.000 C 
ATOM     24  C   UNL     1      11.113  16.281  22.093  0.00  0.00    +0.000 C 
ATOM     25  C   UNL     1      10.594  17.260  23.132  0.00  0.00    +0.000 C 
ATOM     26  C   UNL     1       9.100  17.566  23.049  0.00  0.00    +0.000 C 
ATOM     27  C   UNL     1       8.371  17.254  21.717  0.00  0.00    +0.000 C 
BRANCH  26  28
ATOM     28  O   UNL     1       8.461  16.908  24.148  0.00  0.00    +0.000 OA
ATOM     29  H   UNL     1       7.714  17.456  24.441  0.00  0.00    +0.000 HD
ENDBRANCH  26  28
ENDBRANCH  21  22
ENDBRANCH  10  21
TORSDOF 4
ENDMDL
