MODEL 1
REMARK VINA RESULT:      -8.3      0.000      0.000
REMARK  Name = 
REMARK  10 active torsions:
REMARK  status: ('A' for Active; 'I' for Inactive)
REMARK    1  A    between atoms: C_1  and  O_2
REMARK    2  A    between atoms: O_2  and  C_3
REMARK    3  A    between atoms: C_8  and  O_9
REMARK    4  A    between atoms: O_9  and  C_10
REMARK    5  A    between atoms: N_11  and  C_12
REMARK    6  A    between atoms: C_12  and  C_13
REMARK    7  A    between atoms: N_15  and  C_16
REMARK    8  A    between atoms: C_19  and  C_20
REMARK    9  A    between atoms: C_22  and  C_23
REMARK   10  A    between atoms: C_28  and  C_29
REMARK                            x       y       z     vdW  Elec       q    Type
REMARK                         _______ _______ _______ _____ _____    ______ ____
ROOT
ATOM      1  C   UNL     1      -3.553  11.162  17.414  0.00  0.00    +0.000 A 
ATOM      2  C   UNL     1      -3.240  11.815  18.627  0.00  0.00    +0.000 A 
ATOM      3  C   UNL     1      -1.989  11.635  19.244  0.00  0.00    +0.000 A 
ATOM      4  C   UNL     1      -1.026  10.799  18.656  0.00  0.00    +0.000 A 
ATOM      5  C   UNL     1      -1.403  10.064  17.538  0.00  0.00    +0.000 A 
ATOM      6  C   UNL     1      -2.637  10.236  16.900  0.00  0.00    +0.000 A 
ATOM      7  N   UNL     1       0.308  10.735  19.181  0.00  0.00    +0.000 N 
ATOM      8  C   UNL     1       0.704  11.422  20.339  0.00  0.00    +0.000 A 
ATOM      9  O   UNL     1       1.835  11.418  20.815  0.00  0.00    +0.000 OA
ATOM     10  N   UNL     1      -0.327  12.172  20.933  0.00  0.00    +0.000 N 
ATOM     11  N   UNL     1      -0.158  12.883  22.072  0.00  0.00    +0.000 NA
ATOM     12  C   UNL     1      -1.390  13.353  22.312  0.00  0.00    +0.000 A 
ATOM     13  N   UNL     1      -2.307  13.046  21.317  0.00  0.00    +0.000 NA
ATOM     14  C   UNL     1      -1.610  12.306  20.473  0.00  0.00    +0.000 A 
ENDROOT
BRANCH  12  15
ATOM     15  C   UNL     1      -1.731  14.069  23.550  0.00  0.00    +0.000 A 
ATOM     16  C   UNL     1      -2.984  13.877  24.152  0.00  0.00    +0.000 A 
ATOM     17  C   UNL     1      -3.360  14.600  25.288  0.00  0.00    +0.000 A 
ATOM     18  C   UNL     1      -2.483  15.534  25.841  0.00  0.00    +0.000 A 
ATOM     19  C   UNL     1      -1.229  15.733  25.251  0.00  0.00    +0.000 A 
ATOM     20  C   UNL     1      -0.855  14.998  24.114  0.00  0.00    +0.000 A 
ENDBRANCH  12  15
BRANCH   1  22
ATOM     21  C   UNL     1      -5.634  12.313  17.307  0.00  0.00    +0.000 C 
ATOM     22  O   UNL     1      -4.722  11.375  16.734  0.00  0.00    +0.000 OA
ENDBRANCH   1  22
BRANCH   6  23
ATOM     23  O   UNL     1      -2.704   9.403  15.827  0.00  0.00    +0.000 OA
ATOM     24  C   UNL     1      -2.830   9.881  14.504  0.00  0.00    +0.000 C 
ENDBRANCH   6  23
BRANCH   7  25
ATOM     25  C   UNL     1       1.387  10.116  18.387  0.00  0.00    +0.000 C 
BRANCH  25  26
ATOM     26  C   UNL     1       1.788   8.665  18.730  0.00  0.00    +0.000 C 
ATOM     27  O   UNL     1       1.720   8.223  19.876  0.00  0.00    +0.000 OA
ATOM     28  N   UNL     1       2.233   7.931  17.637  0.00  0.00    +0.000 N 
ATOM     29  H   UNL     1       2.806   8.482  17.005  0.00  0.00    +0.000 HD
BRANCH  28  30
ATOM     30  C   UNL     1       2.637   6.575  17.780  0.00  0.00    +0.000 A 
ATOM     31  C   UNL     1       1.658   5.667  18.195  0.00  0.00    +0.000 A 
ATOM     32  C   UNL     1       1.962   4.314  18.372  0.00  0.00    +0.000 A 
ATOM     33  C   UNL     1       3.264   3.851  18.178  0.00  0.00    +0.000 A 
ATOM     34  C   UNL     1       3.612   2.408  18.398  0.00  0.00    +0.000 C 
ATOM     35  C   UNL     1       4.251   4.763  17.783  0.00  0.00    +0.000 A 
ATOM     36  C   UNL     1       3.960   6.131  17.587  0.00  0.00    +0.000 A 
ATOM     37  C   UNL     1       5.119   7.057  17.331  0.00  0.00    +0.000 C 
ENDBRANCH  28  30
ENDBRANCH  25  26
ENDBRANCH   7  25
TORSDOF 6
ENDMDL
MODEL 2
REMARK VINA RESULT:      -8.1      3.269      4.138
REMARK  Name = 
REMARK  10 active torsions:
REMARK  status: ('A' for Active; 'I' for Inactive)
REMARK    1  A    between atoms: C_1  and  O_2
REMARK    2  A    between atoms: O_2  and  C_3
REMARK    3  A    between atoms: C_8  and  O_9
REMARK    4  A    between atoms: O_9  and  C_10
REMARK    5  A    between atoms: N_11  and  C_12
REMARK    6  A    between atoms: C_12  and  C_13
REMARK    7  A    between atoms: N_15  and  C_16
REMARK    8  A    between atoms: C_19  and  C_20
REMARK    9  A    between atoms: C_22  and  C_23
REMARK   10  A    between atoms: C_28  and  C_29
REMARK                            x       y       z     vdW  Elec       q    Type
REMARK                         _______ _______ _______ _____ _____    ______ ____
ROOT
ATOM      1  C   UNL     1       0.644  14.626  19.524  0.00  0.00    +0.000 A 
ATOM      2  C   UNL     1      -0.510  14.528  20.332  0.00  0.00    +0.000 A 
ATOM      3  C   UNL     1      -0.803  13.345  21.035  0.00  0.00    +0.000 A 
ATOM      4  C   UNL     1       0.057  12.238  20.942  0.00  0.00    +0.000 A 
ATOM      5  C   UNL     1       1.110  12.311  20.039  0.00  0.00    +0.000 A 
ATOM      6  C   UNL     1       1.428  13.480  19.339  0.00  0.00    +0.000 A 
ATOM      7  N   UNL     1      -0.138  11.088  21.779  0.00  0.00    +0.000 N 
ATOM      8  C   UNL     1      -1.222  10.963  22.660  0.00  0.00    +0.000 A 
ATOM      9  O   UNL     1      -1.420  10.012  23.411  0.00  0.00    +0.000 OA
ATOM     10  N   UNL     1      -2.097  12.064  22.644  0.00  0.00    +0.000 N 
ATOM     11  N   UNL     1      -3.217  12.126  23.400  0.00  0.00    +0.000 NA
ATOM     12  C   UNL     1      -3.773  13.281  23.009  0.00  0.00    +0.000 A 
ATOM     13  N   UNL     1      -2.997  13.996  22.108  0.00  0.00    +0.000 NA
ATOM     14  C   UNL     1      -1.959  13.205  21.900  0.00  0.00    +0.000 A 
ENDROOT
BRANCH  12  15
ATOM     15  C   UNL     1      -5.108  13.703  23.458  0.00  0.00    +0.000 A 
ATOM     16  C   UNL     1      -6.032  12.749  23.911  0.00  0.00    +0.000 A 
ATOM     17  C   UNL     1      -7.331  13.114  24.275  0.00  0.00    +0.000 A 
ATOM     18  C   UNL     1      -7.729  14.449  24.189  0.00  0.00    +0.000 A 
ATOM     19  C   UNL     1      -6.816  15.411  23.741  0.00  0.00    +0.000 A 
ATOM     20  C   UNL     1      -5.510  15.038  23.384  0.00  0.00    +0.000 A 
ENDBRANCH  12  15
BRANCH   1  22
ATOM     21  C   UNL     1       1.995  16.586  19.553  0.00  0.00    +0.000 C 
ATOM     22  O   UNL     1       1.015  15.783  18.893  0.00  0.00    +0.000 OA
ENDBRANCH   1  22
BRANCH   6  23
ATOM     23  O   UNL     1       2.519  13.250  18.559  0.00  0.00    +0.000 OA
ATOM     24  C   UNL     1       2.736  12.016  17.906  0.00  0.00    +0.000 C 
ENDBRANCH   6  23
BRANCH   7  25
ATOM     25  C   UNL     1       0.932  10.079  21.909  0.00  0.00    +0.000 C 
BRANCH  25  26
ATOM     26  C   UNL     1       0.774   8.761  21.120  0.00  0.00    +0.000 C 
ATOM     27  O   UNL     1      -0.330   8.297  20.838  0.00  0.00    +0.000 OA
ATOM     28  N   UNL     1       1.981   8.163  20.777  0.00  0.00    +0.000 N 
ATOM     29  H   UNL     1       2.674   8.235  21.516  0.00  0.00    +0.000 HD
BRANCH  28  30
ATOM     30  C   UNL     1       2.013   6.944  20.045  0.00  0.00    +0.000 A 
ATOM     31  C   UNL     1       1.759   5.771  20.765  0.00  0.00    +0.000 A 
ATOM     32  C   UNL     1       1.777   4.524  20.134  0.00  0.00    +0.000 A 
ATOM     33  C   UNL     1       2.091   4.422  18.778  0.00  0.00    +0.000 A 
ATOM     34  C   UNL     1       2.147   3.087  18.096  0.00  0.00    +0.000 C 
ATOM     35  C   UNL     1       2.365   5.594  18.061  0.00  0.00    +0.000 A 
ATOM     36  C   UNL     1       2.340   6.864  18.678  0.00  0.00    +0.000 A 
ATOM     37  C   UNL     1       2.815   8.039  17.867  0.00  0.00    +0.000 C 
ENDBRANCH  28  30
ENDBRANCH  25  26
ENDBRANCH   7  25
TORSDOF 6
ENDMDL
MODEL 3
REMARK VINA RESULT:      -8.0      0.751      1.034
REMARK  Name = 
REMARK  10 active torsions:
REMARK  status: ('A' for Active; 'I' for Inactive)
REMARK    1  A    between atoms: C_1  and  O_2
REMARK    2  A    between atoms: O_2  and  C_3
REMARK    3  A    between atoms: C_8  and  O_9
REMARK    4  A    between atoms: O_9  and  C_10
REMARK    5  A    between atoms: N_11  and  C_12
REMARK    6  A    between atoms: C_12  and  C_13
REMARK    7  A    between atoms: N_15  and  C_16
REMARK    8  A    between atoms: C_19  and  C_20
REMARK    9  A    between atoms: C_22  and  C_23
REMARK   10  A    between atoms: C_28  and  C_29
REMARK                            x       y       z     vdW  Elec       q    Type
REMARK                         _______ _______ _______ _____ _____    ______ ____
ROOT
ATOM      1  C   UNL     1      -3.560  11.378  17.316  0.00  0.00    +0.000 A 
ATOM      2  C   UNL     1      -3.312  12.086  18.512  0.00  0.00    +0.000 A 
ATOM      3  C   UNL     1      -2.115  11.901  19.227  0.00  0.00    +0.000 A 
ATOM      4  C   UNL     1      -1.142  11.004  18.756  0.00  0.00    +0.000 A 
ATOM      5  C   UNL     1      -1.464  10.221  17.654  0.00  0.00    +0.000 A 
ATOM      6  C   UNL     1      -2.643  10.396  16.920  0.00  0.00    +0.000 A 
ATOM      7  N   UNL     1       0.148  10.927  19.380  0.00  0.00    +0.000 N 
ATOM      8  C   UNL     1       0.483  11.664  20.527  0.00  0.00    +0.000 A 
ATOM      9  O   UNL     1       1.577  11.651  21.084  0.00  0.00    +0.000 OA
ATOM     10  N   UNL     1      -0.560  12.478  21.004  0.00  0.00    +0.000 N 
ATOM     11  N   UNL     1      -0.447  13.244  22.113  0.00  0.00    +0.000 NA
ATOM     12  C   UNL     1      -1.677  13.765  22.237  0.00  0.00    +0.000 A 
ATOM     13  N   UNL     1      -2.530  13.433  21.195  0.00  0.00    +0.000 NA
ATOM     14  C   UNL     1      -1.801  12.626  20.445  0.00  0.00    +0.000 A 
ENDROOT
BRANCH  12  15
ATOM     15  C   UNL     1      -2.079  14.559  23.407  0.00  0.00    +0.000 A 
ATOM     16  C   UNL     1      -1.154  14.828  24.427  0.00  0.00    +0.000 A 
ATOM     17  C   UNL     1      -1.531  15.519  25.582  0.00  0.00    +0.000 A 
ATOM     18  C   UNL     1      -2.848  15.953  25.736  0.00  0.00    +0.000 A 
ATOM     19  C   UNL     1      -3.780  15.693  24.725  0.00  0.00    +0.000 A 
ATOM     20  C   UNL     1      -3.393  15.005  23.563  0.00  0.00    +0.000 A 
ENDBRANCH  12  15
BRANCH   1  22
ATOM     21  C   UNL     1      -5.770  12.251  17.167  0.00  0.00    +0.000 C 
ATOM     22  O   UNL     1      -4.669  11.590  16.541  0.00  0.00    +0.000 OA
ENDBRANCH   1  22
BRANCH   6  23
ATOM     23  O   UNL     1      -2.662   9.508  15.889  0.00  0.00    +0.000 OA
ATOM     24  C   UNL     1      -2.833   9.910  14.546  0.00  0.00    +0.000 C 
ENDBRANCH   6  23
BRANCH   7  25
ATOM     25  C   UNL     1       1.258  10.232  18.701  0.00  0.00    +0.000 C 
BRANCH  25  26
ATOM     26  C   UNL     1       1.651   8.832  19.220  0.00  0.00    +0.000 C 
ATOM     27  O   UNL     1       1.363   8.451  20.353  0.00  0.00    +0.000 OA
ATOM     28  N   UNL     1       2.358   8.068  18.298  0.00  0.00    +0.000 N 
ATOM     29  H   UNL     1       3.024   8.620  17.764  0.00  0.00    +0.000 HD
BRANCH  28  30
ATOM     30  C   UNL     1       2.793   6.753  18.616  0.00  0.00    +0.000 A 
ATOM     31  C   UNL     1       2.186   6.138  19.716  0.00  0.00    +0.000 A 
ATOM     32  C   UNL     1       2.553   4.849  20.111  0.00  0.00    +0.000 A 
ATOM     33  C   UNL     1       3.566   4.165  19.438  0.00  0.00    +0.000 A 
ATOM     34  C   UNL     1       3.994   2.794  19.873  0.00  0.00    +0.000 C 
ATOM     35  C   UNL     1       4.190   4.787  18.349  0.00  0.00    +0.000 A 
ATOM     36  C   UNL     1       3.824   6.084  17.927  0.00  0.00    +0.000 A 
ATOM     37  C   UNL     1       4.667   6.731  16.861  0.00  0.00    +0.000 C 
ENDBRANCH  28  30
ENDBRANCH  25  26
ENDBRANCH   7  25
TORSDOF 6
ENDMDL
MODEL 4
REMARK VINA RESULT:      -7.7      1.113      1.147
REMARK  Name = 
REMARK  10 active torsions:
REMARK  status: ('A' for Active; 'I' for Inactive)
REMARK    1  A    between atoms: C_1  and  O_2
REMARK    2  A    between atoms: O_2  and  C_3
REMARK    3  A    between atoms: C_8  and  O_9
REMARK    4  A    between atoms: O_9  and  C_10
REMARK    5  A    between atoms: N_11  and  C_12
REMARK    6  A    between atoms: C_12  and  C_13
REMARK    7  A    between atoms: N_15  and  C_16
REMARK    8  A    between atoms: C_19  and  C_20
REMARK    9  A    between atoms: C_22  and  C_23
REMARK   10  A    between atoms: C_28  and  C_29
REMARK                            x       y       z     vdW  Elec       q    Type
REMARK                         _______ _______ _______ _____ _____    ______ ____
ROOT
ATOM      1  C   UNL     1      -3.685  11.370  17.448  0.00  0.00    +0.000 A 
ATOM      2  C   UNL     1      -3.416  12.071  18.644  0.00  0.00    +0.000 A 
ATOM      3  C   UNL     1      -2.161  11.972  19.273  0.00  0.00    +0.000 A 
ATOM      4  C   UNL     1      -1.153  11.171  18.714  0.00  0.00    +0.000 A 
ATOM      5  C   UNL     1      -1.483  10.388  17.615  0.00  0.00    +0.000 A 
ATOM      6  C   UNL     1      -2.720  10.478  16.966  0.00  0.00    +0.000 A 
ATOM      7  N   UNL     1       0.179  11.189  19.250  0.00  0.00    +0.000 N 
ATOM      8  C   UNL     1       0.530  11.927  20.390  0.00  0.00    +0.000 A 
ATOM      9  O   UNL     1       1.657  11.994  20.873  0.00  0.00    +0.000 OA
ATOM     10  N   UNL     1      -0.542  12.640  20.958  0.00  0.00    +0.000 N 
ATOM     11  N   UNL     1      -0.417  13.389  22.077  0.00  0.00    +0.000 NA
ATOM     12  C   UNL     1      -1.674  13.801  22.297  0.00  0.00    +0.000 A 
ATOM     13  N   UNL     1      -2.566  13.421  21.305  0.00  0.00    +0.000 NA
ATOM     14  C   UNL     1      -1.826  12.695  20.486  0.00  0.00    +0.000 A 
ENDROOT
BRANCH  12  15
ATOM     15  C   UNL     1      -2.060  14.533  23.512  0.00  0.00    +0.000 A 
ATOM     16  C   UNL     1      -3.377  14.993  23.669  0.00  0.00    +0.000 A 
ATOM     17  C   UNL     1      -3.752  15.752  24.780  0.00  0.00    +0.000 A 
ATOM     18  C   UNL     1      -2.808  16.068  25.758  0.00  0.00    +0.000 A 
ATOM     19  C   UNL     1      -1.492  15.614  25.615  0.00  0.00    +0.000 A 
ATOM     20  C   UNL     1      -1.124  14.845  24.499  0.00  0.00    +0.000 A 
ENDBRANCH  12  15
BRANCH   1  22
ATOM     21  C   UNL     1      -6.055  11.581  17.531  0.00  0.00    +0.000 C 
ATOM     22  O   UNL     1      -4.859  11.505  16.755  0.00  0.00    +0.000 OA
ENDBRANCH   1  22
BRANCH   6  23
ATOM     23  O   UNL     1      -2.736   9.614  15.915  0.00  0.00    +0.000 OA
ATOM     24  C   UNL     1      -3.019  10.031  14.596  0.00  0.00    +0.000 C 
ENDBRANCH   6  23
BRANCH   7  25
ATOM     25  C   UNL     1       1.294  10.605  18.479  0.00  0.00    +0.000 C 
BRANCH  25  26
ATOM     26  C   UNL     1       1.386   9.066  18.407  0.00  0.00    +0.000 C 
ATOM     27  O   UNL     1       0.846   8.421  17.509  0.00  0.00    +0.000 OA
ATOM     28  N   UNL     1       2.116   8.496  19.444  0.00  0.00    +0.000 N 
ATOM     29  H   UNL     1       1.951   8.956  20.334  0.00  0.00    +0.000 HD
BRANCH  28  30
ATOM     30  C   UNL     1       2.300   7.089  19.524  0.00  0.00    +0.000 A 
ATOM     31  C   UNL     1       1.649   6.428  20.571  0.00  0.00    +0.000 A 
ATOM     32  C   UNL     1       1.776   5.046  20.737  0.00  0.00    +0.000 A 
ATOM     33  C   UNL     1       2.592   4.304  19.882  0.00  0.00    +0.000 A 
ATOM     34  C   UNL     1       2.765   2.825  20.070  0.00  0.00    +0.000 C 
ATOM     35  C   UNL     1       3.261   4.967  18.846  0.00  0.00    +0.000 A 
ATOM     36  C   UNL     1       3.135   6.360  18.655  0.00  0.00    +0.000 A 
ATOM     37  C   UNL     1       4.025   7.003  17.625  0.00  0.00    +0.000 C 
ENDBRANCH  28  30
ENDBRANCH  25  26
ENDBRANCH   7  25
TORSDOF 6
ENDMDL
MODEL 5
REMARK VINA RESULT:      -7.5      2.948      9.557
REMARK  Name = 
REMARK  10 active torsions:
REMARK  status: ('A' for Active; 'I' for Inactive)
REMARK    1  A    between atoms: C_1  and  O_2
REMARK    2  A    between atoms: O_2  and  C_3
REMARK    3  A    between atoms: C_8  and  O_9
REMARK    4  A    between atoms: O_9  and  C_10
REMARK    5  A    between atoms: N_11  and  C_12
REMARK    6  A    between atoms: C_12  and  C_13
REMARK    7  A    between atoms: N_15  and  C_16
REMARK    8  A    between atoms: C_19  and  C_20
REMARK    9  A    between atoms: C_22  and  C_23
REMARK   10  A    between atoms: C_28  and  C_29
REMARK                            x       y       z     vdW  Elec       q    Type
REMARK                         _______ _______ _______ _____ _____    ______ ____
ROOT
ATOM      1  C   UNL     1       2.793  14.180  18.424  0.00  0.00    +0.000 A 
ATOM      2  C   UNL     1       2.873  12.780  18.257  0.00  0.00    +0.000 A 
ATOM      3  C   UNL     1       1.725  11.974  18.356  0.00  0.00    +0.000 A 
ATOM      4  C   UNL     1       0.475  12.555  18.623  0.00  0.00    +0.000 A 
ATOM      5  C   UNL     1       0.442  13.914  18.916  0.00  0.00    +0.000 A 
ATOM      6  C   UNL     1       1.568  14.737  18.811  0.00  0.00    +0.000 A 
ATOM      7  N   UNL     1      -0.726  11.771  18.564  0.00  0.00    +0.000 N 
ATOM      8  C   UNL     1      -0.721  10.388  18.324  0.00  0.00    +0.000 A 
ATOM      9  O   UNL     1      -1.719   9.679  18.242  0.00  0.00    +0.000 OA
ATOM     10  N   UNL     1       0.566   9.847  18.153  0.00  0.00    +0.000 N 
ATOM     11  N   UNL     1       0.788   8.530  17.941  0.00  0.00    +0.000 NA
ATOM     12  C   UNL     1       2.127   8.456  17.924  0.00  0.00    +0.000 A 
ATOM     13  N   UNL     1       2.754   9.689  18.020  0.00  0.00    +0.000 NA
ATOM     14  C   UNL     1       1.750  10.535  18.165  0.00  0.00    +0.000 A 
ENDROOT
BRANCH  12  15
ATOM     15  C   UNL     1       2.843   7.173  17.870  0.00  0.00    +0.000 A 
ATOM     16  C   UNL     1       4.152   7.117  17.367  0.00  0.00    +0.000 A 
ATOM     17  C   UNL     1       4.827   5.901  17.239  0.00  0.00    +0.000 A 
ATOM     18  C   UNL     1       4.199   4.712  17.613  0.00  0.00    +0.000 A 
ATOM     19  C   UNL     1       2.895   4.754  18.119  0.00  0.00    +0.000 A 
ATOM     20  C   UNL     1       2.224   5.981  18.252  0.00  0.00    +0.000 A 
ENDBRANCH  12  15
BRANCH   1  22
ATOM     21  C   UNL     1       4.675  15.265  19.398  0.00  0.00    +0.000 C 
ATOM     22  O   UNL     1       3.866  15.013  18.249  0.00  0.00    +0.000 OA
ENDBRANCH   1  22
BRANCH   6  23
ATOM     23  O   UNL     1       1.219  16.012  19.132  0.00  0.00    +0.000 OA
ATOM     24  C   UNL     1      -0.058  16.542  18.846  0.00  0.00    +0.000 C 
ENDBRANCH   6  23
BRANCH   7  25
ATOM     25  C   UNL     1      -2.043  12.436  18.528  0.00  0.00    +0.000 C 
BRANCH  25  26
ATOM     26  C   UNL     1      -2.862  12.476  19.836  0.00  0.00    +0.000 C 
ATOM     27  O   UNL     1      -2.379  12.150  20.919  0.00  0.00    +0.000 OA
ATOM     28  N   UNL     1      -4.175  12.899  19.665  0.00  0.00    +0.000 N 
ATOM     29  H   UNL     1      -4.593  12.537  18.813  0.00  0.00    +0.000 HD
BRANCH  28  30
ATOM     30  C   UNL     1      -5.063  12.996  20.771  0.00  0.00    +0.000 A 
ATOM     31  C   UNL     1      -4.665  13.822  21.828  0.00  0.00    +0.000 A 
ATOM     32  C   UNL     1      -5.467  13.974  22.962  0.00  0.00    +0.000 A 
ATOM     33  C   UNL     1      -6.666  13.270  23.079  0.00  0.00    +0.000 A 
ATOM     34  C   UNL     1      -7.521  13.397  24.306  0.00  0.00    +0.000 C 
ATOM     35  C   UNL     1      -7.057  12.427  22.031  0.00  0.00    +0.000 A 
ATOM     36  C   UNL     1      -6.266  12.269  20.872  0.00  0.00    +0.000 A 
ATOM     37  C   UNL     1      -6.684  11.215  19.883  0.00  0.00    +0.000 C 
ENDBRANCH  28  30
ENDBRANCH  25  26
ENDBRANCH   7  25
TORSDOF 6
ENDMDL
MODEL 6
REMARK VINA RESULT:      -7.4      0.961      1.587
REMARK  Name = 
REMARK  10 active torsions:
REMARK  status: ('A' for Active; 'I' for Inactive)
REMARK    1  A    between atoms: C_1  and  O_2
REMARK    2  A    between atoms: O_2  and  C_3
REMARK    3  A    between atoms: C_8  and  O_9
REMARK    4  A    between atoms: O_9  and  C_10
REMARK    5  A    between atoms: N_11  and  C_12
REMARK    6  A    between atoms: C_12  and  C_13
REMARK    7  A    between atoms: N_15  and  C_16
REMARK    8  A    between atoms: C_19  and  C_20
REMARK    9  A    between atoms: C_22  and  C_23
REMARK   10  A    between atoms: C_28  and  C_29
REMARK                            x       y       z     vdW  Elec       q    Type
REMARK                         _______ _______ _______ _____ _____    ______ ____
ROOT
ATOM      1  C   UNL     1      -3.962  11.266  17.544  0.00  0.00    +0.000 A 
ATOM      2  C   UNL     1      -3.576  11.955  18.715  0.00  0.00    +0.000 A 
ATOM      3  C   UNL     1      -2.250  11.901  19.182  0.00  0.00    +0.000 A 
ATOM      4  C   UNL     1      -1.285  11.157  18.483  0.00  0.00    +0.000 A 
ATOM      5  C   UNL     1      -1.716  10.382  17.413  0.00  0.00    +0.000 A 
ATOM      6  C   UNL     1      -3.026  10.429  16.923  0.00  0.00    +0.000 A 
ATOM      7  N   UNL     1       0.101  11.226  18.850  0.00  0.00    +0.000 N 
ATOM      8  C   UNL     1       0.559  11.956  19.958  0.00  0.00    +0.000 A 
ATOM      9  O   UNL     1       1.733  12.065  20.299  0.00  0.00    +0.000 OA
ATOM     10  N   UNL     1      -0.464  12.607  20.670  0.00  0.00    +0.000 N 
ATOM     11  N   UNL     1      -0.233  13.339  21.785  0.00  0.00    +0.000 NA
ATOM     12  C   UNL     1      -1.470  13.689  22.169  0.00  0.00    +0.000 A 
ATOM     13  N   UNL     1      -2.461  13.288  21.285  0.00  0.00    +0.000 NA
ATOM     14  C   UNL     1      -1.798  12.613  20.363  0.00  0.00    +0.000 A 
ENDROOT
BRANCH  12  15
ATOM     15  C   UNL     1      -1.733  14.378  23.440  0.00  0.00    +0.000 A 
ATOM     16  C   UNL     1      -0.804  15.300  23.946  0.00  0.00    +0.000 A 
ATOM     17  C   UNL     1      -0.996  15.915  25.187  0.00  0.00    +0.000 A 
ATOM     18  C   UNL     1      -2.127  15.612  25.946  0.00  0.00    +0.000 A 
ATOM     19  C   UNL     1      -3.062  14.696  25.452  0.00  0.00    +0.000 A 
ATOM     20  C   UNL     1      -2.867  14.087  24.201  0.00  0.00    +0.000 A 
ENDBRANCH  12  15
BRANCH   1  22
ATOM     21  C   UNL     1      -5.985  12.508  17.368  0.00  0.00    +0.000 C 
ATOM     22  O   UNL     1      -5.217  11.361  17.004  0.00  0.00    +0.000 OA
ENDBRANCH   1  22
BRANCH   6  23
ATOM     23  O   UNL     1      -3.136   9.586  15.861  0.00  0.00    +0.000 OA
ATOM     24  C   UNL     1      -3.040  10.036  14.525  0.00  0.00    +0.000 C 
ENDBRANCH   6  23
BRANCH   7  25
ATOM     25  C   UNL     1       1.136  10.709  17.934  0.00  0.00    +0.000 C 
BRANCH  25  26
ATOM     26  C   UNL     1       1.371   9.184  17.906  0.00  0.00    +0.000 C 
ATOM     27  O   UNL     1       0.562   8.407  17.400  0.00  0.00    +0.000 OA
ATOM     28  N   UNL     1       2.559   8.786  18.508  0.00  0.00    +0.000 N 
ATOM     29  H   UNL     1       2.767   9.320  19.347  0.00  0.00    +0.000 HD
BRANCH  28  30
ATOM     30  C   UNL     1       2.929   7.415  18.565  0.00  0.00    +0.000 A 
ATOM     31  C   UNL     1       3.688   6.923  17.498  0.00  0.00    +0.000 A 
ATOM     32  C   UNL     1       4.092   5.586  17.460  0.00  0.00    +0.000 A 
ATOM     33  C   UNL     1       3.709   4.703  18.471  0.00  0.00    +0.000 A 
ATOM     34  C   UNL     1       4.107   3.257  18.426  0.00  0.00    +0.000 C 
ATOM     35  C   UNL     1       2.932   5.189  19.530  0.00  0.00    +0.000 A 
ATOM     36  C   UNL     1       2.524   6.539  19.591  0.00  0.00    +0.000 A 
ATOM     37  C   UNL     1       1.552   6.923  20.675  0.00  0.00    +0.000 C 
ENDBRANCH  28  30
ENDBRANCH  25  26
ENDBRANCH   7  25
TORSDOF 6
ENDMDL
MODEL 7
REMARK VINA RESULT:      -7.4      2.630      5.072
REMARK  Name = 
REMARK  10 active torsions:
REMARK  status: ('A' for Active; 'I' for Inactive)
REMARK    1  A    between atoms: C_1  and  O_2
REMARK    2  A    between atoms: O_2  and  C_3
REMARK    3  A    between atoms: C_8  and  O_9
REMARK    4  A    between atoms: O_9  and  C_10
REMARK    5  A    between atoms: N_11  and  C_12
REMARK    6  A    between atoms: C_12  and  C_13
REMARK    7  A    between atoms: N_15  and  C_16
REMARK    8  A    between atoms: C_19  and  C_20
REMARK    9  A    between atoms: C_22  and  C_23
REMARK   10  A    between atoms: C_28  and  C_29
REMARK                            x       y       z     vdW  Elec       q    Type
REMARK                         _______ _______ _______ _____ _____    ______ ____
ROOT
ATOM      1  C   UNL     1       1.263  14.508  21.682  0.00  0.00    +0.000 A 
ATOM      2  C   UNL     1      -0.109  14.362  21.982  0.00  0.00    +0.000 A 
ATOM      3  C   UNL     1      -0.990  13.762  21.065  0.00  0.00    +0.000 A 
ATOM      4  C   UNL     1      -0.513  13.296  19.829  0.00  0.00    +0.000 A 
ATOM      5  C   UNL     1       0.809  13.571  19.501  0.00  0.00    +0.000 A 
ATOM      6  C   UNL     1       1.707  14.154  20.402  0.00  0.00    +0.000 A 
ATOM      7  N   UNL     1      -1.361  12.536  18.955  0.00  0.00    +0.000 N 
ATOM      8  C   UNL     1      -2.714  12.289  19.233  0.00  0.00    +0.000 A 
ATOM      9  O   UNL     1      -3.474  11.628  18.532  0.00  0.00    +0.000 OA
ATOM     10  N   UNL     1      -3.158  12.856  20.442  0.00  0.00    +0.000 N 
ATOM     11  N   UNL     1      -4.435  12.757  20.876  0.00  0.00    +0.000 NA
ATOM     12  C   UNL     1      -4.425  13.499  21.993  0.00  0.00    +0.000 A 
ATOM     13  N   UNL     1      -3.168  13.980  22.330  0.00  0.00    +0.000 NA
ATOM     14  C   UNL     1      -2.402  13.563  21.338  0.00  0.00    +0.000 A 
ENDROOT
BRANCH  12  15
ATOM     15  C   UNL     1      -5.651  13.811  22.741  0.00  0.00    +0.000 A 
ATOM     16  C   UNL     1      -6.114  15.134  22.814  0.00  0.00    +0.000 A 
ATOM     17  C   UNL     1      -7.235  15.468  23.577  0.00  0.00    +0.000 A 
ATOM     18  C   UNL     1      -7.916  14.477  24.286  0.00  0.00    +0.000 A 
ATOM     19  C   UNL     1      -7.467  13.153  24.219  0.00  0.00    +0.000 A 
ATOM     20  C   UNL     1      -6.343  12.823  23.444  0.00  0.00    +0.000 A 
ENDBRANCH  12  15
BRANCH   1  22
ATOM     21  C   UNL     1       2.367  16.419  22.575  0.00  0.00    +0.000 C 
ATOM     22  O   UNL     1       2.172  15.005  22.578  0.00  0.00    +0.000 OA
ENDBRANCH   1  22
BRANCH   6  23
ATOM     23  O   UNL     1       2.925  14.270  19.806  0.00  0.00    +0.000 OA
ATOM     24  C   UNL     1       3.087  14.828  18.518  0.00  0.00    +0.000 C 
ENDBRANCH   6  23
BRANCH   7  25
ATOM     25  C   UNL     1      -0.778  11.786  17.826  0.00  0.00    +0.000 C 
BRANCH  25  26
ATOM     26  C   UNL     1      -0.307  10.340  18.093  0.00  0.00    +0.000 C 
ATOM     27  O   UNL     1      -1.025   9.367  17.869  0.00  0.00    +0.000 OA
ATOM     28  N   UNL     1       0.980  10.255  18.612  0.00  0.00    +0.000 N 
ATOM     29  H   UNL     1       1.178  10.989  19.286  0.00  0.00    +0.000 HD
BRANCH  28  30
ATOM     30  C   UNL     1       1.567   8.995  18.912  0.00  0.00    +0.000 A 
ATOM     31  C   UNL     1       2.252   8.356  17.872  0.00  0.00    +0.000 A 
ATOM     32  C   UNL     1       2.854   7.111  18.068  0.00  0.00    +0.000 A 
ATOM     33  C   UNL     1       2.749   6.460  19.297  0.00  0.00    +0.000 A 
ATOM     34  C   UNL     1       3.361   5.107  19.511  0.00  0.00    +0.000 C 
ATOM     35  C   UNL     1       2.046   7.088  20.334  0.00  0.00    +0.000 A 
ATOM     36  C   UNL     1       1.441   8.352  20.159  0.00  0.00    +0.000 A 
ATOM     37  C   UNL     1       0.567   8.864  21.272  0.00  0.00    +0.000 C 
ENDBRANCH  28  30
ENDBRANCH  25  26
ENDBRANCH   7  25
TORSDOF 6
ENDMDL
MODEL 8
REMARK VINA RESULT:      -7.3      2.988      9.668
REMARK  Name = 
REMARK  10 active torsions:
REMARK  status: ('A' for Active; 'I' for Inactive)
REMARK    1  A    between atoms: C_1  and  O_2
REMARK    2  A    between atoms: O_2  and  C_3
REMARK    3  A    between atoms: C_8  and  O_9
REMARK    4  A    between atoms: O_9  and  C_10
REMARK    5  A    between atoms: N_11  and  C_12
REMARK    6  A    between atoms: C_12  and  C_13
REMARK    7  A    between atoms: N_15  and  C_16
REMARK    8  A    between atoms: C_19  and  C_20
REMARK    9  A    between atoms: C_22  and  C_23
REMARK   10  A    between atoms: C_28  and  C_29
REMARK                            x       y       z     vdW  Elec       q    Type
REMARK                         _______ _______ _______ _____ _____    ______ ____
ROOT
ATOM      1  C   UNL     1       2.405  14.413  18.903  0.00  0.00    +0.000 A 
ATOM      2  C   UNL     1       2.557  13.035  18.636  0.00  0.00    +0.000 A 
ATOM      3  C   UNL     1       1.447  12.172  18.634  0.00  0.00    +0.000 A 
ATOM      4  C   UNL     1       0.162  12.674  18.897  0.00  0.00    +0.000 A 
ATOM      5  C   UNL     1       0.054  14.004  19.287  0.00  0.00    +0.000 A 
ATOM      6  C   UNL     1       1.143  14.883  19.284  0.00  0.00    +0.000 A 
ATOM      7  N   UNL     1      -0.997  11.843  18.736  0.00  0.00    +0.000 N 
ATOM      8  C   UNL     1      -0.917  10.484  18.396  0.00  0.00    +0.000 A 
ATOM      9  O   UNL     1      -1.876   9.737  18.224  0.00  0.00    +0.000 OA
ATOM     10  N   UNL     1       0.399  10.016  18.232  0.00  0.00    +0.000 N 
ATOM     11  N   UNL     1       0.691   8.730  17.932  0.00  0.00    +0.000 NA
ATOM     12  C   UNL     1       2.032   8.718  17.959  0.00  0.00    +0.000 A 
ATOM     13  N   UNL     1       2.595   9.968  18.168  0.00  0.00    +0.000 NA
ATOM     14  C   UNL     1       1.547  10.755  18.338  0.00  0.00    +0.000 A 
ENDROOT
BRANCH  12  15
ATOM     15  C   UNL     1       2.810   7.477  17.838  0.00  0.00    +0.000 A 
ATOM     16  C   UNL     1       4.073   7.494  17.225  0.00  0.00    +0.000 A 
ATOM     17  C   UNL     1       4.801   6.317  17.033  0.00  0.00    +0.000 A 
ATOM     18  C   UNL     1       4.273   5.095  17.451  0.00  0.00    +0.000 A 
ATOM     19  C   UNL     1       3.016   5.064  18.066  0.00  0.00    +0.000 A 
ATOM     20  C   UNL     1       2.292   6.252  18.263  0.00  0.00    +0.000 A 
ENDBRANCH  12  15
BRANCH   1  22
ATOM     21  C   UNL     1       4.025  15.504  17.540  0.00  0.00    +0.000 C 
ATOM     22  O   UNL     1       3.442  15.305  18.829  0.00  0.00    +0.000 OA
ENDBRANCH   1  22
BRANCH   6  23
ATOM     23  O   UNL     1       0.722  16.114  19.686  0.00  0.00    +0.000 OA
ATOM     24  C   UNL     1       0.573  16.455  21.048  0.00  0.00    +0.000 C 
ENDBRANCH   6  23
BRANCH   7  25
ATOM     25  C   UNL     1      -2.343  12.448  18.700  0.00  0.00    +0.000 C 
BRANCH  25  26
ATOM     26  C   UNL     1      -3.094  12.603  20.040  0.00  0.00    +0.000 C 
ATOM     27  O   UNL     1      -2.618  12.212  21.105  0.00  0.00    +0.000 OA
ATOM     28  N   UNL     1      -4.341  13.206  19.919  0.00  0.00    +0.000 N 
ATOM     29  H   UNL     1      -4.839  12.906  19.086  0.00  0.00    +0.000 HD
BRANCH  28  30
ATOM     30  C   UNL     1      -5.162  13.427  21.058  0.00  0.00    +0.000 A 
ATOM     31  C   UNL     1      -6.150  12.471  21.317  0.00  0.00    +0.000 A 
ATOM     32  C   UNL     1      -7.011  12.606  22.410  0.00  0.00    +0.000 A 
ATOM     33  C   UNL     1      -6.928  13.723  23.242  0.00  0.00    +0.000 A 
ATOM     34  C   UNL     1      -7.868  13.898  24.397  0.00  0.00    +0.000 C 
ATOM     35  C   UNL     1      -5.953  14.692  22.972  0.00  0.00    +0.000 A 
ATOM     36  C   UNL     1      -5.066  14.567  21.880  0.00  0.00    +0.000 A 
ATOM     37  C   UNL     1      -4.172  15.739  21.574  0.00  0.00    +0.000 C 
ENDBRANCH  28  30
ENDBRANCH  25  26
ENDBRANCH   7  25
TORSDOF 6
ENDMDL
MODEL 9
REMARK VINA RESULT:      -7.3      3.054      9.568
REMARK  Name = 
REMARK  10 active torsions:
REMARK  status: ('A' for Active; 'I' for Inactive)
REMARK    1  A    between atoms: C_1  and  O_2
REMARK    2  A    between atoms: O_2  and  C_3
REMARK    3  A    between atoms: C_8  and  O_9
REMARK    4  A    between atoms: O_9  and  C_10
REMARK    5  A    between atoms: N_11  and  C_12
REMARK    6  A    between atoms: C_12  and  C_13
REMARK    7  A    between atoms: N_15  and  C_16
REMARK    8  A    between atoms: C_19  and  C_20
REMARK    9  A    between atoms: C_22  and  C_23
REMARK   10  A    between atoms: C_28  and  C_29
REMARK                            x       y       z     vdW  Elec       q    Type
REMARK                         _______ _______ _______ _____ _____    ______ ____
ROOT
ATOM      1  C   UNL     1       2.591  14.429  18.479  0.00  0.00    +0.000 A 
ATOM      2  C   UNL     1       2.719  13.034  18.298  0.00  0.00    +0.000 A 
ATOM      3  C   UNL     1       1.601  12.186  18.395  0.00  0.00    +0.000 A 
ATOM      4  C   UNL     1       0.333  12.720  18.674  0.00  0.00    +0.000 A 
ATOM      5  C   UNL     1       0.253  14.074  18.980  0.00  0.00    +0.000 A 
ATOM      6  C   UNL     1       1.349  14.938  18.878  0.00  0.00    +0.000 A 
ATOM      7  N   UNL     1      -0.840  11.894  18.612  0.00  0.00    +0.000 N 
ATOM      8  C   UNL     1      -0.786  10.515  18.359  0.00  0.00    +0.000 A 
ATOM      9  O   UNL     1      -1.759   9.771  18.274  0.00  0.00    +0.000 OA
ATOM     10  N   UNL     1       0.518  10.022  18.176  0.00  0.00    +0.000 N 
ATOM     11  N   UNL     1       0.786   8.715  17.950  0.00  0.00    +0.000 NA
ATOM     12  C   UNL     1       2.127   8.689  17.926  0.00  0.00    +0.000 A 
ATOM     13  N   UNL     1       2.710   9.943  18.031  0.00  0.00    +0.000 NA
ATOM     14  C   UNL     1       1.677  10.752  18.189  0.00  0.00    +0.000 A 
ENDROOT
BRANCH  12  15
ATOM     15  C   UNL     1       2.887   7.433  17.856  0.00  0.00    +0.000 A 
ATOM     16  C   UNL     1       2.377   6.267  18.448  0.00  0.00    +0.000 A 
ATOM     17  C   UNL     1       3.112   5.079  18.458  0.00  0.00    +0.000 A 
ATOM     18  C   UNL     1       4.379   5.039  17.875  0.00  0.00    +0.000 A 
ATOM     19  C   UNL     1       4.899   6.194  17.279  0.00  0.00    +0.000 A 
ATOM     20  C   UNL     1       4.151   7.383  17.266  0.00  0.00    +0.000 A 
ENDBRANCH  12  15
BRANCH   1  22
ATOM     21  C   UNL     1       4.296  15.747  19.491  0.00  0.00    +0.000 C 
ATOM     22  O   UNL     1       3.633  15.301  18.308  0.00  0.00    +0.000 OA
ENDBRANCH   1  22
BRANCH   6  23
ATOM     23  O   UNL     1       0.956  16.197  19.214  0.00  0.00    +0.000 OA
ATOM     24  C   UNL     1      -0.123  16.848  18.576  0.00  0.00    +0.000 C 
ENDBRANCH   6  23
BRANCH   7  25
ATOM     25  C   UNL     1      -2.180  12.513  18.589  0.00  0.00    +0.000 C 
BRANCH  25  26
ATOM     26  C   UNL     1      -2.924  12.660  19.933  0.00  0.00    +0.000 C 
ATOM     27  O   UNL     1      -2.425  12.303  20.999  0.00  0.00    +0.000 OA
ATOM     28  N   UNL     1      -4.194  13.214  19.816  0.00  0.00    +0.000 N 
ATOM     29  H   UNL     1      -4.688  12.883  18.992  0.00  0.00    +0.000 HD
BRANCH  28  30
ATOM     30  C   UNL     1      -5.012  13.421  20.960  0.00  0.00    +0.000 A 
ATOM     31  C   UNL     1      -5.974  12.442  21.232  0.00  0.00    +0.000 A 
ATOM     32  C   UNL     1      -6.830  12.563  22.329  0.00  0.00    +0.000 A 
ATOM     33  C   UNL     1      -6.769  13.687  23.154  0.00  0.00    +0.000 A 
ATOM     34  C   UNL     1      -7.706  13.845  24.315  0.00  0.00    +0.000 C 
ATOM     35  C   UNL     1      -5.821  14.678  22.871  0.00  0.00    +0.000 A 
ATOM     36  C   UNL     1      -4.939  14.569  21.774  0.00  0.00    +0.000 A 
ATOM     37  C   UNL     1      -4.077  15.761  21.454  0.00  0.00    +0.000 C 
ENDBRANCH  28  30
ENDBRANCH  25  26
ENDBRANCH   7  25
TORSDOF 6
ENDMDL
