MODEL 1
REMARK VINA RESULT:      -8.7      0.000      0.000
REMARK  Name = 
REMARK  4 active torsions:
REMARK  status: ('A' for Active; 'I' for Inactive)
REMARK    1  A    between atoms: C_1  and  O_2
REMARK    2  A    between atoms: O_2  and  C_3
REMARK    3  A    between atoms: C_10  and  C_11
REMARK    4  A    between atoms: C_12  and  C_13
REMARK                            x       y       z     vdW  Elec       q    Type
REMARK                         _______ _______ _______ _____ _____    ______ ____
ROOT
ATOM      1  C   UNL     1       5.319   5.243  16.178  0.00  0.00    +0.000 A 
ATOM      2  C   UNL     1       5.079   3.873  16.300  0.00  0.00    +0.000 A 
ATOM      3  C   UNL     1       4.172   3.395  17.244  0.00  0.00    +0.000 A 
ATOM      4  C   UNL     1       3.507   4.304  18.067  0.00  0.00    +0.000 A 
ATOM      5  C   UNL     1       3.723   5.688  17.965  0.00  0.00    +0.000 A 
ATOM      6  C   UNL     1       4.636   6.141  17.007  0.00  0.00    +0.000 A 
ATOM      7  N   UNL     1       3.069   6.634  18.783  0.00  0.00    +0.000 NA
ATOM      8  C   UNL     1       2.222   6.223  19.681  0.00  0.00    +0.000 A 
ATOM      9  C   UNL     1       1.945   4.807  19.849  0.00  0.00    +0.000 A 
ATOM     10  C   UNL     1       1.116   4.102  20.703  0.00  0.00    +0.000 A 
ATOM     11  C   UNL     1       1.259   2.729  20.405  0.00  0.00    +0.000 A 
ATOM     12  C   UNL     1       2.172   2.626  19.378  0.00  0.00    +0.000 A 
ATOM     13  N   UNL     1       2.586   3.895  19.045  0.00  0.00    +0.000 N 
ENDROOT
BRANCH   1  15
ATOM     14  C   UNL     1       6.833   4.935  14.376  0.00  0.00    +0.000 C 
ATOM     15  O   UNL     1       6.191   5.816  15.291  0.00  0.00    +0.000 OA
ENDBRANCH   1  15
BRANCH   8  16
ATOM     16  C   UNL     1       1.501   7.174  20.571  0.00  0.00    +0.000 C 
ATOM     17  C   UNL     1       1.378   8.481  20.290  0.00  0.00    +0.000 C 
BRANCH  17  18
ATOM     18  C   UNL     1       0.634   9.403  21.161  0.00  0.00    +0.000 A 
ATOM     19  C   UNL     1       0.319   9.082  22.491  0.00  0.00    +0.000 A 
ATOM     20  C   UNL     1      -0.433   9.955  23.278  0.00  0.00    +0.000 A 
ATOM     21  C   UNL     1      -0.854  11.175  22.754  0.00  0.00    +0.000 A 
ATOM     22  C   UNL     1      -0.510  11.525  21.450  0.00  0.00    +0.000 A 
ATOM     23  C   UNL     1       0.235  10.646  20.658  0.00  0.00    +0.000 A 
ENDBRANCH  17  18
ENDBRANCH   8  16
TORSDOF 3
ENDMDL
MODEL 2
REMARK VINA RESULT:      -8.7      0.301      1.040
REMARK  Name = 
REMARK  4 active torsions:
REMARK  status: ('A' for Active; 'I' for Inactive)
REMARK    1  A    between atoms: C_1  and  O_2
REMARK    2  A    between atoms: O_2  and  C_3
REMARK    3  A    between atoms: C_10  and  C_11
REMARK    4  A    between atoms: C_12  and  C_13
REMARK                            x       y       z     vdW  Elec       q    Type
REMARK                         _______ _______ _______ _____ _____    ______ ____
ROOT
ATOM      1  C   UNL     1       5.401   5.363  16.066  0.00  0.00    +0.000 A 
ATOM      2  C   UNL     1       5.058   4.012  16.163  0.00  0.00    +0.000 A 
ATOM      3  C   UNL     1       4.120   3.586  17.101  0.00  0.00    +0.000 A 
ATOM      4  C   UNL     1       3.527   4.527  17.942  0.00  0.00    +0.000 A 
ATOM      5  C   UNL     1       3.847   5.892  17.866  0.00  0.00    +0.000 A 
ATOM      6  C   UNL     1       4.789   6.294  16.914  0.00  0.00    +0.000 A 
ATOM      7  N   UNL     1       3.267   6.869  18.704  0.00  0.00    +0.000 NA
ATOM      8  C   UNL     1       2.394   6.506  19.597  0.00  0.00    +0.000 A 
ATOM      9  C   UNL     1       2.011   5.112  19.739  0.00  0.00    +0.000 A 
ATOM     10  C   UNL     1       1.132   4.455  20.582  0.00  0.00    +0.000 A 
ATOM     11  C   UNL     1       1.171   3.081  20.258  0.00  0.00    +0.000 A 
ATOM     12  C   UNL     1       2.071   2.930  19.226  0.00  0.00    +0.000 A 
ATOM     13  N   UNL     1       2.579   4.169  18.916  0.00  0.00    +0.000 N 
ENDROOT
BRANCH   1  15
ATOM     14  C   UNL     1       6.982   4.956  14.342  0.00  0.00    +0.000 C 
ATOM     15  O   UNL     1       6.312   5.885  15.187  0.00  0.00    +0.000 OA
ENDBRANCH   1  15
BRANCH   8  16
ATOM     16  C   UNL     1       1.748   7.492  20.507  0.00  0.00    +0.000 C 
ATOM     17  C   UNL     1       1.047   8.545  20.057  0.00  0.00    +0.000 C 
BRANCH  17  18
ATOM     18  C   UNL     1       0.386   9.492  20.968  0.00  0.00    +0.000 A 
ATOM     19  C   UNL     1       0.187  10.839  20.628  0.00  0.00    +0.000 A 
ATOM     20  C   UNL     1      -0.397  11.727  21.532  0.00  0.00    +0.000 A 
ATOM     21  C   UNL     1      -0.817  11.271  22.780  0.00  0.00    +0.000 A 
ATOM     22  C   UNL     1      -0.665   9.926  23.114  0.00  0.00    +0.000 A 
ATOM     23  C   UNL     1      -0.071   9.040  22.210  0.00  0.00    +0.000 A 
ENDBRANCH  17  18
ENDBRANCH   8  16
TORSDOF 3
ENDMDL
MODEL 3
REMARK VINA RESULT:      -8.1      1.999      2.281
REMARK  Name = 
REMARK  4 active torsions:
REMARK  status: ('A' for Active; 'I' for Inactive)
REMARK    1  A    between atoms: C_1  and  O_2
REMARK    2  A    between atoms: O_2  and  C_3
REMARK    3  A    between atoms: C_10  and  C_11
REMARK    4  A    between atoms: C_12  and  C_13
REMARK                            x       y       z     vdW  Elec       q    Type
REMARK                         _______ _______ _______ _____ _____    ______ ____
ROOT
ATOM      1  C   UNL     1       5.893   5.319  15.777  0.00  0.00    +0.000 A 
ATOM      2  C   UNL     1       5.840   4.144  16.529  0.00  0.00    +0.000 A 
ATOM      3  C   UNL     1       4.991   4.047  17.630  0.00  0.00    +0.000 A 
ATOM      4  C   UNL     1       4.195   5.140  17.971  0.00  0.00    +0.000 A 
ATOM      5  C   UNL     1       4.223   6.333  17.231  0.00  0.00    +0.000 A 
ATOM      6  C   UNL     1       5.081   6.404  16.130  0.00  0.00    +0.000 A 
ATOM      7  N   UNL     1       3.432   7.458  17.551  0.00  0.00    +0.000 NA
ATOM      8  C   UNL     1       2.634   7.405  18.577  0.00  0.00    +0.000 A 
ATOM      9  C   UNL     1       2.549   6.207  19.392  0.00  0.00    +0.000 A 
ATOM     10  C   UNL     1       1.809   5.879  20.515  0.00  0.00    +0.000 A 
ATOM     11  C   UNL     1       2.143   4.555  20.878  0.00  0.00    +0.000 A 
ATOM     12  C   UNL     1       3.078   4.106  19.972  0.00  0.00    +0.000 A 
ATOM     13  N   UNL     1       3.321   5.116  19.071  0.00  0.00    +0.000 N 
ENDROOT
BRANCH   1  15
ATOM     14  C   UNL     1       6.746   4.465  13.732  0.00  0.00    +0.000 C 
ATOM     15  O   UNL     1       6.694   5.522  14.684  0.00  0.00    +0.000 OA
ENDBRANCH   1  15
BRANCH   8  16
ATOM     16  C   UNL     1       1.775   8.559  18.961  0.00  0.00    +0.000 C 
ATOM     17  C   UNL     1       1.109   9.301  18.061  0.00  0.00    +0.000 C 
BRANCH  17  18
ATOM     18  C   UNL     1       0.238  10.417  18.457  0.00  0.00    +0.000 A 
ATOM     19  C   UNL     1      -1.155  10.374  18.286  0.00  0.00    +0.000 A 
ATOM     20  C   UNL     1      -1.952  11.469  18.624  0.00  0.00    +0.000 A 
ATOM     21  C   UNL     1      -1.368  12.611  19.165  0.00  0.00    +0.000 A 
ATOM     22  C   UNL     1       0.008  12.652  19.381  0.00  0.00    +0.000 A 
ATOM     23  C   UNL     1       0.807  11.558  19.033  0.00  0.00    +0.000 A 
ENDBRANCH  17  18
ENDBRANCH   8  16
TORSDOF 3
ENDMDL
MODEL 4
REMARK VINA RESULT:      -8.1      2.068      2.455
REMARK  Name = 
REMARK  4 active torsions:
REMARK  status: ('A' for Active; 'I' for Inactive)
REMARK    1  A    between atoms: C_1  and  O_2
REMARK    2  A    between atoms: O_2  and  C_3
REMARK    3  A    between atoms: C_10  and  C_11
REMARK    4  A    between atoms: C_12  and  C_13
REMARK                            x       y       z     vdW  Elec       q    Type
REMARK                         _______ _______ _______ _____ _____    ______ ____
ROOT
ATOM      1  C   UNL     1       6.295   5.422  16.101  0.00  0.00    +0.000 A 
ATOM      2  C   UNL     1       6.230   4.264  16.879  0.00  0.00    +0.000 A 
ATOM      3  C   UNL     1       5.296   4.155  17.907  0.00  0.00    +0.000 A 
ATOM      4  C   UNL     1       4.425   5.217  18.149  0.00  0.00    +0.000 A 
ATOM      5  C   UNL     1       4.463   6.392  17.381  0.00  0.00    +0.000 A 
ATOM      6  C   UNL     1       5.408   6.476  16.354  0.00  0.00    +0.000 A 
ATOM      7  N   UNL     1       3.599   7.487  17.601  0.00  0.00    +0.000 NA
ATOM      8  C   UNL     1       2.720   7.422  18.558  0.00  0.00    +0.000 A 
ATOM      9  C   UNL     1       2.619   6.241  19.397  0.00  0.00    +0.000 A 
ATOM     10  C   UNL     1       1.802   5.906  20.462  0.00  0.00    +0.000 A 
ATOM     11  C   UNL     1       2.162   4.609  20.889  0.00  0.00    +0.000 A 
ATOM     12  C   UNL     1       3.190   4.182  20.077  0.00  0.00    +0.000 A 
ATOM     13  N   UNL     1       3.464   5.180  19.172  0.00  0.00    +0.000 N 
ENDROOT
BRANCH   1  15
ATOM     14  C   UNL     1       7.030   4.800  13.931  0.00  0.00    +0.000 C 
ATOM     15  O   UNL     1       7.176   5.635  15.074  0.00  0.00    +0.000 OA
ENDBRANCH   1  15
BRANCH   8  16
ATOM     16  C   UNL     1       1.781   8.544  18.836  0.00  0.00    +0.000 C 
ATOM     17  C   UNL     1       1.029   9.115  17.881  0.00  0.00    +0.000 C 
BRANCH  17  18
ATOM     18  C   UNL     1       0.081  10.200  18.176  0.00  0.00    +0.000 A 
ATOM     19  C   UNL     1       0.463  11.355  18.877  0.00  0.00    +0.000 A 
ATOM     20  C   UNL     1      -0.470  12.345  19.187  0.00  0.00    +0.000 A 
ATOM     21  C   UNL     1      -1.793  12.206  18.774  0.00  0.00    +0.000 A 
ATOM     22  C   UNL     1      -2.176  11.085  18.039  0.00  0.00    +0.000 A 
ATOM     23  C   UNL     1      -1.243  10.089  17.737  0.00  0.00    +0.000 A 
ENDBRANCH  17  18
ENDBRANCH   8  16
TORSDOF 3
ENDMDL
MODEL 5
REMARK VINA RESULT:      -7.9      1.480      1.988
REMARK  Name = 
REMARK  4 active torsions:
REMARK  status: ('A' for Active; 'I' for Inactive)
REMARK    1  A    between atoms: C_1  and  O_2
REMARK    2  A    between atoms: O_2  and  C_3
REMARK    3  A    between atoms: C_10  and  C_11
REMARK    4  A    between atoms: C_12  and  C_13
REMARK                            x       y       z     vdW  Elec       q    Type
REMARK                         _______ _______ _______ _____ _____    ______ ____
ROOT
ATOM      1  C   UNL     1       6.745   5.141  15.231  0.00  0.00    +0.000 A 
ATOM      2  C   UNL     1       6.373   3.795  15.254  0.00  0.00    +0.000 A 
ATOM      3  C   UNL     1       5.250   3.384  15.972  0.00  0.00    +0.000 A 
ATOM      4  C   UNL     1       4.503   4.336  16.666  0.00  0.00    +0.000 A 
ATOM      5  C   UNL     1       4.850   5.696  16.657  0.00  0.00    +0.000 A 
ATOM      6  C   UNL     1       5.979   6.083  15.928  0.00  0.00    +0.000 A 
ATOM      7  N   UNL     1       4.118   6.684  17.351  0.00  0.00    +0.000 NA
ATOM      8  C   UNL     1       3.070   6.335  18.038  0.00  0.00    +0.000 A 
ATOM      9  C   UNL     1       2.648   4.947  18.097  0.00  0.00    +0.000 A 
ATOM     10  C   UNL     1       1.600   4.305  18.735  0.00  0.00    +0.000 A 
ATOM     11  C   UNL     1       1.690   2.929  18.428  0.00  0.00    +0.000 A 
ATOM     12  C   UNL     1       2.788   2.762  17.612  0.00  0.00    +0.000 A 
ATOM     13  N   UNL     1       3.366   3.994  17.416  0.00  0.00    +0.000 N 
ENDROOT
BRANCH   1  15
ATOM     14  C   UNL     1       7.939   5.315  13.186  0.00  0.00    +0.000 C 
ATOM     15  O   UNL     1       7.829   5.648  14.566  0.00  0.00    +0.000 OA
ENDBRANCH   1  15
BRANCH   8  16
ATOM     16  C   UNL     1       2.257   7.333  18.788  0.00  0.00    +0.000 C 
ATOM     17  C   UNL     1       1.828   8.481  18.239  0.00  0.00    +0.000 C 
BRANCH  17  18
ATOM     18  C   UNL     1       0.999   9.441  18.982  0.00  0.00    +0.000 A 
ATOM     19  C   UNL     1       1.124   9.620  20.369  0.00  0.00    +0.000 A 
ATOM     20  C   UNL     1       0.287  10.502  21.054  0.00  0.00    +0.000 A 
ATOM     21  C   UNL     1      -0.666  11.239  20.357  0.00  0.00    +0.000 A 
ATOM     22  C   UNL     1      -0.772  11.104  18.974  0.00  0.00    +0.000 A 
ATOM     23  C   UNL     1       0.060  10.213  18.288  0.00  0.00    +0.000 A 
ENDBRANCH  17  18
ENDBRANCH   8  16
TORSDOF 3
ENDMDL
MODEL 6
REMARK VINA RESULT:      -7.8      0.902      1.399
REMARK  Name = 
REMARK  4 active torsions:
REMARK  status: ('A' for Active; 'I' for Inactive)
REMARK    1  A    between atoms: C_1  and  O_2
REMARK    2  A    between atoms: O_2  and  C_3
REMARK    3  A    between atoms: C_10  and  C_11
REMARK    4  A    between atoms: C_12  and  C_13
REMARK                            x       y       z     vdW  Elec       q    Type
REMARK                         _______ _______ _______ _____ _____    ______ ____
ROOT
ATOM      1  C   UNL     1       6.027   5.616  17.036  0.00  0.00    +0.000 A 
ATOM      2  C   UNL     1       5.797   4.238  17.029  0.00  0.00    +0.000 A 
ATOM      3  C   UNL     1       4.711   3.699  17.717  0.00  0.00    +0.000 A 
ATOM      4  C   UNL     1       3.857   4.554  18.414  0.00  0.00    +0.000 A 
ATOM      5  C   UNL     1       4.061   5.943  18.436  0.00  0.00    +0.000 A 
ATOM      6  C   UNL     1       5.155   6.459  17.735  0.00  0.00    +0.000 A 
ATOM      7  N   UNL     1       3.217   6.836  19.133  0.00  0.00    +0.000 NA
ATOM      8  C   UNL     1       2.199   6.366  19.793  0.00  0.00    +0.000 A 
ATOM      9  C   UNL     1       1.924   4.941  19.820  0.00  0.00    +0.000 A 
ATOM     10  C   UNL     1       0.938   4.181  20.426  0.00  0.00    +0.000 A 
ATOM     11  C   UNL     1       1.176   2.828  20.097  0.00  0.00    +0.000 A 
ATOM     12  C   UNL     1       2.299   2.792  19.299  0.00  0.00    +0.000 A 
ATOM     13  N   UNL     1       2.749   4.081  19.136  0.00  0.00    +0.000 N 
ENDROOT
BRANCH   1  15
ATOM     14  C   UNL     1       7.564   7.425  17.022  0.00  0.00    +0.000 C 
ATOM     15  O   UNL     1       7.064   6.246  16.401  0.00  0.00    +0.000 OA
ENDBRANCH   1  15
BRANCH   8  16
ATOM     16  C   UNL     1       1.275   7.259  20.545  0.00  0.00    +0.000 C 
ATOM     17  C   UNL     1       1.462   8.586  20.639  0.00  0.00    +0.000 C 
BRANCH  17  18
ATOM     18  C   UNL     1       0.522   9.460  21.357  0.00  0.00    +0.000 A 
ATOM     19  C   UNL     1      -0.150  10.516  20.721  0.00  0.00    +0.000 A 
ATOM     20  C   UNL     1      -0.997  11.360  21.439  0.00  0.00    +0.000 A 
ATOM     21  C   UNL     1      -1.206  11.142  22.799  0.00  0.00    +0.000 A 
ATOM     22  C   UNL     1      -0.580  10.071  23.433  0.00  0.00    +0.000 A 
ATOM     23  C   UNL     1       0.276   9.230  22.715  0.00  0.00    +0.000 A 
ENDBRANCH  17  18
ENDBRANCH   8  16
TORSDOF 3
ENDMDL
MODEL 7
REMARK VINA RESULT:      -7.8      1.632      2.280
REMARK  Name = 
REMARK  4 active torsions:
REMARK  status: ('A' for Active; 'I' for Inactive)
REMARK    1  A    between atoms: C_1  and  O_2
REMARK    2  A    between atoms: O_2  and  C_3
REMARK    3  A    between atoms: C_10  and  C_11
REMARK    4  A    between atoms: C_12  and  C_13
REMARK                            x       y       z     vdW  Elec       q    Type
REMARK                         _______ _______ _______ _____ _____    ______ ____
ROOT
ATOM      1  C   UNL     1       6.794   5.145  15.279  0.00  0.00    +0.000 A 
ATOM      2  C   UNL     1       6.363   3.819  15.361  0.00  0.00    +0.000 A 
ATOM      3  C   UNL     1       5.215   3.492  16.081  0.00  0.00    +0.000 A 
ATOM      4  C   UNL     1       4.502   4.507  16.718  0.00  0.00    +0.000 A 
ATOM      5  C   UNL     1       4.908   5.850  16.650  0.00  0.00    +0.000 A 
ATOM      6  C   UNL     1       6.062   6.152  15.919  0.00  0.00    +0.000 A 
ATOM      7  N   UNL     1       4.211   6.901  17.285  0.00  0.00    +0.000 NA
ATOM      8  C   UNL     1       3.140   6.631  17.972  0.00  0.00    +0.000 A 
ATOM      9  C   UNL     1       2.657   5.267  18.092  0.00  0.00    +0.000 A 
ATOM     10  C   UNL     1       1.575   4.702  18.745  0.00  0.00    +0.000 A 
ATOM     11  C   UNL     1       1.609   3.310  18.505  0.00  0.00    +0.000 A 
ATOM     12  C   UNL     1       2.708   3.057  17.714  0.00  0.00    +0.000 A 
ATOM     13  N   UNL     1       3.341   4.252  17.467  0.00  0.00    +0.000 N 
ENDROOT
BRANCH   1  15
ATOM     14  C   UNL     1       7.935   5.325  13.204  0.00  0.00    +0.000 C 
ATOM     15  O   UNL     1       7.908   5.572  14.606  0.00  0.00    +0.000 OA
ENDBRANCH   1  15
BRANCH   8  16
ATOM     16  C   UNL     1       2.363   7.698  18.662  0.00  0.00    +0.000 C 
ATOM     17  C   UNL     1       1.511   8.510  18.015  0.00  0.00    +0.000 C 
BRANCH  17  18
ATOM     18  C   UNL     1       0.726   9.537  18.715  0.00  0.00    +0.000 A 
ATOM     19  C   UNL     1      -0.331  10.222  18.092  0.00  0.00    +0.000 A 
ATOM     20  C   UNL     1      -1.026  11.228  18.765  0.00  0.00    +0.000 A 
ATOM     21  C   UNL     1      -0.692  11.542  20.080  0.00  0.00    +0.000 A 
ATOM     22  C   UNL     1       0.325  10.841  20.724  0.00  0.00    +0.000 A 
ATOM     23  C   UNL     1       1.027   9.839  20.047  0.00  0.00    +0.000 A 
ENDBRANCH  17  18
ENDBRANCH   8  16
TORSDOF 3
ENDMDL
MODEL 8
REMARK VINA RESULT:      -7.5      1.000      1.534
REMARK  Name = 
REMARK  4 active torsions:
REMARK  status: ('A' for Active; 'I' for Inactive)
REMARK    1  A    between atoms: C_1  and  O_2
REMARK    2  A    between atoms: O_2  and  C_3
REMARK    3  A    between atoms: C_10  and  C_11
REMARK    4  A    between atoms: C_12  and  C_13
REMARK                            x       y       z     vdW  Elec       q    Type
REMARK                         _______ _______ _______ _____ _____    ______ ____
ROOT
ATOM      1  C   UNL     1       6.149   5.175  15.397  0.00  0.00    +0.000 A 
ATOM      2  C   UNL     1       6.052   3.787  15.516  0.00  0.00    +0.000 A 
ATOM      3  C   UNL     1       5.209   3.216  16.468  0.00  0.00    +0.000 A 
ATOM      4  C   UNL     1       4.463   4.050  17.301  0.00  0.00    +0.000 A 
ATOM      5  C   UNL     1       4.536   5.449  17.202  0.00  0.00    +0.000 A 
ATOM      6  C   UNL     1       5.387   5.996  16.237  0.00  0.00    +0.000 A 
ATOM      7  N   UNL     1       3.796   6.321  18.030  0.00  0.00    +0.000 NA
ATOM      8  C   UNL     1       3.006   5.822  18.935  0.00  0.00    +0.000 A 
ATOM      9  C   UNL     1       2.877   4.386  19.100  0.00  0.00    +0.000 A 
ATOM     10  C   UNL     1       2.132   3.597  19.960  0.00  0.00    +0.000 A 
ATOM     11  C   UNL     1       2.413   2.246  19.655  0.00  0.00    +0.000 A 
ATOM     12  C   UNL     1       3.320   2.241  18.619  0.00  0.00    +0.000 A 
ATOM     13  N   UNL     1       3.599   3.546  18.287  0.00  0.00    +0.000 N 
ENDROOT
BRANCH   1  15
ATOM     14  C   UNL     1       7.515   5.053  13.459  0.00  0.00    +0.000 C 
ATOM     15  O   UNL     1       6.949   5.837  14.504  0.00  0.00    +0.000 OA
ENDBRANCH   1  15
BRANCH   8  16
ATOM     16  C   UNL     1       2.200   6.693  19.836  0.00  0.00    +0.000 C 
ATOM     17  C   UNL     1       1.958   7.986  19.571  0.00  0.00    +0.000 C 
BRANCH  17  18
ATOM     18  C   UNL     1       1.132   8.825  20.452  0.00  0.00    +0.000 A 
ATOM     19  C   UNL     1       0.238   9.784  19.949  0.00  0.00    +0.000 A 
ATOM     20  C   UNL     1      -0.494  10.600  20.811  0.00  0.00    +0.000 A 
ATOM     21  C   UNL     1      -0.364  10.449  22.189  0.00  0.00    +0.000 A 
ATOM     22  C   UNL     1       0.486   9.472  22.702  0.00  0.00    +0.000 A 
ATOM     23  C   UNL     1       1.228   8.660  21.839  0.00  0.00    +0.000 A 
ENDBRANCH  17  18
ENDBRANCH   8  16
TORSDOF 3
ENDMDL
MODEL 9
REMARK VINA RESULT:      -7.4      2.209      7.989
REMARK  Name = 
REMARK  4 active torsions:
REMARK  status: ('A' for Active; 'I' for Inactive)
REMARK    1  A    between atoms: C_1  and  O_2
REMARK    2  A    between atoms: O_2  and  C_3
REMARK    3  A    between atoms: C_10  and  C_11
REMARK    4  A    between atoms: C_12  and  C_13
REMARK                            x       y       z     vdW  Elec       q    Type
REMARK                         _______ _______ _______ _____ _____    ______ ____
ROOT
ATOM      1  C   UNL     1       1.339   8.297  20.220  0.00  0.00    +0.000 A 
ATOM      2  C   UNL     1       1.127   7.218  21.080  0.00  0.00    +0.000 A 
ATOM      3  C   UNL     1       1.743   5.991  20.840  0.00  0.00    +0.000 A 
ATOM      4  C   UNL     1       2.574   5.854  19.729  0.00  0.00    +0.000 A 
ATOM      5  C   UNL     1       2.810   6.922  18.848  0.00  0.00    +0.000 A 
ATOM      6  C   UNL     1       2.183   8.144  19.113  0.00  0.00    +0.000 A 
ATOM      7  N   UNL     1       3.643   6.817  17.713  0.00  0.00    +0.000 NA
ATOM      8  C   UNL     1       4.227   5.684  17.454  0.00  0.00    +0.000 A 
ATOM      9  C   UNL     1       4.032   4.533  18.316  0.00  0.00    +0.000 A 
ATOM     10  C   UNL     1       4.512   3.235  18.282  0.00  0.00    +0.000 A 
ATOM     11  C   UNL     1       3.978   2.550  19.397  0.00  0.00    +0.000 A 
ATOM     12  C   UNL     1       3.185   3.442  20.083  0.00  0.00    +0.000 A 
ATOM     13  N   UNL     1       3.221   4.646  19.420  0.00  0.00    +0.000 N 
ENDROOT
BRANCH   1  15
ATOM     14  C   UNL     1       0.049   9.774  21.558  0.00  0.00    +0.000 C 
ATOM     15  O   UNL     1       0.781   9.540  20.359  0.00  0.00    +0.000 OA
ENDBRANCH   1  15
BRANCH   8  16
ATOM     16  C   UNL     1       5.118   5.514  16.273  0.00  0.00    +0.000 C 
ATOM     17  C   UNL     1       4.968   4.517  15.387  0.00  0.00    +0.000 C 
BRANCH  17  18
ATOM     18  C   UNL     1       5.834   4.381  14.206  0.00  0.00    +0.000 A 
ATOM     19  C   UNL     1       7.028   5.108  14.068  0.00  0.00    +0.000 A 
ATOM     20  C   UNL     1       7.804   4.997  12.914  0.00  0.00    +0.000 A 
ATOM     21  C   UNL     1       7.411   4.134  11.894  0.00  0.00    +0.000 A 
ATOM     22  C   UNL     1       6.252   3.373  12.036  0.00  0.00    +0.000 A 
ATOM     23  C   UNL     1       5.470   3.492  13.189  0.00  0.00    +0.000 A 
ENDBRANCH  17  18
ENDBRANCH   8  16
TORSDOF 3
ENDMDL
