MODEL 1
REMARK VINA RESULT:      -8.5      0.000      0.000
REMARK  Name = 
REMARK  4 active torsions:
REMARK  status: ('A' for Active; 'I' for Inactive)
REMARK    1  A    between atoms: C_2  and  C_3
REMARK    2  A    between atoms: C_13  and  O_14
REMARK    3  A    between atoms: N_19  and  C_20
REMARK    4  A    between atoms: C_20  and  C_21
REMARK                            x       y       z     vdW  Elec       q    Type
REMARK                         _______ _______ _______ _____ _____    ______ ____
ROOT
ATOM      1  O   UNL     1       1.763   8.916  17.199  0.00  0.00    +0.000 OA
ATOM      2  C   UNL     1       1.820   8.574  18.380  0.00  0.00    +0.000 C 
ATOM      3  N   UNL     1       2.313   7.331  18.775  0.00  0.00    +0.000 N 
ATOM      4  C   UNL     1       2.247   6.744  20.104  0.00  0.00    +0.000 C 
ATOM      5  C   UNL     1       1.802   5.276  20.062  0.00  0.00    +0.000 C 
ATOM      6  C   UNL     1       2.008   4.633  21.431  0.00  0.00    +0.000 C 
ATOM      7  C   UNL     1       2.714   3.318  21.172  0.00  0.00    +0.000 C 
ATOM      8  C   UNL     1       2.745   3.136  19.652  0.00  0.00    +0.000 C 
ATOM      9  N   UNL     1       2.446   4.428  19.042  0.00  0.00    +0.000 NA
ATOM     10  C   UNL     1       3.459   5.162  18.249  0.00  0.00    +0.000 C 
ATOM     11  C   UNL     1       4.951   5.017  18.713  0.00  0.00    +0.000 C 
ATOM     12  N   UNL     1       5.277   5.084  17.252  0.00  0.00    +0.000 NA
ATOM     13  C   UNL     1       3.993   4.332  17.024  0.00  0.00    +0.000 C 
ATOM     14  C   UNL     1       3.011   6.559  17.750  0.00  0.00    +0.000 C 
ENDROOT
BRANCH   2  15
ATOM     15  C   UNL     1       1.354   9.554  19.382  0.00  0.00    +0.000 A 
ATOM     16  C   UNL     1       0.819   9.109  20.592  0.00  0.00    +0.000 A 
ATOM     17  C   UNL     1       0.342  10.041  21.512  0.00  0.00    +0.000 A 
ATOM     18  C   UNL     1       0.419  11.386  21.186  0.00  0.00    +0.000 A 
ATOM     19  N   UNL     1       0.897  11.849  20.010  0.00  0.00    +0.000 NA
ATOM     20  C   UNL     1       1.321  10.917  19.123  0.00  0.00    +0.000 A 
ENDBRANCH   2  15
BRANCH   7  21
ATOM     21  O   UNL     1       2.027   2.260  21.831  0.00  0.00    +0.000 OA
ATOM     22  H   UNL     1       2.366   2.198  22.741  0.00  0.00    +0.000 HD
ENDBRANCH   7  21
BRANCH  12  23
ATOM     23  C   UNL     1       6.470   4.346  16.870  0.00  0.00    +0.000 C 
BRANCH  23  24
ATOM     24  C   UNL     1       6.697   4.425  15.369  0.00  0.00    +0.000 A 
ATOM     25  C   UNL     1       5.940   3.627  14.484  0.00  0.00    +0.000 A 
ATOM     26  C   UNL     1       6.144   3.699  13.105  0.00  0.00    +0.000 A 
ATOM     27  C   UNL     1       7.104   4.573  12.601  0.00  0.00    +0.000 A 
ATOM     28  F   UNL     1       7.296   4.638  11.273  0.00  0.00    +0.000 F 
ATOM     29  C   UNL     1       7.852   5.369  13.450  0.00  0.00    +0.000 A 
ATOM     30  C   UNL     1       7.651   5.298  14.830  0.00  0.00    +0.000 A 
ENDBRANCH  23  24
ENDBRANCH  12  23
TORSDOF 4
ENDMDL
MODEL 2
REMARK VINA RESULT:      -8.2      0.545      1.265
REMARK  Name = 
REMARK  4 active torsions:
REMARK  status: ('A' for Active; 'I' for Inactive)
REMARK    1  A    between atoms: C_2  and  C_3
REMARK    2  A    between atoms: C_13  and  O_14
REMARK    3  A    between atoms: N_19  and  C_20
REMARK    4  A    between atoms: C_20  and  C_21
REMARK                            x       y       z     vdW  Elec       q    Type
REMARK                         _______ _______ _______ _____ _____    ______ ____
ROOT
ATOM      1  O   UNL     1       1.716   8.869  17.286  0.00  0.00    +0.000 OA
ATOM      2  C   UNL     1       1.770   8.511  18.463  0.00  0.00    +0.000 C 
ATOM      3  N   UNL     1       2.282   7.271  18.844  0.00  0.00    +0.000 N 
ATOM      4  C   UNL     1       2.218   6.665  20.164  0.00  0.00    +0.000 C 
ATOM      5  C   UNL     1       1.799   5.190  20.098  0.00  0.00    +0.000 C 
ATOM      6  C   UNL     1       2.007   4.531  21.459  0.00  0.00    +0.000 C 
ATOM      7  C   UNL     1       2.738   3.232  21.187  0.00  0.00    +0.000 C 
ATOM      8  C   UNL     1       2.782   3.073  19.665  0.00  0.00    +0.000 C 
ATOM      9  N   UNL     1       2.465   4.368  19.071  0.00  0.00    +0.000 NA
ATOM     10  C   UNL     1       3.470   5.131  18.296  0.00  0.00    +0.000 C 
ATOM     11  C   UNL     1       4.962   5.006  18.769  0.00  0.00    +0.000 C 
ATOM     12  N   UNL     1       5.296   5.099  17.311  0.00  0.00    +0.000 NA
ATOM     13  C   UNL     1       4.028   4.328  17.063  0.00  0.00    +0.000 C 
ATOM     14  C   UNL     1       3.002   6.527  17.813  0.00  0.00    +0.000 C 
ENDROOT
BRANCH   2  15
ATOM     15  C   UNL     1       1.281   9.469  19.475  0.00  0.00    +0.000 A 
ATOM     16  C   UNL     1       1.107  10.811  19.133  0.00  0.00    +0.000 A 
ATOM     17  C   UNL     1       0.688  11.715  20.109  0.00  0.00    +0.000 A 
ATOM     18  C   UNL     1       0.457  11.240  21.390  0.00  0.00    +0.000 A 
ATOM     19  N   UNL     1       0.650   9.956  21.763  0.00  0.00    +0.000 NA
ATOM     20  C   UNL     1       1.090   9.109  20.801  0.00  0.00    +0.000 A 
ENDBRANCH   2  15
BRANCH   7  21
ATOM     21  O   UNL     1       2.064   2.154  21.826  0.00  0.00    +0.000 OA
ATOM     22  H   UNL     1       1.453   1.754  21.182  0.00  0.00    +0.000 HD
ENDBRANCH   7  21
BRANCH  12  23
ATOM     23  C   UNL     1       6.505   4.388  16.928  0.00  0.00    +0.000 C 
BRANCH  23  24
ATOM     24  C   UNL     1       6.707   4.438  15.423  0.00  0.00    +0.000 A 
ATOM     25  C   UNL     1       7.659   5.312  14.853  0.00  0.00    +0.000 A 
ATOM     26  C   UNL     1       7.848   5.360  13.471  0.00  0.00    +0.000 A 
ATOM     27  C   UNL     1       7.090   4.529  12.649  0.00  0.00    +0.000 A 
ATOM     28  F   UNL     1       7.276   4.579  11.319  0.00  0.00    +0.000 F 
ATOM     29  C   UNL     1       6.158   3.661  13.186  0.00  0.00    +0.000 A 
ATOM     30  C   UNL     1       5.964   3.613  14.568  0.00  0.00    +0.000 A 
ENDBRANCH  23  24
ENDBRANCH  12  23
TORSDOF 4
ENDMDL
MODEL 3
REMARK VINA RESULT:      -8.0      3.016      7.726
REMARK  Name = 
REMARK  4 active torsions:
REMARK  status: ('A' for Active; 'I' for Inactive)
REMARK    1  A    between atoms: C_2  and  C_3
REMARK    2  A    between atoms: C_13  and  O_14
REMARK    3  A    between atoms: N_19  and  C_20
REMARK    4  A    between atoms: C_20  and  C_21
REMARK                            x       y       z     vdW  Elec       q    Type
REMARK                         _______ _______ _______ _____ _____    ______ ____
ROOT
ATOM      1  O   UNL     1       6.816   6.518  16.314  0.00  0.00    +0.000 OA
ATOM      2  C   UNL     1       6.042   5.645  15.922  0.00  0.00    +0.000 C 
ATOM      3  N   UNL     1       4.933   5.241  16.664  0.00  0.00    +0.000 N 
ATOM      4  C   UNL     1       4.071   4.100  16.401  0.00  0.00    +0.000 C 
ATOM      5  C   UNL     1       3.784   3.291  17.674  0.00  0.00    +0.000 C 
ATOM      6  C   UNL     1       2.673   2.279  17.405  0.00  0.00    +0.000 C 
ATOM      7  C   UNL     1       1.695   2.420  18.553  0.00  0.00    +0.000 C 
ATOM      8  C   UNL     1       2.342   3.378  19.557  0.00  0.00    +0.000 C 
ATOM      9  N   UNL     1       3.432   4.070  18.875  0.00  0.00    +0.000 NA
ATOM     10  C   UNL     1       3.382   5.526  18.615  0.00  0.00    +0.000 C 
ATOM     11  C   UNL     1       1.967   6.135  18.313  0.00  0.00    +0.000 C 
ATOM     12  N   UNL     1       2.471   7.340  19.050  0.00  0.00    +0.000 NA
ATOM     13  C   UNL     1       3.220   6.375  19.930  0.00  0.00    +0.000 C 
ATOM     14  C   UNL     1       4.575   6.087  17.801  0.00  0.00    +0.000 C 
ENDROOT
BRANCH   2  15
ATOM     15  C   UNL     1       6.327   5.044  14.603  0.00  0.00    +0.000 A 
ATOM     16  C   UNL     1       5.494   4.042  14.103  0.00  0.00    +0.000 A 
ATOM     17  C   UNL     1       5.798   3.451  12.878  0.00  0.00    +0.000 A 
ATOM     18  C   UNL     1       6.924   3.886  12.198  0.00  0.00    +0.000 A 
ATOM     19  N   UNL     1       7.771   4.827  12.670  0.00  0.00    +0.000 NA
ATOM     20  C   UNL     1       7.468   5.358  13.879  0.00  0.00    +0.000 A 
ENDBRANCH   2  15
BRANCH   7  21
ATOM     21  O   UNL     1       1.425   1.143  19.120  0.00  0.00    +0.000 OA
ATOM     22  H   UNL     1       2.144   0.538  18.862  0.00  0.00    +0.000 HD
ENDBRANCH   7  21
BRANCH  12  23
ATOM     23  C   UNL     1       1.439   8.093  19.743  0.00  0.00    +0.000 C 
BRANCH  23  24
ATOM     24  C   UNL     1       1.476   9.558  19.338  0.00  0.00    +0.000 A 
ATOM     25  C   UNL     1       0.842  10.540  20.130  0.00  0.00    +0.000 A 
ATOM     26  C   UNL     1       0.876  11.886  19.761  0.00  0.00    +0.000 A 
ATOM     27  C   UNL     1       1.549  12.260  18.601  0.00  0.00    +0.000 A 
ATOM     28  F   UNL     1       1.579  13.557  18.251  0.00  0.00    +0.000 F 
ATOM     29  C   UNL     1       2.183  11.315  17.814  0.00  0.00    +0.000 A 
ATOM     30  C   UNL     1       2.149   9.968  18.178  0.00  0.00    +0.000 A 
ENDBRANCH  23  24
ENDBRANCH  12  23
TORSDOF 4
ENDMDL
MODEL 4
REMARK VINA RESULT:      -7.9      1.505      1.866
REMARK  Name = 
REMARK  4 active torsions:
REMARK  status: ('A' for Active; 'I' for Inactive)
REMARK    1  A    between atoms: C_2  and  C_3
REMARK    2  A    between atoms: C_13  and  O_14
REMARK    3  A    between atoms: N_19  and  C_20
REMARK    4  A    between atoms: C_20  and  C_21
REMARK                            x       y       z     vdW  Elec       q    Type
REMARK                         _______ _______ _______ _____ _____    ______ ____
ROOT
ATOM      1  O   UNL     1       2.139   9.129  18.998  0.00  0.00    +0.000 OA
ATOM      2  C   UNL     1       1.882   8.232  19.801  0.00  0.00    +0.000 C 
ATOM      3  N   UNL     1       2.242   6.903  19.576  0.00  0.00    +0.000 N 
ATOM      4  C   UNL     1       1.826   5.741  20.345  0.00  0.00    +0.000 C 
ATOM      5  C   UNL     1       1.391   4.580  19.441  0.00  0.00    +0.000 C 
ATOM      6  C   UNL     1       1.227   3.310  20.272  0.00  0.00    +0.000 C 
ATOM      7  C   UNL     1       1.962   2.221  19.518  0.00  0.00    +0.000 C 
ATOM      8  C   UNL     1       2.385   2.831  18.179  0.00  0.00    +0.000 C 
ATOM      9  N   UNL     1       2.269   4.282  18.295  0.00  0.00    +0.000 NA
ATOM     10  C   UNL     1       3.461   5.159  18.249  0.00  0.00    +0.000 C 
ATOM     11  C   UNL     1       4.780   4.583  18.876  0.00  0.00    +0.000 C 
ATOM     12  N   UNL     1       5.475   5.332  17.779  0.00  0.00    +0.000 NA
ATOM     13  C   UNL     1       4.287   4.996  16.919  0.00  0.00    +0.000 C 
ATOM     14  C   UNL     1       3.175   6.664  18.477  0.00  0.00    +0.000 C 
ENDROOT
BRANCH   2  15
ATOM     15  C   UNL     1       1.183   8.625  21.041  0.00  0.00    +0.000 A 
ATOM     16  C   UNL     1      -0.210   8.564  21.101  0.00  0.00    +0.000 A 
ATOM     17  C   UNL     1      -0.862   8.980  22.261  0.00  0.00    +0.000 A 
ATOM     18  C   UNL     1      -0.094   9.443  23.317  0.00  0.00    +0.000 A 
ATOM     19  N   UNL     1       1.253   9.550  23.279  0.00  0.00    +0.000 NA
ATOM     20  C   UNL     1       1.854   9.169  22.126  0.00  0.00    +0.000 A 
ENDBRANCH   2  15
BRANCH   7  21
ATOM     21  O   UNL     1       1.115   1.089  19.354  0.00  0.00    +0.000 OA
ATOM     22  H   UNL     1       0.201   1.406  19.247  0.00  0.00    +0.000 HD
ENDBRANCH   7  21
BRANCH  12  23
ATOM     23  C   UNL     1       6.719   4.724  17.334  0.00  0.00    +0.000 C 
BRANCH  23  24
ATOM     24  C   UNL     1       6.740   4.583  15.821  0.00  0.00    +0.000 A 
ATOM     25  C   UNL     1       7.576   5.404  15.034  0.00  0.00    +0.000 A 
ATOM     26  C   UNL     1       7.599   5.276  13.643  0.00  0.00    +0.000 A 
ATOM     27  C   UNL     1       6.789   4.323  13.032  0.00  0.00    +0.000 A 
ATOM     28  F   UNL     1       6.814   4.204  11.694  0.00  0.00    +0.000 F 
ATOM     29  C   UNL     1       5.967   3.503  13.785  0.00  0.00    +0.000 A 
ATOM     30  C   UNL     1       5.940   3.631  15.175  0.00  0.00    +0.000 A 
ENDBRANCH  23  24
ENDBRANCH  12  23
TORSDOF 4
ENDMDL
MODEL 5
REMARK VINA RESULT:      -7.7      1.220      1.385
REMARK  Name = 
REMARK  4 active torsions:
REMARK  status: ('A' for Active; 'I' for Inactive)
REMARK    1  A    between atoms: C_2  and  C_3
REMARK    2  A    between atoms: C_13  and  O_14
REMARK    3  A    between atoms: N_19  and  C_20
REMARK    4  A    between atoms: C_20  and  C_21
REMARK                            x       y       z     vdW  Elec       q    Type
REMARK                         _______ _______ _______ _____ _____    ______ ____
ROOT
ATOM      1  O   UNL     1       2.090   9.262  18.194  0.00  0.00    +0.000 OA
ATOM      2  C   UNL     1       1.867   8.456  19.097  0.00  0.00    +0.000 C 
ATOM      3  N   UNL     1       2.263   7.121  19.021  0.00  0.00    +0.000 N 
ATOM      4  C   UNL     1       1.889   6.043  19.922  0.00  0.00    +0.000 C 
ATOM      5  C   UNL     1       1.480   4.774  19.162  0.00  0.00    +0.000 C 
ATOM      6  C   UNL     1       1.361   3.603  20.134  0.00  0.00    +0.000 C 
ATOM      7  C   UNL     1       2.121   2.456  19.501  0.00  0.00    +0.000 C 
ATOM      8  C   UNL     1       2.514   2.922  18.096  0.00  0.00    +0.000 C 
ATOM      9  N   UNL     1       2.357   4.373  18.047  0.00  0.00    +0.000 NA
ATOM     10  C   UNL     1       3.522   5.272  17.887  0.00  0.00    +0.000 C 
ATOM     11  C   UNL     1       4.862   4.808  18.560  0.00  0.00    +0.000 C 
ATOM     12  N   UNL     1       5.526   5.447  17.377  0.00  0.00    +0.000 NA
ATOM     13  C   UNL     1       4.341   4.981  16.575  0.00  0.00    +0.000 C 
ATOM     14  C   UNL     1       3.193   6.785  17.946  0.00  0.00    +0.000 C 
ENDROOT
BRANCH   2  15
ATOM     15  C   UNL     1       1.167   8.968  20.292  0.00  0.00    +0.000 A 
ATOM     16  C   UNL     1       0.032   9.766  20.142  0.00  0.00    +0.000 A 
ATOM     17  C   UNL     1      -0.595  10.282  21.276  0.00  0.00    +0.000 A 
ATOM     18  C   UNL     1      -0.061   9.979  22.518  0.00  0.00    +0.000 A 
ATOM     19  N   UNL     1       1.056   9.240  22.697  0.00  0.00    +0.000 NA
ATOM     20  C   UNL     1       1.661   8.782  21.575  0.00  0.00    +0.000 A 
ENDBRANCH   2  15
BRANCH   7  21
ATOM     21  O   UNL     1       1.306   1.289  19.477  0.00  0.00    +0.000 OA
ATOM     22  H   UNL     1       1.497   0.769  20.278  0.00  0.00    +0.000 HD
ENDBRANCH   7  21
BRANCH  12  23
ATOM     23  C   UNL     1       6.783   4.827  16.990  0.00  0.00    +0.000 C 
BRANCH  23  24
ATOM     24  C   UNL     1       6.874   4.690  15.479  0.00  0.00    +0.000 A 
ATOM     25  C   UNL     1       6.064   3.760  14.791  0.00  0.00    +0.000 A 
ATOM     26  C   UNL     1       6.144   3.633  13.403  0.00  0.00    +0.000 A 
ATOM     27  C   UNL     1       7.031   4.438  12.693  0.00  0.00    +0.000 A 
ATOM     28  F   UNL     1       7.103   4.312  11.357  0.00  0.00    +0.000 F 
ATOM     29  C   UNL     1       7.829   5.360  13.346  0.00  0.00    +0.000 A 
ATOM     30  C   UNL     1       7.753   5.488  14.735  0.00  0.00    +0.000 A 
ENDBRANCH  23  24
ENDBRANCH  12  23
TORSDOF 4
ENDMDL
MODEL 6
REMARK VINA RESULT:      -7.6      1.010      1.427
REMARK  Name = 
REMARK  4 active torsions:
REMARK  status: ('A' for Active; 'I' for Inactive)
REMARK    1  A    between atoms: C_2  and  C_3
REMARK    2  A    between atoms: C_13  and  O_14
REMARK    3  A    between atoms: N_19  and  C_20
REMARK    4  A    between atoms: C_20  and  C_21
REMARK                            x       y       z     vdW  Elec       q    Type
REMARK                         _______ _______ _______ _____ _____    ______ ____
ROOT
ATOM      1  O   UNL     1       2.265   9.139  17.580  0.00  0.00    +0.000 OA
ATOM      2  C   UNL     1       2.094   8.404  18.552  0.00  0.00    +0.000 C 
ATOM      3  N   UNL     1       2.485   7.066  18.555  0.00  0.00    +0.000 N 
ATOM      4  C   UNL     1       2.162   6.061  19.555  0.00  0.00    +0.000 C 
ATOM      5  C   UNL     1       1.711   4.740  18.918  0.00  0.00    +0.000 C 
ATOM      6  C   UNL     1       1.647   3.647  19.981  0.00  0.00    +0.000 C 
ATOM      7  C   UNL     1       2.369   2.451  19.394  0.00  0.00    +0.000 C 
ATOM      8  C   UNL     1       2.682   2.807  17.938  0.00  0.00    +0.000 C 
ATOM      9  N   UNL     1       2.522   4.251  17.788  0.00  0.00    +0.000 NA
ATOM     10  C   UNL     1       3.677   5.130  17.494  0.00  0.00    +0.000 C 
ATOM     11  C   UNL     1       5.053   4.713  18.124  0.00  0.00    +0.000 C 
ATOM     12  N   UNL     1       5.649   5.257  16.860  0.00  0.00    +0.000 NA
ATOM     13  C   UNL     1       4.420   4.738  16.164  0.00  0.00    +0.000 C 
ATOM     14  C   UNL     1       3.352   6.645  17.457  0.00  0.00    +0.000 C 
ENDROOT
BRANCH   2  15
ATOM     15  C   UNL     1       1.463   9.009  19.743  0.00  0.00    +0.000 A 
ATOM     16  C   UNL     1       1.500   8.336  20.964  0.00  0.00    +0.000 A 
ATOM     17  C   UNL     1       0.863   8.894  22.071  0.00  0.00    +0.000 A 
ATOM     18  C   UNL     1       0.212  10.108  21.913  0.00  0.00    +0.000 A 
ATOM     19  N   UNL     1       0.127  10.769  20.737  0.00  0.00    +0.000 NA
ATOM     20  C   UNL     1       0.727  10.183  19.673  0.00  0.00    +0.000 A 
ENDBRANCH   2  15
BRANCH   7  21
ATOM     21  O   UNL     1       1.554   1.290  19.505  0.00  0.00    +0.000 OA
ATOM     22  H   UNL     1       0.679   1.563  19.833  0.00  0.00    +0.000 HD
ENDBRANCH   7  21
BRANCH  12  23
ATOM     23  C   UNL     1       6.882   4.604  16.450  0.00  0.00    +0.000 C 
BRANCH  23  24
ATOM     24  C   UNL     1       7.013   4.603  14.936  0.00  0.00    +0.000 A 
ATOM     25  C   UNL     1       7.889   5.502  14.289  0.00  0.00    +0.000 A 
ATOM     26  C   UNL     1       8.014   5.501  12.898  0.00  0.00    +0.000 A 
ATOM     27  C   UNL     1       7.268   4.598  12.146  0.00  0.00    +0.000 A 
ATOM     28  F   UNL     1       7.391   4.602  10.808  0.00  0.00    +0.000 F 
ATOM     29  C   UNL     1       6.409   3.704  12.759  0.00  0.00    +0.000 A 
ATOM     30  C   UNL     1       6.280   3.703  14.150  0.00  0.00    +0.000 A 
ENDBRANCH  23  24
ENDBRANCH  12  23
TORSDOF 4
ENDMDL
MODEL 7
REMARK VINA RESULT:      -7.6      4.461      7.705
REMARK  Name = 
REMARK  4 active torsions:
REMARK  status: ('A' for Active; 'I' for Inactive)
REMARK    1  A    between atoms: C_2  and  C_3
REMARK    2  A    between atoms: C_13  and  O_14
REMARK    3  A    between atoms: N_19  and  C_20
REMARK    4  A    between atoms: C_20  and  C_21
REMARK                            x       y       z     vdW  Elec       q    Type
REMARK                         _______ _______ _______ _____ _____    ______ ____
ROOT
ATOM      1  O   UNL     1       2.840  13.214  17.795  0.00  0.00    +0.000 OA
ATOM      2  C   UNL     1       2.634  13.726  18.895  0.00  0.00    +0.000 C 
ATOM      3  N   UNL     1       1.773  13.158  19.834  0.00  0.00    +0.000 N 
ATOM      4  C   UNL     1       1.304  13.762  21.070  0.00  0.00    +0.000 C 
ATOM      5  C   UNL     1      -0.207  13.573  21.265  0.00  0.00    +0.000 C 
ATOM      6  C   UNL     1      -0.601  13.977  22.683  0.00  0.00    +0.000 C 
ATOM      7  C   UNL     1      -1.471  12.854  23.210  0.00  0.00    +0.000 C 
ATOM      8  C   UNL     1      -1.713  11.906  22.032  0.00  0.00    +0.000 C 
ATOM      9  N   UNL     1      -0.735  12.223  20.995  0.00  0.00    +0.000 NA
ATOM     10  C   UNL     1       0.326  11.263  20.614  0.00  0.00    +0.000 C 
ATOM     11  C   UNL     1       0.898  10.359  21.762  0.00  0.00    +0.000 C 
ATOM     12  N   UNL     1       1.014   9.307  20.700  0.00  0.00    +0.000 NA
ATOM     13  C   UNL     1      -0.248   9.885  20.118  0.00  0.00    +0.000 C 
ATOM     14  C   UNL     1       1.337  11.790  19.565  0.00  0.00    +0.000 C 
ENDROOT
BRANCH   2  15
ATOM     15  C   UNL     1       3.359  14.977  19.196  0.00  0.00    +0.000 A 
ATOM     16  C   UNL     1       4.534  14.933  19.947  0.00  0.00    +0.000 A 
ATOM     17  C   UNL     1       5.187  16.124  20.264  0.00  0.00    +0.000 A 
ATOM     18  C   UNL     1       4.638  17.314  19.815  0.00  0.00    +0.000 A 
ATOM     19  N   UNL     1       3.483  17.395  19.117  0.00  0.00    +0.000 NA
ATOM     20  C   UNL     1       2.855  16.223  18.855  0.00  0.00    +0.000 A 
ENDBRANCH   2  15
BRANCH   7  21
ATOM     21  O   UNL     1      -2.682  13.384  23.737  0.00  0.00    +0.000 OA
ATOM     22  H   UNL     1      -2.778  13.068  24.653  0.00  0.00    +0.000 HD
ENDBRANCH   7  21
BRANCH  12  23
ATOM     23  C   UNL     1       0.871   7.945  21.188  0.00  0.00    +0.000 C 
BRANCH  23  24
ATOM     24  C   UNL     1       1.672   6.978  20.331  0.00  0.00    +0.000 A 
ATOM     25  C   UNL     1       2.396   7.439  19.211  0.00  0.00    +0.000 A 
ATOM     26  C   UNL     1       3.135   6.554  18.423  0.00  0.00    +0.000 A 
ATOM     27  C   UNL     1       3.157   5.201  18.755  0.00  0.00    +0.000 A 
ATOM     28  F   UNL     1       3.869   4.353  17.994  0.00  0.00    +0.000 F 
ATOM     29  C   UNL     1       2.461   4.729  19.852  0.00  0.00    +0.000 A 
ATOM     30  C   UNL     1       1.719   5.612  20.640  0.00  0.00    +0.000 A 
ENDBRANCH  23  24
ENDBRANCH  12  23
TORSDOF 4
ENDMDL
MODEL 8
REMARK VINA RESULT:      -7.6      7.382      9.026
REMARK  Name = 
REMARK  4 active torsions:
REMARK  status: ('A' for Active; 'I' for Inactive)
REMARK    1  A    between atoms: C_2  and  C_3
REMARK    2  A    between atoms: C_13  and  O_14
REMARK    3  A    between atoms: N_19  and  C_20
REMARK    4  A    between atoms: C_20  and  C_21
REMARK                            x       y       z     vdW  Elec       q    Type
REMARK                         _______ _______ _______ _____ _____    ______ ____
ROOT
ATOM      1  O   UNL     1       8.285  11.131  23.802  0.00  0.00    +0.000 OA
ATOM      2  C   UNL     1       8.022  12.184  23.221  0.00  0.00    +0.000 C 
ATOM      3  N   UNL     1       8.393  12.421  21.898  0.00  0.00    +0.000 N 
ATOM      4  C   UNL     1       8.315  13.682  21.178  0.00  0.00    +0.000 C 
ATOM      5  C   UNL     1       9.598  13.974  20.388  0.00  0.00    +0.000 C 
ATOM      6  C   UNL     1       9.370  15.152  19.446  0.00  0.00    +0.000 C 
ATOM      7  C   UNL     1       9.907  14.718  18.098  0.00  0.00    +0.000 C 
ATOM      8  C   UNL     1      10.598  13.370  18.322  0.00  0.00    +0.000 C 
ATOM      9  N   UNL     1      10.155  12.850  19.612  0.00  0.00    +0.000 NA
ATOM     10  C   UNL     1       9.329  11.626  19.711  0.00  0.00    +0.000 C 
ATOM     11  C   UNL     1       8.304  11.377  18.548  0.00  0.00    +0.000 C 
ATOM     12  N   UNL     1       8.619   9.926  18.755  0.00  0.00    +0.000 NA
ATOM     13  C   UNL     1      10.023  10.369  19.067  0.00  0.00    +0.000 C 
ATOM     14  C   UNL     1       8.867  11.262  21.144  0.00  0.00    +0.000 C 
ENDROOT
BRANCH   2  15
ATOM     15  C   UNL     1       7.270  13.199  23.987  0.00  0.00    +0.000 A 
ATOM     16  C   UNL     1       7.954  14.088  24.818  0.00  0.00    +0.000 A 
ATOM     17  C   UNL     1       7.230  15.012  25.571  0.00  0.00    +0.000 A 
ATOM     18  C   UNL     1       5.849  15.011  25.463  0.00  0.00    +0.000 A 
ATOM     19  N   UNL     1       5.154  14.142  24.696  0.00  0.00    +0.000 NA
ATOM     20  C   UNL     1       5.884  13.234  24.003  0.00  0.00    +0.000 A 
ENDBRANCH   2  15
BRANCH   7  21
ATOM     21  O   UNL     1      10.797  15.706  17.589  0.00  0.00    +0.000 OA
ATOM     22  H   UNL     1      11.556  15.772  18.196  0.00  0.00    +0.000 HD
ENDBRANCH   7  21
BRANCH  12  23
ATOM     23  C   UNL     1       8.508   9.113  17.554  0.00  0.00    +0.000 C 
BRANCH  23  24
ATOM     24  C   UNL     1       7.783   7.811  17.850  0.00  0.00    +0.000 A 
ATOM     25  C   UNL     1       8.271   6.923  18.833  0.00  0.00    +0.000 A 
ATOM     26  C   UNL     1       7.606   5.726  19.109  0.00  0.00    +0.000 A 
ATOM     27  C   UNL     1       6.445   5.412  18.406  0.00  0.00    +0.000 A 
ATOM     28  F   UNL     1       5.809   4.260  18.674  0.00  0.00    +0.000 F 
ATOM     29  C   UNL     1       5.946   6.271  17.443  0.00  0.00    +0.000 A 
ATOM     30  C   UNL     1       6.610   7.467  17.164  0.00  0.00    +0.000 A 
ENDBRANCH  23  24
ENDBRANCH  12  23
TORSDOF 4
ENDMDL
MODEL 9
REMARK VINA RESULT:      -7.5      4.814      9.901
REMARK  Name = 
REMARK  4 active torsions:
REMARK  status: ('A' for Active; 'I' for Inactive)
REMARK    1  A    between atoms: C_2  and  C_3
REMARK    2  A    between atoms: C_13  and  O_14
REMARK    3  A    between atoms: N_19  and  C_20
REMARK    4  A    between atoms: C_20  and  C_21
REMARK                            x       y       z     vdW  Elec       q    Type
REMARK                         _______ _______ _______ _____ _____    ______ ____
ROOT
ATOM      1  O   UNL     1       1.321   9.357  21.402  0.00  0.00    +0.000 OA
ATOM      2  C   UNL     1       1.084   9.218  20.202  0.00  0.00    +0.000 C 
ATOM      3  N   UNL     1       0.144   9.999  19.531  0.00  0.00    +0.000 N 
ATOM      4  C   UNL     1      -0.358   9.799  18.181  0.00  0.00    +0.000 C 
ATOM      5  C   UNL     1      -1.885   9.935  18.110  0.00  0.00    +0.000 C 
ATOM      6  C   UNL     1      -2.333   9.988  16.652  0.00  0.00    +0.000 C 
ATOM      7  C   UNL     1      -3.290  11.158  16.552  0.00  0.00    +0.000 C 
ATOM      8  C   UNL     1      -3.520  11.652  17.983  0.00  0.00    +0.000 C 
ATOM      9  N   UNL     1      -2.470  11.084  18.825  0.00  0.00    +0.000 NA
ATOM     10  C   UNL     1      -1.444  11.939  19.464  0.00  0.00    +0.000 C 
ATOM     11  C   UNL     1      -0.986  13.205  18.658  0.00  0.00    +0.000 C 
ATOM     12  N   UNL     1      -0.870  13.860  20.001  0.00  0.00    +0.000 NA
ATOM     13  C   UNL     1      -2.066  13.038  20.403  0.00  0.00    +0.000 C 
ATOM     14  C   UNL     1      -0.351  11.172  20.248  0.00  0.00    +0.000 C 
ENDROOT
BRANCH   2  15
ATOM     15  C   UNL     1       1.860   8.186  19.484  0.00  0.00    +0.000 A 
ATOM     16  C   UNL     1       2.041   6.928  20.061  0.00  0.00    +0.000 A 
ATOM     17  C   UNL     1       2.812   5.977  19.394  0.00  0.00    +0.000 A 
ATOM     18  C   UNL     1       3.373   6.321  18.175  0.00  0.00    +0.000 A 
ATOM     19  N   UNL     1       3.248   7.541  17.606  0.00  0.00    +0.000 NA
ATOM     20  C   UNL     1       2.521   8.454  18.294  0.00  0.00    +0.000 A 
ENDBRANCH   2  15
BRANCH   7  21
ATOM     21  O   UNL     1      -4.497  10.746  15.921  0.00  0.00    +0.000 OA
ATOM     22  H   UNL     1      -4.960  11.541  15.602  0.00  0.00    +0.000 HD
ENDBRANCH   7  21
BRANCH  12  23
ATOM     23  C   UNL     1      -1.114  15.293  19.992  0.00  0.00    +0.000 C 
BRANCH  23  24
ATOM     24  C   UNL     1      -0.103  16.006  19.109  0.00  0.00    +0.000 A 
ATOM     25  C   UNL     1       1.262  15.648  19.144  0.00  0.00    +0.000 A 
ATOM     26  C   UNL     1       2.193  16.300  18.332  0.00  0.00    +0.000 A 
ATOM     27  C   UNL     1       1.763  17.311  17.476  0.00  0.00    +0.000 A 
ATOM     28  F   UNL     1       2.662  17.935  16.697  0.00  0.00    +0.000 F 
ATOM     29  C   UNL     1       0.429  17.673  17.421  0.00  0.00    +0.000 A 
ATOM     30  C   UNL     1      -0.504  17.025  18.233  0.00  0.00    +0.000 A 
ENDBRANCH  23  24
ENDBRANCH  12  23
TORSDOF 4
ENDMDL
