MODEL 1
REMARK VINA RESULT:      -7.3      0.000      0.000
REMARK  Name = 
REMARK  2 active torsions:
REMARK  status: ('A' for Active; 'I' for Inactive)
REMARK    1  A    between atoms: S_2  and  C_4
REMARK    2  A    between atoms: S_2  and  N_11
REMARK                            x       y       z     vdW  Elec       q    Type
REMARK                         _______ _______ _______ _____ _____    ______ ____
ROOT
ATOM      1  O   UNL     1       6.643   4.381  18.946  0.00  0.00    +0.000 OA
ATOM      2  S   UNL     1       6.101   5.372  18.036  0.00  0.00    +0.000 S 
ATOM      3  O   UNL     1       6.614   6.734  18.030  0.00  0.00    +0.000 OA
ENDROOT
BRANCH   2   4
ATOM      4  N   UNL     1       4.457   5.511  18.402  0.00  0.00    +0.000 N 
ATOM      5  C   UNL     1       3.683   6.597  18.066  0.00  0.00    +0.000 A 
ATOM      6  C   UNL     1       2.429   6.390  18.600  0.00  0.00    +0.000 A 
ATOM      7  C   UNL     1       2.455   5.143  19.284  0.00  0.00    +0.000 A 
ATOM      8  C   UNL     1       1.518   4.406  20.027  0.00  0.00    +0.000 A 
ATOM      9  C   UNL     1       1.933   3.196  20.577  0.00  0.00    +0.000 A 
ATOM     10  C   UNL     1       3.234   2.771  20.359  0.00  0.00    +0.000 A 
ATOM     11  N   UNL     1       4.170   3.431  19.641  0.00  0.00    +0.000 NA
ATOM     12  C   UNL     1       3.739   4.608  19.140  0.00  0.00    +0.000 A 
ENDBRANCH   2   4
BRANCH   2  13
ATOM     13  C   UNL     1       6.202   4.765  16.371  0.00  0.00    +0.000 A 
ATOM     14  C   UNL     1       7.258   5.167  15.548  0.00  0.00    +0.000 A 
ATOM     15  C   UNL     1       7.283   4.766  14.209  0.00  0.00    +0.000 A 
ATOM     16  C   UNL     1       6.245   3.988  13.696  0.00  0.00    +0.000 A 
ATOM     17 CL   UNL     1       6.266   3.518  12.041  0.00  0.00    +0.000 Cl
ATOM     18  C   UNL     1       5.182   3.600  14.512  0.00  0.00    +0.000 A 
ATOM     19  C   UNL     1       5.157   3.989  15.854  0.00  0.00    +0.000 A 
ENDBRANCH   2  13
TORSDOF 2
ENDMDL
MODEL 2
REMARK VINA RESULT:      -7.3      0.985      1.476
REMARK  Name = 
REMARK  2 active torsions:
REMARK  status: ('A' for Active; 'I' for Inactive)
REMARK    1  A    between atoms: S_2  and  C_4
REMARK    2  A    between atoms: S_2  and  N_11
REMARK                            x       y       z     vdW  Elec       q    Type
REMARK                         _______ _______ _______ _____ _____    ______ ____
ROOT
ATOM      1  O   UNL     1       6.408   4.208  18.579  0.00  0.00    +0.000 OA
ATOM      2  S   UNL     1       5.834   5.272  17.777  0.00  0.00    +0.000 S 
ATOM      3  O   UNL     1       6.213   6.660  18.002  0.00  0.00    +0.000 OA
ENDROOT
BRANCH   2   4
ATOM      4  N   UNL     1       4.164   5.214  18.027  0.00  0.00    +0.000 N 
ATOM      5  C   UNL     1       3.358   6.325  18.098  0.00  0.00    +0.000 A 
ATOM      6  C   UNL     1       2.083   5.891  18.393  0.00  0.00    +0.000 A 
ATOM      7  C   UNL     1       2.129   4.475  18.510  0.00  0.00    +0.000 A 
ATOM      8  C   UNL     1       1.185   3.477  18.807  0.00  0.00    +0.000 A 
ATOM      9  C   UNL     1       1.625   2.158  18.850  0.00  0.00    +0.000 A 
ATOM     10  C   UNL     1       2.960   1.887  18.589  0.00  0.00    +0.000 A 
ATOM     11  N   UNL     1       3.906   2.803  18.283  0.00  0.00    +0.000 NA
ATOM     12  C   UNL     1       3.447   4.072  18.270  0.00  0.00    +0.000 A 
ENDBRANCH   2   4
BRANCH   2  13
ATOM     13  C   UNL     1       6.104   4.926  16.057  0.00  0.00    +0.000 A 
ATOM     14  C   UNL     1       5.121   4.259  15.319  0.00  0.00    +0.000 A 
ATOM     15  C   UNL     1       5.375   3.901  13.992  0.00  0.00    +0.000 A 
ATOM     16  C   UNL     1       6.613   4.189  13.419  0.00  0.00    +0.000 A 
ATOM     17 CL   UNL     1       6.931   3.723  11.793  0.00  0.00    +0.000 Cl
ATOM     18  C   UNL     1       7.601   4.839  14.158  0.00  0.00    +0.000 A 
ATOM     19  C   UNL     1       7.350   5.209  15.482  0.00  0.00    +0.000 A 
ENDBRANCH   2  13
TORSDOF 2
ENDMDL
MODEL 3
REMARK VINA RESULT:      -7.2      3.635      5.988
REMARK  Name = 
REMARK  2 active torsions:
REMARK  status: ('A' for Active; 'I' for Inactive)
REMARK    1  A    between atoms: S_2  and  C_4
REMARK    2  A    between atoms: S_2  and  N_11
REMARK                            x       y       z     vdW  Elec       q    Type
REMARK                         _______ _______ _______ _____ _____    ______ ____
ROOT
ATOM      1  O   UNL     1       2.892   3.425  19.695  0.00  0.00    +0.000 OA
ATOM      2  S   UNL     1       2.625   4.253  18.535  0.00  0.00    +0.000 S 
ATOM      3  O   UNL     1       1.581   3.891  17.587  0.00  0.00    +0.000 OA
ENDROOT
BRANCH   2   4
ATOM      4  N   UNL     1       4.056   4.296  17.637  0.00  0.00    +0.000 N 
ATOM      5  C   UNL     1       4.171   3.826  16.350  0.00  0.00    +0.000 A 
ATOM      6  C   UNL     1       5.494   3.950  15.983  0.00  0.00    +0.000 A 
ATOM      7  C   UNL     1       6.195   4.506  17.088  0.00  0.00    +0.000 A 
ATOM      8  C   UNL     1       7.535   4.846  17.337  0.00  0.00    +0.000 A 
ATOM      9  C   UNL     1       7.852   5.366  18.589  0.00  0.00    +0.000 A 
ATOM     10  C   UNL     1       6.841   5.534  19.521  0.00  0.00    +0.000 A 
ATOM     11  N   UNL     1       5.535   5.238  19.331  0.00  0.00    +0.000 NA
ATOM     12  C   UNL     1       5.268   4.719  18.114  0.00  0.00    +0.000 A 
ENDBRANCH   2   4
BRANCH   2  13
ATOM     13  C   UNL     1       2.304   5.918  19.060  0.00  0.00    +0.000 A 
ATOM     14  C   UNL     1       1.829   6.161  20.352  0.00  0.00    +0.000 A 
ATOM     15  C   UNL     1       1.484   7.461  20.731  0.00  0.00    +0.000 A 
ATOM     16  C   UNL     1       1.591   8.504  19.811  0.00  0.00    +0.000 A 
ATOM     17 CL   UNL     1       1.140  10.099  20.273  0.00  0.00    +0.000 Cl
ATOM     18  C   UNL     1       2.048   8.262  18.516  0.00  0.00    +0.000 A 
ATOM     19  C   UNL     1       2.404   6.965  18.135  0.00  0.00    +0.000 A 
ENDBRANCH   2  13
TORSDOF 2
ENDMDL
MODEL 4
REMARK VINA RESULT:      -7.2      0.276      1.145
REMARK  Name = 
REMARK  2 active torsions:
REMARK  status: ('A' for Active; 'I' for Inactive)
REMARK    1  A    between atoms: S_2  and  C_4
REMARK    2  A    between atoms: S_2  and  N_11
REMARK                            x       y       z     vdW  Elec       q    Type
REMARK                         _______ _______ _______ _____ _____    ______ ____
ROOT
ATOM      1  O   UNL     1       6.320   4.031  18.925  0.00  0.00    +0.000 OA
ATOM      2  S   UNL     1       5.914   5.185  18.146  0.00  0.00    +0.000 S 
ATOM      3  O   UNL     1       6.559   6.476  18.337  0.00  0.00    +0.000 OA
ENDROOT
BRANCH   2   4
ATOM      4  N   UNL     1       4.279   5.443  18.487  0.00  0.00    +0.000 N 
ATOM      5  C   UNL     1       3.577   6.557  18.092  0.00  0.00    +0.000 A 
ATOM      6  C   UNL     1       2.308   6.454  18.622  0.00  0.00    +0.000 A 
ATOM      7  C   UNL     1       2.251   5.243  19.365  0.00  0.00    +0.000 A 
ATOM      8  C   UNL     1       1.265   4.601  20.132  0.00  0.00    +0.000 A 
ATOM      9  C   UNL     1       1.599   3.396  20.744  0.00  0.00    +0.000 A 
ATOM     10  C   UNL     1       2.873   2.881  20.560  0.00  0.00    +0.000 A 
ATOM     11  N   UNL     1       3.854   3.447  19.821  0.00  0.00    +0.000 NA
ATOM     12  C   UNL     1       3.501   4.622  19.260  0.00  0.00    +0.000 A 
ENDBRANCH   2   4
BRANCH   2  13
ATOM     13  C   UNL     1       6.018   4.797  16.417  0.00  0.00    +0.000 A 
ATOM     14  C   UNL     1       5.032   4.005  15.821  0.00  0.00    +0.000 A 
ATOM     15  C   UNL     1       5.167   3.619  14.485  0.00  0.00    +0.000 A 
ATOM     16  C   UNL     1       6.294   4.006  13.760  0.00  0.00    +0.000 A 
ATOM     17 CL   UNL     1       6.469   3.508  12.122  0.00  0.00    +0.000 Cl
ATOM     18  C   UNL     1       7.287   4.782  14.357  0.00  0.00    +0.000 A 
ATOM     19  C   UNL     1       7.153   5.179  15.690  0.00  0.00    +0.000 A 
ENDBRANCH   2  13
TORSDOF 2
ENDMDL
MODEL 5
REMARK VINA RESULT:      -7.2      1.460      1.914
REMARK  Name = 
REMARK  2 active torsions:
REMARK  status: ('A' for Active; 'I' for Inactive)
REMARK    1  A    between atoms: S_2  and  C_4
REMARK    2  A    between atoms: S_2  and  N_11
REMARK                            x       y       z     vdW  Elec       q    Type
REMARK                         _______ _______ _______ _____ _____    ______ ____
ROOT
ATOM      1  O   UNL     1       6.428   4.604  18.953  0.00  0.00    +0.000 OA
ATOM      2  S   UNL     1       5.329   4.865  18.043  0.00  0.00    +0.000 S 
ATOM      3  O   UNL     1       4.616   6.133  18.083  0.00  0.00    +0.000 OA
ENDROOT
BRANCH   2   4
ATOM      4  N   UNL     1       4.162   3.681  18.347  0.00  0.00    +0.000 N 
ATOM      5  C   UNL     1       3.961   2.577  17.553  0.00  0.00    +0.000 A 
ATOM      6  C   UNL     1       2.879   1.893  18.065  0.00  0.00    +0.000 A 
ATOM      7  C   UNL     1       2.412   2.615  19.198  0.00  0.00    +0.000 A 
ATOM      8  C   UNL     1       1.359   2.445  20.112  0.00  0.00    +0.000 A 
ATOM      9  C   UNL     1       1.203   3.404  21.110  0.00  0.00    +0.000 A 
ATOM     10  C   UNL     1       2.092   4.465  21.165  0.00  0.00    +0.000 A 
ATOM     11  N   UNL     1       3.131   4.670  20.323  0.00  0.00    +0.000 NA
ATOM     12  C   UNL     1       3.239   3.733  19.358  0.00  0.00    +0.000 A 
ENDBRANCH   2   4
BRANCH   2  13
ATOM     13  C   UNL     1       5.876   4.622  16.372  0.00  0.00    +0.000 A 
ATOM     14  C   UNL     1       7.197   4.920  16.022  0.00  0.00    +0.000 A 
ATOM     15  C   UNL     1       7.599   4.822  14.687  0.00  0.00    +0.000 A 
ATOM     16  C   UNL     1       6.677   4.451  13.709  0.00  0.00    +0.000 A 
ATOM     17 CL   UNL     1       7.169   4.357  12.063  0.00  0.00    +0.000 Cl
ATOM     18  C   UNL     1       5.355   4.170  14.052  0.00  0.00    +0.000 A 
ATOM     19  C   UNL     1       4.949   4.257  15.387  0.00  0.00    +0.000 A 
ENDBRANCH   2  13
TORSDOF 2
ENDMDL
MODEL 6
REMARK VINA RESULT:      -7.1      1.407      2.180
REMARK  Name = 
REMARK  2 active torsions:
REMARK  status: ('A' for Active; 'I' for Inactive)
REMARK    1  A    between atoms: S_2  and  C_4
REMARK    2  A    between atoms: S_2  and  N_11
REMARK                            x       y       z     vdW  Elec       q    Type
REMARK                         _______ _______ _______ _____ _____    ______ ____
ROOT
ATOM      1  O   UNL     1       6.556   4.622  18.886  0.00  0.00    +0.000 OA
ATOM      2  S   UNL     1       5.397   4.924  18.069  0.00  0.00    +0.000 S 
ATOM      3  O   UNL     1       4.681   6.181  18.231  0.00  0.00    +0.000 OA
ENDROOT
BRANCH   2   4
ATOM      4  N   UNL     1       4.260   3.714  18.381  0.00  0.00    +0.000 N 
ATOM      5  C   UNL     1       4.142   2.560  17.643  0.00  0.00    +0.000 A 
ATOM      6  C   UNL     1       3.060   1.863  18.138  0.00  0.00    +0.000 A 
ATOM      7  C   UNL     1       2.508   2.628  19.203  0.00  0.00    +0.000 A 
ATOM      8  C   UNL     1       1.414   2.468  20.070  0.00  0.00    +0.000 A 
ATOM      9  C   UNL     1       1.171   3.473  21.002  0.00  0.00    +0.000 A 
ATOM     10  C   UNL     1       2.016   4.571  21.040  0.00  0.00    +0.000 A 
ATOM     11  N   UNL     1       3.090   4.769  20.242  0.00  0.00    +0.000 NA
ATOM     12  C   UNL     1       3.283   3.785  19.339  0.00  0.00    +0.000 A 
ENDBRANCH   2   4
BRANCH   2  13
ATOM     13  C   UNL     1       5.831   4.784  16.354  0.00  0.00    +0.000 A 
ATOM     14  C   UNL     1       4.876   4.356  15.427  0.00  0.00    +0.000 A 
ATOM     15  C   UNL     1       5.245   4.152  14.095  0.00  0.00    +0.000 A 
ATOM     16  C   UNL     1       6.568   4.354  13.702  0.00  0.00    +0.000 A 
ATOM     17 CL   UNL     1       7.026   4.076  12.066  0.00  0.00    +0.000 Cl
ATOM     18  C   UNL     1       7.527   4.764  14.628  0.00  0.00    +0.000 A 
ATOM     19  C   UNL     1       7.161   4.979  15.959  0.00  0.00    +0.000 A 
ENDBRANCH   2  13
TORSDOF 2
ENDMDL
MODEL 7
REMARK VINA RESULT:      -7.1      3.514      5.885
REMARK  Name = 
REMARK  2 active torsions:
REMARK  status: ('A' for Active; 'I' for Inactive)
REMARK    1  A    between atoms: S_2  and  C_4
REMARK    2  A    between atoms: S_2  and  N_11
REMARK                            x       y       z     vdW  Elec       q    Type
REMARK                         _______ _______ _______ _____ _____    ______ ____
ROOT
ATOM      1  O   UNL     1       3.191   2.712  19.189  0.00  0.00    +0.000 OA
ATOM      2  S   UNL     1       2.882   3.691  18.164  0.00  0.00    +0.000 S 
ATOM      3  O   UNL     1       1.927   3.385  17.108  0.00  0.00    +0.000 OA
ENDROOT
BRANCH   2   4
ATOM      4  N   UNL     1       4.335   4.035  17.374  0.00  0.00    +0.000 N 
ATOM      5  C   UNL     1       4.583   3.735  16.055  0.00  0.00    +0.000 A 
ATOM      6  C   UNL     1       5.891   4.084  15.793  0.00  0.00    +0.000 A 
ATOM      7  C   UNL     1       6.446   4.601  16.996  0.00  0.00    +0.000 A 
ATOM      8  C   UNL     1       7.708   5.094  17.368  0.00  0.00    +0.000 A 
ATOM      9  C   UNL     1       7.881   5.506  18.687  0.00  0.00    +0.000 A 
ATOM     10  C   UNL     1       6.809   5.424  19.562  0.00  0.00    +0.000 A 
ATOM     11  N   UNL     1       5.572   4.973  19.254  0.00  0.00    +0.000 NA
ATOM     12  C   UNL     1       5.447   4.565  17.974  0.00  0.00    +0.000 A 
ENDBRANCH   2   4
BRANCH   2  13
ATOM     13  C   UNL     1       2.350   5.201  18.931  0.00  0.00    +0.000 A 
ATOM     14  C   UNL     1       2.513   6.416  18.261  0.00  0.00    +0.000 A 
ATOM     15  C   UNL     1       2.184   7.612  18.905  0.00  0.00    +0.000 A 
ATOM     16  C   UNL     1       1.718   7.589  20.220  0.00  0.00    +0.000 A 
ATOM     17 CL   UNL     1       1.340   9.065  21.019  0.00  0.00    +0.000 Cl
ATOM     18  C   UNL     1       1.572   6.378  20.897  0.00  0.00    +0.000 A 
ATOM     19  C   UNL     1       1.889   5.178  20.254  0.00  0.00    +0.000 A 
ENDBRANCH   2  13
TORSDOF 2
ENDMDL
MODEL 8
REMARK VINA RESULT:      -7.1      3.605      5.904
REMARK  Name = 
REMARK  2 active torsions:
REMARK  status: ('A' for Active; 'I' for Inactive)
REMARK    1  A    between atoms: S_2  and  C_4
REMARK    2  A    between atoms: S_2  and  N_11
REMARK                            x       y       z     vdW  Elec       q    Type
REMARK                         _______ _______ _______ _____ _____    ______ ____
ROOT
ATOM      1  O   UNL     1       3.205   4.288  20.560  0.00  0.00    +0.000 OA
ATOM      2  S   UNL     1       2.663   4.612  19.254  0.00  0.00    +0.000 S 
ATOM      3  O   UNL     1       1.563   3.839  18.693  0.00  0.00    +0.000 OA
ENDROOT
BRANCH   2   4
ATOM      4  N   UNL     1       3.935   4.451  18.153  0.00  0.00    +0.000 N 
ATOM      5  C   UNL     1       3.814   3.857  16.919  0.00  0.00    +0.000 A 
ATOM      6  C   UNL     1       5.069   3.834  16.348  0.00  0.00    +0.000 A 
ATOM      7  C   UNL     1       5.971   4.428  17.273  0.00  0.00    +0.000 A 
ATOM      8  C   UNL     1       7.354   4.675  17.283  0.00  0.00    +0.000 A 
ATOM      9  C   UNL     1       7.899   5.278  18.413  0.00  0.00    +0.000 A 
ATOM     10  C   UNL     1       7.060   5.616  19.463  0.00  0.00    +0.000 A 
ATOM     11  N   UNL     1       5.723   5.416  19.501  0.00  0.00    +0.000 NA
ATOM     12  C   UNL     1       5.233   4.812  18.398  0.00  0.00    +0.000 A 
ENDBRANCH   2   4
BRANCH   2  13
ATOM     13  C   UNL     1       2.176   6.318  19.223  0.00  0.00    +0.000 A 
ATOM     14  C   UNL     1       2.350   7.070  18.058  0.00  0.00    +0.000 A 
ATOM     15  C   UNL     1       2.058   8.437  18.065  0.00  0.00    +0.000 A 
ATOM     16  C   UNL     1       1.616   9.047  19.238  0.00  0.00    +0.000 A 
ATOM     17 CL   UNL     1       1.282  10.735  19.251  0.00  0.00    +0.000 Cl
ATOM     18  C   UNL     1       1.458   8.303  20.407  0.00  0.00    +0.000 A 
ATOM     19  C   UNL     1       1.740   6.934  20.403  0.00  0.00    +0.000 A 
ENDBRANCH   2  13
TORSDOF 2
ENDMDL
MODEL 9
REMARK VINA RESULT:      -7.0      3.089      3.544
REMARK  Name = 
REMARK  2 active torsions:
REMARK  status: ('A' for Active; 'I' for Inactive)
REMARK    1  A    between atoms: S_2  and  C_4
REMARK    2  A    between atoms: S_2  and  N_11
REMARK                            x       y       z     vdW  Elec       q    Type
REMARK                         _______ _______ _______ _____ _____    ______ ____
ROOT
ATOM      1  O   UNL     1       4.986   4.093  16.588  0.00  0.00    +0.000 OA
ATOM      2  S   UNL     1       5.351   4.460  17.943  0.00  0.00    +0.000 S 
ATOM      3  O   UNL     1       5.974   3.491  18.834  0.00  0.00    +0.000 OA
ENDROOT
BRANCH   2   4
ATOM      4  N   UNL     1       3.924   4.930  18.715  0.00  0.00    +0.000 N 
ATOM      5  C   UNL     1       3.650   6.219  19.107  0.00  0.00    +0.000 A 
ATOM      6  C   UNL     1       2.442   6.199  19.772  0.00  0.00    +0.000 A 
ATOM      7  C   UNL     1       1.982   4.854  19.785  0.00  0.00    +0.000 A 
ATOM      8  C   UNL     1       0.855   4.201  20.313  0.00  0.00    +0.000 A 
ATOM      9  C   UNL     1       0.760   2.823  20.135  0.00  0.00    +0.000 A 
ATOM     10  C   UNL     1       1.764   2.165  19.441  0.00  0.00    +0.000 A 
ATOM     11  N   UNL     1       2.860   2.744  18.901  0.00  0.00    +0.000 NA
ATOM     12  C   UNL     1       2.929   4.076  19.110  0.00  0.00    +0.000 A 
ENDBRANCH   2   4
BRANCH   2  13
ATOM     13  C   UNL     1       6.403   5.889  17.904  0.00  0.00    +0.000 A 
ATOM     14  C   UNL     1       7.491   5.976  18.777  0.00  0.00    +0.000 A 
ATOM     15  C   UNL     1       8.259   7.143  18.813  0.00  0.00    +0.000 A 
ATOM     16  C   UNL     1       7.923   8.222  17.996  0.00  0.00    +0.000 A 
ATOM     17 CL   UNL     1       8.855   9.667  18.062  0.00  0.00    +0.000 Cl
ATOM     18  C   UNL     1       6.828   8.145  17.136  0.00  0.00    +0.000 A 
ATOM     19  C   UNL     1       6.062   6.977  17.089  0.00  0.00    +0.000 A 
ENDBRANCH   2  13
TORSDOF 2
ENDMDL
