MODEL 1
REMARK VINA RESULT:      -9.1      0.000      0.000
REMARK  Name = 
REMARK  7 active torsions:
REMARK  status: ('A' for Active; 'I' for Inactive)
REMARK    1  A    between atoms: C_1  and  N_2
REMARK    2  A    between atoms: C_3  and  C_5
REMARK    3  A    between atoms: C_7  and  O_8
REMARK    4  A    between atoms: O_8  and  C_9
REMARK    5  A    between atoms: C_12  and  C_13
REMARK    6  A    between atoms: C_13  and  C_15
REMARK    7  A    between atoms: C_16  and  C_17
REMARK                            x       y       z     vdW  Elec       q    Type
REMARK                         _______ _______ _______ _____ _____    ______ ____
ROOT
ATOM      1  C   UNL     1       3.119   5.388  18.722  0.00  0.00    +0.000 A 
ATOM      2  C   UNL     1       2.620   5.204  20.012  0.00  0.00    +0.000 A 
ATOM      3  C   UNL     1       1.987   6.256  20.680  0.00  0.00    +0.000 A 
ATOM      4  C   UNL     1       1.836   7.502  20.055  0.00  0.00    +0.000 A 
ATOM      5  C   UNL     1       2.355   7.692  18.770  0.00  0.00    +0.000 A 
ATOM      6  C   UNL     1       3.013   6.644  18.115  0.00  0.00    +0.000 A 
ENDROOT
BRANCH   4   7
ATOM      7  C   UNL     1       1.170   8.595  20.814  0.00  0.00    +0.000 C 
ATOM      8  O   UNL     1       1.686   9.038  21.835  0.00  0.00    +0.000 OA
BRANCH   7   9
ATOM      9  C   UNL     1      -0.154   9.075  20.332  0.00  0.00    +0.000 C 
ATOM     10  C   UNL     1      -0.210  10.046  19.409  0.00  0.00    +0.000 C 
BRANCH  10  11
ATOM     11  C   UNL     1      -1.493  10.614  18.979  0.00  0.00    +0.000 A 
ATOM     12  C   UNL     1      -2.121  10.026  17.871  0.00  0.00    +0.000 A 
ATOM     13  C   UNL     1      -3.332  10.527  17.392  0.00  0.00    +0.000 A 
ATOM     14  C   UNL     1      -3.925  11.619  18.020  0.00  0.00    +0.000 A 
ATOM     15 CL   UNL     1      -5.417  12.235  17.427  0.00  0.00    +0.000 Cl
ATOM     16  C   UNL     1      -3.317  12.218  19.123  0.00  0.00    +0.000 A 
ATOM     17  C   UNL     1      -2.102  11.717  19.599  0.00  0.00    +0.000 A 
ATOM     18 CL   UNL     1      -1.385  12.502  20.963  0.00  0.00    +0.000 Cl
ENDBRANCH  10  11
ENDBRANCH   7   9
ENDBRANCH   4   7
BRANCH   1  19
ATOM     19  O   UNL     1       3.767   4.304  18.170  0.00  0.00    +0.000 OA
BRANCH  19  22
ATOM     20  C   UNL     1       6.537   4.557  15.777  0.00  0.00    +0.000 A 
ATOM     21  C   UNL     1       5.241   4.360  16.227  0.00  0.00    +0.000 A 
ATOM     22  C   UNL     1       5.005   4.465  17.590  0.00  0.00    +0.000 A 
ATOM     23  C   UNL     1       6.073   4.675  18.459  0.00  0.00    +0.000 A 
ATOM     24  C   UNL     1       7.341   4.828  17.919  0.00  0.00    +0.000 A 
ATOM     25  N   UNL     1       7.603   4.786  16.595  0.00  0.00    +0.000 NA
BRANCH  20  28
ATOM     26  C   UNL     1       6.426   3.351  12.197  0.00  0.00    +0.000 C 
ATOM     27  N   UNL     1       6.246   3.500  13.614  0.00  0.00    +0.000 N 
ATOM     28  C   UNL     1       6.802   4.555  14.304  0.00  0.00    +0.000 C 
ATOM     29  O   UNL     1       7.477   5.434  13.777  0.00  0.00    +0.000 OA
ATOM     30  H   UNL     1       5.721   2.819  14.156  0.00  0.00    +0.000 HD
ENDBRANCH  20  28
ENDBRANCH  19  22
ENDBRANCH   1  19
TORSDOF 6
ENDMDL
MODEL 2
REMARK VINA RESULT:      -9.0      1.642      2.226
REMARK  Name = 
REMARK  7 active torsions:
REMARK  status: ('A' for Active; 'I' for Inactive)
REMARK    1  A    between atoms: C_1  and  N_2
REMARK    2  A    between atoms: C_3  and  C_5
REMARK    3  A    between atoms: C_7  and  O_8
REMARK    4  A    between atoms: O_8  and  C_9
REMARK    5  A    between atoms: C_12  and  C_13
REMARK    6  A    between atoms: C_13  and  C_15
REMARK    7  A    between atoms: C_16  and  C_17
REMARK                            x       y       z     vdW  Elec       q    Type
REMARK                         _______ _______ _______ _____ _____    ______ ____
ROOT
ATOM      1  C   UNL     1       2.925   6.515  18.780  0.00  0.00    +0.000 A 
ATOM      2  C   UNL     1       2.886   7.348  17.660  0.00  0.00    +0.000 A 
ATOM      3  C   UNL     1       2.233   8.582  17.721  0.00  0.00    +0.000 A 
ATOM      4  C   UNL     1       1.622   9.002  18.911  0.00  0.00    +0.000 A 
ATOM      5  C   UNL     1       1.643   8.158  20.027  0.00  0.00    +0.000 A 
ATOM      6  C   UNL     1       2.274   6.911  19.954  0.00  0.00    +0.000 A 
ENDROOT
BRANCH   4   7
ATOM      7  C   UNL     1       0.925  10.316  18.920  0.00  0.00    +0.000 C 
ATOM      8  O   UNL     1       1.550  11.341  19.173  0.00  0.00    +0.000 OA
BRANCH   7   9
ATOM      9  C   UNL     1      -0.544  10.331  18.679  0.00  0.00    +0.000 C 
ATOM     10  C   UNL     1      -1.154  11.485  18.375  0.00  0.00    +0.000 C 
BRANCH  10  11
ATOM     11  C   UNL     1      -2.611  11.560  18.226  0.00  0.00    +0.000 A 
ATOM     12  C   UNL     1      -3.343  12.095  19.297  0.00  0.00    +0.000 A 
ATOM     13  C   UNL     1      -4.734  12.179  19.235  0.00  0.00    +0.000 A 
ATOM     14  C   UNL     1      -5.404  11.729  18.099  0.00  0.00    +0.000 A 
ATOM     15 CL   UNL     1      -7.119  11.833  18.026  0.00  0.00    +0.000 Cl
ATOM     16  C   UNL     1      -4.695  11.195  17.024  0.00  0.00    +0.000 A 
ATOM     17  C   UNL     1      -3.302  11.109  17.089  0.00  0.00    +0.000 A 
ATOM     18 CL   UNL     1      -2.471  10.428  15.733  0.00  0.00    +0.000 Cl
ENDBRANCH  10  11
ENDBRANCH   7   9
ENDBRANCH   4   7
BRANCH   1  19
ATOM     19  O   UNL     1       3.551   5.301  18.603  0.00  0.00    +0.000 OA
BRANCH  19  22
ATOM     20  C   UNL     1       6.475   4.977  16.411  0.00  0.00    +0.000 A 
ATOM     21  C   UNL     1       5.139   4.981  16.779  0.00  0.00    +0.000 A 
ATOM     22  C   UNL     1       4.833   5.254  18.105  0.00  0.00    +0.000 A 
ATOM     23  C   UNL     1       5.863   5.426  19.027  0.00  0.00    +0.000 A 
ATOM     24  C   UNL     1       7.171   5.372  18.572  0.00  0.00    +0.000 A 
ATOM     25  N   UNL     1       7.508   5.163  17.281  0.00  0.00    +0.000 NA
BRANCH  20  28
ATOM     26  C   UNL     1       6.235   3.631  12.887  0.00  0.00    +0.000 C 
ATOM     27  N   UNL     1       6.013   3.926  14.276  0.00  0.00    +0.000 N 
ATOM     28  C   UNL     1       6.830   4.791  14.969  0.00  0.00    +0.000 C 
ATOM     29  O   UNL     1       7.789   5.371  14.469  0.00  0.00    +0.000 OA
ATOM     30  H   UNL     1       5.258   3.486  14.796  0.00  0.00    +0.000 HD
ENDBRANCH  20  28
ENDBRANCH  19  22
ENDBRANCH   1  19
TORSDOF 6
ENDMDL
MODEL 3
REMARK VINA RESULT:      -8.7      1.110      1.453
REMARK  Name = 
REMARK  7 active torsions:
REMARK  status: ('A' for Active; 'I' for Inactive)
REMARK    1  A    between atoms: C_1  and  N_2
REMARK    2  A    between atoms: C_3  and  C_5
REMARK    3  A    between atoms: C_7  and  O_8
REMARK    4  A    between atoms: O_8  and  C_9
REMARK    5  A    between atoms: C_12  and  C_13
REMARK    6  A    between atoms: C_13  and  C_15
REMARK    7  A    between atoms: C_16  and  C_17
REMARK                            x       y       z     vdW  Elec       q    Type
REMARK                         _______ _______ _______ _____ _____    ______ ____
ROOT
ATOM      1  C   UNL     1       2.892   5.866  18.857  0.00  0.00    +0.000 A 
ATOM      2  C   UNL     1       2.375   5.736  20.147  0.00  0.00    +0.000 A 
ATOM      3  C   UNL     1       1.764   6.825  20.776  0.00  0.00    +0.000 A 
ATOM      4  C   UNL     1       1.654   8.054  20.112  0.00  0.00    +0.000 A 
ATOM      5  C   UNL     1       2.191   8.191  18.828  0.00  0.00    +0.000 A 
ATOM      6  C   UNL     1       2.826   7.106  18.212  0.00  0.00    +0.000 A 
ENDROOT
BRANCH   4   7
ATOM      7  C   UNL     1       1.011   9.188  20.830  0.00  0.00    +0.000 C 
ATOM      8  O   UNL     1       1.567   9.698  21.797  0.00  0.00    +0.000 OA
BRANCH   7   9
ATOM      9  C   UNL     1      -0.338   9.627  20.378  0.00  0.00    +0.000 C 
ATOM     10  C   UNL     1      -0.500  10.859  19.877  0.00  0.00    +0.000 C 
BRANCH  10  11
ATOM     11  C   UNL     1      -1.828  11.365  19.511  0.00  0.00    +0.000 A 
ATOM     12  C   UNL     1      -2.464  12.225  20.419  0.00  0.00    +0.000 A 
ATOM     13  C   UNL     1      -3.737  12.728  20.148  0.00  0.00    +0.000 A 
ATOM     14  C   UNL     1      -4.382  12.376  18.964  0.00  0.00    +0.000 A 
ATOM     15 CL   UNL     1      -5.951  12.997  18.633  0.00  0.00    +0.000 Cl
ATOM     16  C   UNL     1      -3.766  11.523  18.049  0.00  0.00    +0.000 A 
ATOM     17  C   UNL     1      -2.492  11.018  18.324  0.00  0.00    +0.000 A 
ATOM     18 CL   UNL     1      -1.778   9.956  17.160  0.00  0.00    +0.000 Cl
ENDBRANCH  10  11
ENDBRANCH   7   9
ENDBRANCH   4   7
BRANCH   1  19
ATOM     19  O   UNL     1       3.515   4.749  18.345  0.00  0.00    +0.000 OA
BRANCH  19  22
ATOM     20  C   UNL     1       6.479   4.790  16.182  0.00  0.00    +0.000 A 
ATOM     21  C   UNL     1       5.143   4.659  16.531  0.00  0.00    +0.000 A 
ATOM     22  C   UNL     1       4.802   4.839  17.864  0.00  0.00    +0.000 A 
ATOM     23  C   UNL     1       5.802   5.055  18.808  0.00  0.00    +0.000 A 
ATOM     24  C   UNL     1       7.115   5.138  18.370  0.00  0.00    +0.000 A 
ATOM     25  N   UNL     1       7.483   5.022  17.076  0.00  0.00    +0.000 NA
BRANCH  20  28
ATOM     26  C   UNL     1       6.434   3.563  12.608  0.00  0.00    +0.000 C 
ATOM     27  N   UNL     1       6.167   3.772  14.004  0.00  0.00    +0.000 N 
ATOM     28  C   UNL     1       6.863   4.706  14.739  0.00  0.00    +0.000 C 
ATOM     29  O   UNL     1       7.745   5.422  14.272  0.00  0.00    +0.000 OA
ATOM     30  H   UNL     1       5.471   3.220  14.499  0.00  0.00    +0.000 HD
ENDBRANCH  20  28
ENDBRANCH  19  22
ENDBRANCH   1  19
TORSDOF 6
ENDMDL
MODEL 4
REMARK VINA RESULT:      -8.5      1.781      2.564
REMARK  Name = 
REMARK  7 active torsions:
REMARK  status: ('A' for Active; 'I' for Inactive)
REMARK    1  A    between atoms: C_1  and  N_2
REMARK    2  A    between atoms: C_3  and  C_5
REMARK    3  A    between atoms: C_7  and  O_8
REMARK    4  A    between atoms: O_8  and  C_9
REMARK    5  A    between atoms: C_12  and  C_13
REMARK    6  A    between atoms: C_13  and  C_15
REMARK    7  A    between atoms: C_16  and  C_17
REMARK                            x       y       z     vdW  Elec       q    Type
REMARK                         _______ _______ _______ _____ _____    ______ ____
ROOT
ATOM      1  C   UNL     1       3.018   5.070  18.783  0.00  0.00    +0.000 A 
ATOM      2  C   UNL     1       3.038   6.376  18.290  0.00  0.00    +0.000 A 
ATOM      3  C   UNL     1       2.426   7.409  19.005  0.00  0.00    +0.000 A 
ATOM      4  C   UNL     1       1.796   7.147  20.229  0.00  0.00    +0.000 A 
ATOM      5  C   UNL     1       1.757   5.835  20.712  0.00  0.00    +0.000 A 
ATOM      6  C   UNL     1       2.348   4.798  19.980  0.00  0.00    +0.000 A 
ENDROOT
BRANCH   4   7
ATOM      7  C   UNL     1       1.144   8.278  20.943  0.00  0.00    +0.000 C 
ATOM      8  O   UNL     1       0.602   8.090  22.027  0.00  0.00    +0.000 OA
BRANCH   7   9
ATOM      9  C   UNL     1       1.118   9.607  20.271  0.00  0.00    +0.000 C 
ATOM     10  C   UNL     1       0.347  10.584  20.768  0.00  0.00    +0.000 C 
BRANCH  10  11
ATOM     11  C   UNL     1       0.218  11.875  20.083  0.00  0.00    +0.000 A 
ATOM     12  C   UNL     1       0.828  12.988  20.681  0.00  0.00    +0.000 A 
ATOM     13  C   UNL     1       0.729  14.251  20.097  0.00  0.00    +0.000 A 
ATOM     14  C   UNL     1       0.020  14.410  18.909  0.00  0.00    +0.000 A 
ATOM     15 CL   UNL     1      -0.101  15.969  18.192  0.00  0.00    +0.000 Cl
ATOM     16  C   UNL     1      -0.593  13.317  18.298  0.00  0.00    +0.000 A 
ATOM     17  C   UNL     1      -0.496  12.052  18.886  0.00  0.00    +0.000 A 
ATOM     18 CL   UNL     1      -1.283  10.732  18.094  0.00  0.00    +0.000 Cl
ENDBRANCH  10  11
ENDBRANCH   7   9
ENDBRANCH   4   7
BRANCH   1  19
ATOM     19  O   UNL     1       3.608   4.117  17.981  0.00  0.00    +0.000 OA
BRANCH  19  22
ATOM     20  C   UNL     1       6.529   4.515  15.798  0.00  0.00    +0.000 A 
ATOM     21  C   UNL     1       5.208   4.283  16.149  0.00  0.00    +0.000 A 
ATOM     22  C   UNL     1       4.880   4.318  17.496  0.00  0.00    +0.000 A 
ATOM     23  C   UNL     1       5.884   4.495  18.445  0.00  0.00    +0.000 A 
ATOM     24  C   UNL     1       7.184   4.686  18.001  0.00  0.00    +0.000 A 
ATOM     25  N   UNL     1       7.535   4.712  16.697  0.00  0.00    +0.000 NA
BRANCH  20  28
ATOM     26  C   UNL     1       6.602   3.537  12.148  0.00  0.00    +0.000 C 
ATOM     27  N   UNL     1       6.334   3.609  13.557  0.00  0.00    +0.000 N 
ATOM     28  C   UNL     1       6.893   4.588  14.348  0.00  0.00    +0.000 C 
ATOM     29  O   UNL     1       7.645   5.461  13.924  0.00  0.00    +0.000 OA
ATOM     30  H   UNL     1       5.741   2.925  14.019  0.00  0.00    +0.000 HD
ENDBRANCH  20  28
ENDBRANCH  19  22
ENDBRANCH   1  19
TORSDOF 6
ENDMDL
MODEL 5
REMARK VINA RESULT:      -8.5      1.316      1.851
REMARK  Name = 
REMARK  7 active torsions:
REMARK  status: ('A' for Active; 'I' for Inactive)
REMARK    1  A    between atoms: C_1  and  N_2
REMARK    2  A    between atoms: C_3  and  C_5
REMARK    3  A    between atoms: C_7  and  O_8
REMARK    4  A    between atoms: O_8  and  C_9
REMARK    5  A    between atoms: C_12  and  C_13
REMARK    6  A    between atoms: C_13  and  C_15
REMARK    7  A    between atoms: C_16  and  C_17
REMARK                            x       y       z     vdW  Elec       q    Type
REMARK                         _______ _______ _______ _____ _____    ______ ____
ROOT
ATOM      1  C   UNL     1       2.803   6.623  18.838  0.00  0.00    +0.000 A 
ATOM      2  C   UNL     1       2.817   7.479  17.736  0.00  0.00    +0.000 A 
ATOM      3  C   UNL     1       2.176   8.720  17.797  0.00  0.00    +0.000 A 
ATOM      4  C   UNL     1       1.524   9.122  18.971  0.00  0.00    +0.000 A 
ATOM      5  C   UNL     1       1.491   8.255  20.068  0.00  0.00    +0.000 A 
ATOM      6  C   UNL     1       2.111   7.002  19.994  0.00  0.00    +0.000 A 
ENDROOT
BRANCH   4   7
ATOM      7  C   UNL     1       0.842  10.444  18.981  0.00  0.00    +0.000 C 
ATOM      8  O   UNL     1       1.478  11.462  19.232  0.00  0.00    +0.000 OA
BRANCH   7   9
ATOM      9  C   UNL     1      -0.628  10.475  18.743  0.00  0.00    +0.000 C 
ATOM     10  C   UNL     1      -1.234  11.644  18.496  0.00  0.00    +0.000 C 
BRANCH  10  11
ATOM     11  C   UNL     1      -2.692  11.732  18.354  0.00  0.00    +0.000 A 
ATOM     12  C   UNL     1      -3.252  11.265  17.155  0.00  0.00    +0.000 A 
ATOM     13  C   UNL     1      -4.629  11.336  16.941  0.00  0.00    +0.000 A 
ATOM     14  C   UNL     1      -5.456  11.872  17.925  0.00  0.00    +0.000 A 
ATOM     15 CL   UNL     1      -7.153  11.959  17.658  0.00  0.00    +0.000 Cl
ATOM     16  C   UNL     1      -4.918  12.341  19.123  0.00  0.00    +0.000 A 
ATOM     17  C   UNL     1      -3.538  12.272  19.335  0.00  0.00    +0.000 A 
ATOM     18 CL   UNL     1      -2.921  12.876  20.834  0.00  0.00    +0.000 Cl
ENDBRANCH  10  11
ENDBRANCH   7   9
ENDBRANCH   4   7
BRANCH   1  19
ATOM     19  O   UNL     1       3.422   5.405  18.660  0.00  0.00    +0.000 OA
BRANCH  19  22
ATOM     20  C   UNL     1       6.375   5.078  16.506  0.00  0.00    +0.000 A 
ATOM     21  C   UNL     1       5.033   5.090  16.856  0.00  0.00    +0.000 A 
ATOM     22  C   UNL     1       4.711   5.352  18.180  0.00  0.00    +0.000 A 
ATOM     23  C   UNL     1       5.729   5.507  19.118  0.00  0.00    +0.000 A 
ATOM     24  C   UNL     1       7.043   5.446  18.681  0.00  0.00    +0.000 A 
ATOM     25  N   UNL     1       7.397   5.247  17.393  0.00  0.00    +0.000 NA
BRANCH  20  28
ATOM     26  C   UNL     1       6.153   3.796  12.958  0.00  0.00    +0.000 C 
ATOM     27  N   UNL     1       5.916   4.076  14.347  0.00  0.00    +0.000 N 
ATOM     28  C   UNL     1       6.748   4.903  15.068  0.00  0.00    +0.000 C 
ATOM     29  O   UNL     1       7.734   5.460  14.594  0.00  0.00    +0.000 OA
ATOM     30  H   UNL     1       5.138   3.652  14.847  0.00  0.00    +0.000 HD
ENDBRANCH  20  28
ENDBRANCH  19  22
ENDBRANCH   1  19
TORSDOF 6
ENDMDL
MODEL 6
REMARK VINA RESULT:      -8.4      1.878      2.524
REMARK  Name = 
REMARK  7 active torsions:
REMARK  status: ('A' for Active; 'I' for Inactive)
REMARK    1  A    between atoms: C_1  and  N_2
REMARK    2  A    between atoms: C_3  and  C_5
REMARK    3  A    between atoms: C_7  and  O_8
REMARK    4  A    between atoms: O_8  and  C_9
REMARK    5  A    between atoms: C_12  and  C_13
REMARK    6  A    between atoms: C_13  and  C_15
REMARK    7  A    between atoms: C_16  and  C_17
REMARK                            x       y       z     vdW  Elec       q    Type
REMARK                         _______ _______ _______ _____ _____    ______ ____
ROOT
ATOM      1  C   UNL     1       3.065   5.380  18.677  0.00  0.00    +0.000 A 
ATOM      2  C   UNL     1       2.490   5.182  19.934  0.00  0.00    +0.000 A 
ATOM      3  C   UNL     1       1.852   6.236  20.592  0.00  0.00    +0.000 A 
ATOM      4  C   UNL     1       1.772   7.500  19.991  0.00  0.00    +0.000 A 
ATOM      5  C   UNL     1       2.366   7.705  18.742  0.00  0.00    +0.000 A 
ATOM      6  C   UNL     1       3.028   6.652  18.097  0.00  0.00    +0.000 A 
ENDROOT
BRANCH   4   7
ATOM      7  C   UNL     1       1.097   8.595  20.740  0.00  0.00    +0.000 C 
ATOM      8  O   UNL     1       0.478   8.345  21.769  0.00  0.00    +0.000 OA
BRANCH   7   9
ATOM      9  C   UNL     1       1.146   9.968  20.166  0.00  0.00    +0.000 C 
ATOM     10  C   UNL     1       0.502  10.967  20.785  0.00  0.00    +0.000 C 
BRANCH  10  11
ATOM     11  C   UNL     1       0.444  12.313  20.202  0.00  0.00    +0.000 A 
ATOM     12  C   UNL     1       1.640  12.854  19.707  0.00  0.00    +0.000 A 
ATOM     13  C   UNL     1       1.664  14.137  19.158  0.00  0.00    +0.000 A 
ATOM     14  C   UNL     1       0.492  14.886  19.098  0.00  0.00    +0.000 A 
ATOM     15 CL   UNL     1       0.526  16.467  18.421  0.00  0.00    +0.000 Cl
ATOM     16  C   UNL     1      -0.707  14.365  19.584  0.00  0.00    +0.000 A 
ATOM     17  C   UNL     1      -0.729  13.082  20.137  0.00  0.00    +0.000 A 
ATOM     18 CL   UNL     1      -2.239  12.488  20.735  0.00  0.00    +0.000 Cl
ENDBRANCH  10  11
ENDBRANCH   7   9
ENDBRANCH   4   7
BRANCH   1  19
ATOM     19  O   UNL     1       3.710   4.290  18.134  0.00  0.00    +0.000 OA
BRANCH  19  22
ATOM     20  C   UNL     1       6.575   4.530  15.854  0.00  0.00    +0.000 A 
ATOM     21  C   UNL     1       5.257   4.357  16.250  0.00  0.00    +0.000 A 
ATOM     22  C   UNL     1       4.973   4.432  17.606  0.00  0.00    +0.000 A 
ATOM     23  C   UNL     1       6.013   4.588  18.519  0.00  0.00    +0.000 A 
ATOM     24  C   UNL     1       7.304   4.720  18.032  0.00  0.00    +0.000 A 
ATOM     25  N   UNL     1       7.615   4.707  16.718  0.00  0.00    +0.000 NA
BRANCH  20  28
ATOM     26  C   UNL     1       6.477   3.492  12.221  0.00  0.00    +0.000 C 
ATOM     27  N   UNL     1       6.259   3.601  13.637  0.00  0.00    +0.000 N 
ATOM     28  C   UNL     1       6.895   4.561  14.393  0.00  0.00    +0.000 C 
ATOM     29  O   UNL     1       7.679   5.384  13.930  0.00  0.00    +0.000 OA
ATOM     30  H   UNL     1       5.644   2.958  14.129  0.00  0.00    +0.000 HD
ENDBRANCH  20  28
ENDBRANCH  19  22
ENDBRANCH   1  19
TORSDOF 6
ENDMDL
MODEL 7
REMARK VINA RESULT:      -8.4      2.438      2.924
REMARK  Name = 
REMARK  7 active torsions:
REMARK  status: ('A' for Active; 'I' for Inactive)
REMARK    1  A    between atoms: C_1  and  N_2
REMARK    2  A    between atoms: C_3  and  C_5
REMARK    3  A    between atoms: C_7  and  O_8
REMARK    4  A    between atoms: O_8  and  C_9
REMARK    5  A    between atoms: C_12  and  C_13
REMARK    6  A    between atoms: C_13  and  C_15
REMARK    7  A    between atoms: C_16  and  C_17
REMARK                            x       y       z     vdW  Elec       q    Type
REMARK                         _______ _______ _______ _____ _____    ______ ____
ROOT
ATOM      1  C   UNL     1       3.159   5.056  18.911  0.00  0.00    +0.000 A 
ATOM      2  C   UNL     1       3.099   6.296  18.272  0.00  0.00    +0.000 A 
ATOM      3  C   UNL     1       2.415   7.362  18.862  0.00  0.00    +0.000 A 
ATOM      4  C   UNL     1       1.792   7.200  20.107  0.00  0.00    +0.000 A 
ATOM      5  C   UNL     1       1.832   5.952  20.737  0.00  0.00    +0.000 A 
ATOM      6  C   UNL     1       2.496   4.879  20.130  0.00  0.00    +0.000 A 
ENDROOT
BRANCH   4   7
ATOM      7  C   UNL     1       1.061   8.360  20.686  0.00  0.00    +0.000 C 
ATOM      8  O   UNL     1       0.182   8.178  21.521  0.00  0.00    +0.000 OA
BRANCH   7   9
ATOM      9  C   UNL     1       1.386   9.719  20.171  0.00  0.00    +0.000 C 
ATOM     10  C   UNL     1       0.762  10.788  20.685  0.00  0.00    +0.000 C 
BRANCH  10  11
ATOM     11  C   UNL     1       0.982  12.133  20.141  0.00  0.00    +0.000 A 
ATOM     12  C   UNL     1       1.710  12.235  18.946  0.00  0.00    +0.000 A 
ATOM     13  C   UNL     1       1.975  13.483  18.381  0.00  0.00    +0.000 A 
ATOM     14  C   UNL     1       1.512  14.638  19.006  0.00  0.00    +0.000 A 
ATOM     15 CL   UNL     1       1.842  16.174  18.308  0.00  0.00    +0.000 Cl
ATOM     16  C   UNL     1       0.787  14.557  20.194  0.00  0.00    +0.000 A 
ATOM     17  C   UNL     1       0.524  13.307  20.761  0.00  0.00    +0.000 A 
ATOM     18 CL   UNL     1      -0.371  13.264  22.240  0.00  0.00    +0.000 Cl
ENDBRANCH  10  11
ENDBRANCH   7   9
ENDBRANCH   4   7
BRANCH   1  19
ATOM     19  O   UNL     1       3.816   4.059  18.225  0.00  0.00    +0.000 OA
BRANCH  19  22
ATOM     20  C   UNL     1       6.605   4.521  15.884  0.00  0.00    +0.000 A 
ATOM     21  C   UNL     1       5.315   4.237  16.309  0.00  0.00    +0.000 A 
ATOM     22  C   UNL     1       5.052   4.305  17.669  0.00  0.00    +0.000 A 
ATOM     23  C   UNL     1       6.090   4.566  18.560  0.00  0.00    +0.000 A 
ATOM     24  C   UNL     1       7.355   4.806  18.045  0.00  0.00    +0.000 A 
ATOM     25  N   UNL     1       7.641   4.802  16.725  0.00  0.00    +0.000 NA
BRANCH  20  28
ATOM     26  C   UNL     1       6.459   3.479  12.255  0.00  0.00    +0.000 C 
ATOM     27  N   UNL     1       6.268   3.583  13.675  0.00  0.00    +0.000 N 
ATOM     28  C   UNL     1       6.893   4.560  14.417  0.00  0.00    +0.000 C 
ATOM     29  O   UNL     1       7.644   5.404  13.937  0.00  0.00    +0.000 OA
ATOM     30  H   UNL     1       5.682   2.923  14.180  0.00  0.00    +0.000 HD
ENDBRANCH  20  28
ENDBRANCH  19  22
ENDBRANCH   1  19
TORSDOF 6
ENDMDL
MODEL 8
REMARK VINA RESULT:      -8.3      1.935      2.610
REMARK  Name = 
REMARK  7 active torsions:
REMARK  status: ('A' for Active; 'I' for Inactive)
REMARK    1  A    between atoms: C_1  and  N_2
REMARK    2  A    between atoms: C_3  and  C_5
REMARK    3  A    between atoms: C_7  and  O_8
REMARK    4  A    between atoms: O_8  and  C_9
REMARK    5  A    between atoms: C_12  and  C_13
REMARK    6  A    between atoms: C_13  and  C_15
REMARK    7  A    between atoms: C_16  and  C_17
REMARK                            x       y       z     vdW  Elec       q    Type
REMARK                         _______ _______ _______ _____ _____    ______ ____
ROOT
ATOM      1  C   UNL     1       2.331   7.005  18.985  0.00  0.00    +0.000 A 
ATOM      2  C   UNL     1       2.356   7.830  17.859  0.00  0.00    +0.000 A 
ATOM      3  C   UNL     1       1.882   9.143  17.936  0.00  0.00    +0.000 A 
ATOM      4  C   UNL     1       1.390   9.647  19.147  0.00  0.00    +0.000 A 
ATOM      5  C   UNL     1       1.344   8.814  20.270  0.00  0.00    +0.000 A 
ATOM      6  C   UNL     1       1.795   7.491  20.182  0.00  0.00    +0.000 A 
ENDROOT
BRANCH   4   7
ATOM      7  C   UNL     1       0.881  11.046  19.173  0.00  0.00    +0.000 C 
ATOM      8  O   UNL     1       1.665  11.983  19.277  0.00  0.00    +0.000 OA
BRANCH   7   9
ATOM      9  C   UNL     1      -0.593  11.255  19.137  0.00  0.00    +0.000 C 
ATOM     10  C   UNL     1      -1.265  11.032  17.999  0.00  0.00    +0.000 C 
BRANCH  10  11
ATOM     11  C   UNL     1      -2.700  11.318  17.894  0.00  0.00    +0.000 A 
ATOM     12  C   UNL     1      -3.351  11.788  19.044  0.00  0.00    +0.000 A 
ATOM     13  C   UNL     1      -4.719  12.061  19.024  0.00  0.00    +0.000 A 
ATOM     14  C   UNL     1      -5.446  11.868  17.852  0.00  0.00    +0.000 A 
ATOM     15 CL   UNL     1      -7.132  12.205  17.830  0.00  0.00    +0.000 Cl
ATOM     16  C   UNL     1      -4.817  11.403  16.698  0.00  0.00    +0.000 A 
ATOM     17  C   UNL     1      -3.447  11.127  16.720  0.00  0.00    +0.000 A 
ATOM     18 CL   UNL     1      -2.718  10.542  15.265  0.00  0.00    +0.000 Cl
ENDBRANCH  10  11
ENDBRANCH   7   9
ENDBRANCH   4   7
BRANCH   1  19
ATOM     19  O   UNL     1       2.776   5.715  18.792  0.00  0.00    +0.000 OA
BRANCH  19  22
ATOM     20  C   UNL     1       5.683   5.000  16.670  0.00  0.00    +0.000 A 
ATOM     21  C   UNL     1       4.351   5.194  17.005  0.00  0.00    +0.000 A 
ATOM     22  C   UNL     1       4.051   5.489  18.327  0.00  0.00    +0.000 A 
ATOM     23  C   UNL     1       5.068   5.497  19.278  0.00  0.00    +0.000 A 
ATOM     24  C   UNL     1       6.368   5.260  18.856  0.00  0.00    +0.000 A 
ATOM     25  N   UNL     1       6.707   5.022  17.570  0.00  0.00    +0.000 NA
BRANCH  20  28
ATOM     26  C   UNL     1       7.751   5.181  13.513  0.00  0.00    +0.000 C 
ATOM     27  N   UNL     1       7.270   5.295  14.862  0.00  0.00    +0.000 N 
ATOM     28  C   UNL     1       6.046   4.784  15.235  0.00  0.00    +0.000 C 
ATOM     29  O   UNL     1       5.287   4.202  14.467  0.00  0.00    +0.000 OA
ATOM     30  H   UNL     1       7.808   5.776  15.578  0.00  0.00    +0.000 HD
ENDBRANCH  20  28
ENDBRANCH  19  22
ENDBRANCH   1  19
TORSDOF 6
ENDMDL
MODEL 9
REMARK VINA RESULT:      -8.3      5.122      9.668
REMARK  Name = 
REMARK  7 active torsions:
REMARK  status: ('A' for Active; 'I' for Inactive)
REMARK    1  A    between atoms: C_1  and  N_2
REMARK    2  A    between atoms: C_3  and  C_5
REMARK    3  A    between atoms: C_7  and  O_8
REMARK    4  A    between atoms: O_8  and  C_9
REMARK    5  A    between atoms: C_12  and  C_13
REMARK    6  A    between atoms: C_13  and  C_15
REMARK    7  A    between atoms: C_16  and  C_17
REMARK                            x       y       z     vdW  Elec       q    Type
REMARK                         _______ _______ _______ _____ _____    ______ ____
ROOT
ATOM      1  C   UNL     1       1.136   9.729  19.645  0.00  0.00    +0.000 A 
ATOM      2  C   UNL     1       1.762   9.212  18.510  0.00  0.00    +0.000 A 
ATOM      3  C   UNL     1       2.275   7.912  18.517  0.00  0.00    +0.000 A 
ATOM      4  C   UNL     1       2.153   7.110  19.661  0.00  0.00    +0.000 A 
ATOM      5  C   UNL     1       1.546   7.636  20.806  0.00  0.00    +0.000 A 
ATOM      6  C   UNL     1       1.058   8.949  20.803  0.00  0.00    +0.000 A 
ENDROOT
BRANCH   4   7
ATOM      7  C   UNL     1       2.730   5.739  19.625  0.00  0.00    +0.000 C 
ATOM      8  O   UNL     1       2.683   5.026  20.622  0.00  0.00    +0.000 OA
BRANCH   7   9
ATOM      9  C   UNL     1       3.412   5.300  18.376  0.00  0.00    +0.000 C 
ATOM     10  C   UNL     1       4.673   5.688  18.139  0.00  0.00    +0.000 C 
BRANCH  10  11
ATOM     11  C   UNL     1       5.347   5.359  16.878  0.00  0.00    +0.000 A 
ATOM     12  C   UNL     1       4.646   4.563  15.960  0.00  0.00    +0.000 A 
ATOM     13  C   UNL     1       5.232   4.192  14.749  0.00  0.00    +0.000 A 
ATOM     14  C   UNL     1       6.523   4.618  14.447  0.00  0.00    +0.000 A 
ATOM     15 CL   UNL     1       7.243   4.159  12.954  0.00  0.00    +0.000 Cl
ATOM     16  C   UNL     1       7.236   5.410  15.346  0.00  0.00    +0.000 A 
ATOM     17  C   UNL     1       6.649   5.777  16.560  0.00  0.00    +0.000 A 
ATOM     18 CL   UNL     1       7.580   6.751  17.644  0.00  0.00    +0.000 Cl
ENDBRANCH  10  11
ENDBRANCH   7   9
ENDBRANCH   4   7
BRANCH   1  19
ATOM     19  O   UNL     1       0.709  11.036  19.551  0.00  0.00    +0.000 OA
BRANCH  19  22
ATOM     20  C   UNL     1      -2.595  11.382  17.991  0.00  0.00    +0.000 A 
ATOM     21  C   UNL     1      -1.248  11.069  18.095  0.00  0.00    +0.000 A 
ATOM     22  C   UNL     1      -0.618  11.310  19.307  0.00  0.00    +0.000 A 
ATOM     23  C   UNL     1      -1.322  11.928  20.338  0.00  0.00    +0.000 A 
ATOM     24  C   UNL     1      -2.659  12.235  20.131  0.00  0.00    +0.000 A 
ATOM     25  N   UNL     1      -3.321  11.968  18.985  0.00  0.00    +0.000 NA
BRANCH  20  28
ATOM     26  C   UNL     1      -3.085  10.201  14.435  0.00  0.00    +0.000 C 
ATOM     27  N   UNL     1      -2.532  10.560  15.711  0.00  0.00    +0.000 N 
ATOM     28  C   UNL     1      -3.325  11.036  16.732  0.00  0.00    +0.000 C 
ATOM     29  O   UNL     1      -4.540  11.185  16.639  0.00  0.00    +0.000 OA
ATOM     30  H   UNL     1      -1.534  10.496  15.892  0.00  0.00    +0.000 HD
ENDBRANCH  20  28
ENDBRANCH  19  22
ENDBRANCH   1  19
TORSDOF 6
ENDMDL
