MODEL 1
REMARK VINA RESULT:      -9.7      0.000      0.000
REMARK  Name = 
REMARK  6 active torsions:
REMARK  status: ('A' for Active; 'I' for Inactive)
REMARK    1  A    between atoms: N_3  and  C_4
REMARK    2  A    between atoms: C_7  and  C_8
REMARK    3  A    between atoms: N_14  and  C_15
REMARK    4  A    between atoms: C_24  and  O_25
REMARK    5  A    between atoms: O_25  and  C_26
REMARK    6  A    between atoms: C_26  and  C_27
REMARK                            x       y       z     vdW  Elec       q    Type
REMARK                         _______ _______ _______ _____ _____    ______ ____
ROOT
ATOM      1  C   UNL     1       5.860   4.667  16.783  0.00  0.00    +0.000 A 
ATOM      2  C   UNL     1       6.923   5.202  16.041  0.00  0.00    +0.000 A 
ATOM      3  C   UNL     1       7.045   4.960  14.673  0.00  0.00    +0.000 A 
ATOM      4  N   UNL     1       8.019   5.543  13.957  0.00  0.00    +0.000 NA
ATOM      5  C   UNL     1       8.066   5.254  12.643  0.00  0.00    +0.000 A 
ATOM      6  N   UNL     1       7.267   4.399  11.993  0.00  0.00    +0.000 NA
ATOM      7  C   UNL     1       6.308   3.830  12.734  0.00  0.00    +0.000 A 
ATOM      8  C   UNL     1       6.119   4.100  14.079  0.00  0.00    +0.000 A 
ATOM      9  C   UNL     1       5.034   3.584  14.803  0.00  0.00    +0.000 A 
ATOM     10  C   UNL     1       4.846   3.951  16.134  0.00  0.00    +0.000 A 
ENDROOT
BRANCH   1  14
ATOM     11  O   UNL     1       4.589   5.569  19.956  0.00  0.00    +0.000 OA
ATOM     12  C   UNL     1       4.725   5.706  18.739  0.00  0.00    +0.000 C 
ATOM     13  N   UNL     1       3.960   6.517  17.937  0.00  0.00    +0.000 N 
ATOM     14  N   UNL     1       5.734   4.989  18.144  0.00  0.00    +0.000 N 
ATOM     15  H   UNL     1       3.967   6.312  16.951  0.00  0.00    +0.000 HD
ATOM     16  H   UNL     1       6.080   4.294  18.796  0.00  0.00    +0.000 HD
BRANCH  13  17
ATOM     17  C   UNL     1       2.972   7.418  18.404  0.00  0.00    +0.000 A 
ATOM     18  C   UNL     1       2.395   7.308  19.675  0.00  0.00    +0.000 A 
ATOM     19  C   UNL     1       1.394   8.190  20.097  0.00  0.00    +0.000 A 
ATOM     20  C   UNL     1       0.939   9.211  19.252  0.00  0.00    +0.000 A 
ATOM     21  C   UNL     1       1.537   9.344  17.987  0.00  0.00    +0.000 A 
ATOM     22  C   UNL     1       2.555   8.467  17.576  0.00  0.00    +0.000 A 
BRANCH  20  23
ATOM     23  C   UNL     1      -0.170  10.137  19.690  0.00  0.00    +0.000 C 
ATOM     24  F   UNL     1       0.211  11.442  19.782  0.00  0.00    +0.000 F 
ATOM     25  F   UNL     1      -1.232  10.122  18.837  0.00  0.00    +0.000 F 
ATOM     26  F   UNL     1      -0.671   9.811  20.913  0.00  0.00    +0.000 F 
ENDBRANCH  20  23
ENDBRANCH  13  17
ENDBRANCH   1  14
BRANCH  10  27
ATOM     27  O   UNL     1       3.684   3.677  16.821  0.00  0.00    +0.000 OA
BRANCH  27  28
ATOM     28  C   UNL     1       3.719   2.423  17.527  0.00  0.00    +0.000 C 
BRANCH  28  29
ATOM     29  C   UNL     1       2.922   2.428  18.813  0.00  0.00    +0.000 A 
ATOM     30  C   UNL     1       3.610   2.348  20.039  0.00  0.00    +0.000 A 
ATOM     31  C   UNL     1       2.918   2.459  21.245  0.00  0.00    +0.000 A 
ATOM     32  C   UNL     1       1.544   2.651  21.228  0.00  0.00    +0.000 A 
ATOM     33  F   UNL     1       0.881   2.779  22.387  0.00  0.00    +0.000 F 
ATOM     34  C   UNL     1       0.847   2.730  20.027  0.00  0.00    +0.000 A 
ATOM     35  C   UNL     1       1.537   2.622  18.817  0.00  0.00    +0.000 A 
ENDBRANCH  28  29
ENDBRANCH  27  28
ENDBRANCH  10  27
TORSDOF 6
ENDMDL
MODEL 2
REMARK VINA RESULT:      -9.7      0.169      1.096
REMARK  Name = 
REMARK  6 active torsions:
REMARK  status: ('A' for Active; 'I' for Inactive)
REMARK    1  A    between atoms: N_3  and  C_4
REMARK    2  A    between atoms: C_7  and  C_8
REMARK    3  A    between atoms: N_14  and  C_15
REMARK    4  A    between atoms: C_24  and  O_25
REMARK    5  A    between atoms: O_25  and  C_26
REMARK    6  A    between atoms: C_26  and  C_27
REMARK                            x       y       z     vdW  Elec       q    Type
REMARK                         _______ _______ _______ _____ _____    ______ ____
ROOT
ATOM      1  C   UNL     1       5.863   4.676  16.793  0.00  0.00    +0.000 A 
ATOM      2  C   UNL     1       6.925   5.209  16.046  0.00  0.00    +0.000 A 
ATOM      3  C   UNL     1       7.046   4.960  14.680  0.00  0.00    +0.000 A 
ATOM      4  N   UNL     1       8.018   5.542  13.960  0.00  0.00    +0.000 NA
ATOM      5  C   UNL     1       8.065   5.245  12.647  0.00  0.00    +0.000 A 
ATOM      6  N   UNL     1       7.268   4.385  12.003  0.00  0.00    +0.000 NA
ATOM      7  C   UNL     1       6.311   3.817  12.748  0.00  0.00    +0.000 A 
ATOM      8  C   UNL     1       6.122   4.094  14.091  0.00  0.00    +0.000 A 
ATOM      9  C   UNL     1       5.040   3.579  14.819  0.00  0.00    +0.000 A 
ATOM     10  C   UNL     1       4.852   3.953  16.148  0.00  0.00    +0.000 A 
ENDROOT
BRANCH   1  14
ATOM     11  O   UNL     1       4.592   5.584  19.963  0.00  0.00    +0.000 OA
ATOM     12  C   UNL     1       4.722   5.714  18.745  0.00  0.00    +0.000 C 
ATOM     13  N   UNL     1       3.946   6.512  17.940  0.00  0.00    +0.000 N 
ATOM     14  N   UNL     1       5.738   5.005  18.151  0.00  0.00    +0.000 N 
ATOM     15  H   UNL     1       3.953   6.301  16.955  0.00  0.00    +0.000 HD
ATOM     16  H   UNL     1       6.094   4.319  18.807  0.00  0.00    +0.000 HD
BRANCH  13  17
ATOM     17  C   UNL     1       2.950   7.405  18.404  0.00  0.00    +0.000 A 
ATOM     18  C   UNL     1       2.475   8.470  17.629  0.00  0.00    +0.000 A 
ATOM     19  C   UNL     1       1.516   9.359  18.126  0.00  0.00    +0.000 A 
ATOM     20  C   UNL     1       1.005   9.207  19.421  0.00  0.00    +0.000 A 
ATOM     21  C   UNL     1       1.455   8.122  20.192  0.00  0.00    +0.000 A 
ATOM     22  C   UNL     1       2.405   7.221  19.681  0.00  0.00    +0.000 A 
BRANCH  20  23
ATOM     23  C   UNL     1       0.001  10.190  19.974  0.00  0.00    +0.000 C 
ATOM     24  F   UNL     1      -0.646   9.744  21.087  0.00  0.00    +0.000 F 
ATOM     25  F   UNL     1       0.570  11.376  20.328  0.00  0.00    +0.000 F 
ATOM     26  F   UNL     1      -0.977  10.498  19.078  0.00  0.00    +0.000 F 
ENDBRANCH  20  23
ENDBRANCH  13  17
ENDBRANCH   1  14
BRANCH  10  27
ATOM     27  O   UNL     1       3.691   3.680  16.838  0.00  0.00    +0.000 OA
BRANCH  27  28
ATOM     28  C   UNL     1       3.728   2.428  17.546  0.00  0.00    +0.000 C 
BRANCH  28  29
ATOM     29  C   UNL     1       2.921   2.430  18.826  0.00  0.00    +0.000 A 
ATOM     30  C   UNL     1       3.600   2.358  20.058  0.00  0.00    +0.000 A 
ATOM     31  C   UNL     1       2.897   2.467  21.258  0.00  0.00    +0.000 A 
ATOM     32  C   UNL     1       1.522   2.650  21.230  0.00  0.00    +0.000 A 
ATOM     33  F   UNL     1       0.849   2.776  22.383  0.00  0.00    +0.000 F 
ATOM     34  C   UNL     1       0.834   2.722  20.023  0.00  0.00    +0.000 A 
ATOM     35  C   UNL     1       1.535   2.615  18.819  0.00  0.00    +0.000 A 
ENDBRANCH  28  29
ENDBRANCH  27  28
ENDBRANCH  10  27
TORSDOF 6
ENDMDL
MODEL 3
REMARK VINA RESULT:      -9.7      0.172      1.199
REMARK  Name = 
REMARK  6 active torsions:
REMARK  status: ('A' for Active; 'I' for Inactive)
REMARK    1  A    between atoms: N_3  and  C_4
REMARK    2  A    between atoms: C_7  and  C_8
REMARK    3  A    between atoms: N_14  and  C_15
REMARK    4  A    between atoms: C_24  and  O_25
REMARK    5  A    between atoms: O_25  and  C_26
REMARK    6  A    between atoms: C_26  and  C_27
REMARK                            x       y       z     vdW  Elec       q    Type
REMARK                         _______ _______ _______ _____ _____    ______ ____
ROOT
ATOM      1  C   UNL     1       5.892   4.729  16.755  0.00  0.00    +0.000 A 
ATOM      2  C   UNL     1       6.951   5.244  15.991  0.00  0.00    +0.000 A 
ATOM      3  C   UNL     1       7.057   4.976  14.628  0.00  0.00    +0.000 A 
ATOM      4  N   UNL     1       8.026   5.541  13.891  0.00  0.00    +0.000 NA
ATOM      5  C   UNL     1       8.058   5.227  12.582  0.00  0.00    +0.000 A 
ATOM      6  N   UNL     1       7.247   4.365  11.956  0.00  0.00    +0.000 NA
ATOM      7  C   UNL     1       6.293   3.815  12.717  0.00  0.00    +0.000 A 
ATOM      8  C   UNL     1       6.119   4.111  14.059  0.00  0.00    +0.000 A 
ATOM      9  C   UNL     1       5.040   3.615  14.803  0.00  0.00    +0.000 A 
ATOM     10  C   UNL     1       4.868   4.007  16.129  0.00  0.00    +0.000 A 
ENDROOT
BRANCH   1  14
ATOM     11  O   UNL     1       4.656   5.662  19.932  0.00  0.00    +0.000 OA
ATOM     12  C   UNL     1       4.765   5.777  18.710  0.00  0.00    +0.000 C 
ATOM     13  N   UNL     1       3.962   6.549  17.906  0.00  0.00    +0.000 N 
ATOM     14  N   UNL     1       5.783   5.076  18.110  0.00  0.00    +0.000 N 
ATOM     15  H   UNL     1       3.957   6.323  16.925  0.00  0.00    +0.000 HD
ATOM     16  H   UNL     1       6.161   4.406  18.770  0.00  0.00    +0.000 HD
BRANCH  13  17
ATOM     17  C   UNL     1       2.957   7.431  18.373  0.00  0.00    +0.000 A 
ATOM     18  C   UNL     1       2.509   8.524  17.622  0.00  0.00    +0.000 A 
ATOM     19  C   UNL     1       1.540   9.402  18.123  0.00  0.00    +0.000 A 
ATOM     20  C   UNL     1       0.994   9.208  19.398  0.00  0.00    +0.000 A 
ATOM     21  C   UNL     1       1.418   8.095  20.143  0.00  0.00    +0.000 A 
ATOM     22  C   UNL     1       2.377   7.207  19.628  0.00  0.00    +0.000 A 
BRANCH  20  23
ATOM     23  C   UNL     1      -0.020  10.178  19.956  0.00  0.00    +0.000 C 
ATOM     24  F   UNL     1       0.456  11.447  20.097  0.00  0.00    +0.000 F 
ATOM     25  F   UNL     1      -1.129  10.285  19.173  0.00  0.00    +0.000 F 
ATOM     26  F   UNL     1      -0.469   9.813  21.189  0.00  0.00    +0.000 F 
ENDBRANCH  20  23
ENDBRANCH  13  17
ENDBRANCH   1  14
BRANCH  10  27
ATOM     27  O   UNL     1       3.712   3.753  16.834  0.00  0.00    +0.000 OA
BRANCH  27  28
ATOM     28  C   UNL     1       3.780   2.558  17.633  0.00  0.00    +0.000 C 
BRANCH  28  29
ATOM     29  C   UNL     1       3.027   2.658  18.941  0.00  0.00    +0.000 A 
ATOM     30  C   UNL     1       1.635   2.872  18.910  0.00  0.00    +0.000 A 
ATOM     31  C   UNL     1       0.893   2.861  20.091  0.00  0.00    +0.000 A 
ATOM     32  C   UNL     1       1.536   2.635  21.299  0.00  0.00    +0.000 A 
ATOM     33  F   UNL     1       0.820   2.603  22.433  0.00  0.00    +0.000 F 
ATOM     34  C   UNL     1       2.910   2.423  21.350  0.00  0.00    +0.000 A 
ATOM     35  C   UNL     1       3.656   2.432  20.169  0.00  0.00    +0.000 A 
ENDBRANCH  28  29
ENDBRANCH  27  28
ENDBRANCH  10  27
TORSDOF 6
ENDMDL
MODEL 4
REMARK VINA RESULT:      -8.6      3.254      5.960
REMARK  Name = 
REMARK  6 active torsions:
REMARK  status: ('A' for Active; 'I' for Inactive)
REMARK    1  A    between atoms: N_3  and  C_4
REMARK    2  A    between atoms: C_7  and  C_8
REMARK    3  A    between atoms: N_14  and  C_15
REMARK    4  A    between atoms: C_24  and  O_25
REMARK    5  A    between atoms: O_25  and  C_26
REMARK    6  A    between atoms: C_26  and  C_27
REMARK                            x       y       z     vdW  Elec       q    Type
REMARK                         _______ _______ _______ _____ _____    ______ ____
ROOT
ATOM      1  C   UNL     1       3.096   6.219  18.108  0.00  0.00    +0.000 A 
ATOM      2  C   UNL     1       2.598   6.073  19.412  0.00  0.00    +0.000 A 
ATOM      3  C   UNL     1       2.562   4.829  20.038  0.00  0.00    +0.000 A 
ATOM      4  N   UNL     1       2.161   4.714  21.314  0.00  0.00    +0.000 NA
ATOM      5  C   UNL     1       2.154   3.475  21.841  0.00  0.00    +0.000 A 
ATOM      6  N   UNL     1       2.458   2.341  21.199  0.00  0.00    +0.000 NA
ATOM      7  C   UNL     1       2.851   2.486  19.927  0.00  0.00    +0.000 A 
ATOM      8  C   UNL     1       2.962   3.714  19.297  0.00  0.00    +0.000 A 
ATOM      9  C   UNL     1       3.490   3.850  18.005  0.00  0.00    +0.000 A 
ATOM     10  C   UNL     1       3.653   5.117  17.447  0.00  0.00    +0.000 A 
ENDROOT
BRANCH   1  14
ATOM     11  O   UNL     1       2.979   9.709  17.565  0.00  0.00    +0.000 OA
ATOM     12  C   UNL     1       2.510   8.631  17.931  0.00  0.00    +0.000 C 
ATOM     13  N   UNL     1       1.375   8.469  18.688  0.00  0.00    +0.000 N 
ATOM     14  N   UNL     1       3.180   7.498  17.537  0.00  0.00    +0.000 N 
ATOM     15  H   UNL     1       1.274   7.588  19.166  0.00  0.00    +0.000 HD
ATOM     16  H   UNL     1       4.087   7.759  17.166  0.00  0.00    +0.000 HD
BRANCH  13  17
ATOM     17  C   UNL     1       0.498   9.515  19.066  0.00  0.00    +0.000 A 
ATOM     18  C   UNL     1       0.552  10.124  20.325  0.00  0.00    +0.000 A 
ATOM     19  C   UNL     1      -0.352  11.130  20.685  0.00  0.00    +0.000 A 
ATOM     20  C   UNL     1      -1.341  11.554  19.789  0.00  0.00    +0.000 A 
ATOM     21  C   UNL     1      -1.380  10.968  18.513  0.00  0.00    +0.000 A 
ATOM     22  C   UNL     1      -0.459   9.971  18.150  0.00  0.00    +0.000 A 
BRANCH  20  23
ATOM     23  C   UNL     1      -2.343  12.610  20.191  0.00  0.00    +0.000 C 
ATOM     24  F   UNL     1      -3.518  12.539  19.505  0.00  0.00    +0.000 F 
ATOM     25  F   UNL     1      -2.680  12.537  21.509  0.00  0.00    +0.000 F 
ATOM     26  F   UNL     1      -1.877  13.874  19.995  0.00  0.00    +0.000 F 
ENDBRANCH  20  23
ENDBRANCH  13  17
ENDBRANCH   1  14
BRANCH  10  27
ATOM     27  O   UNL     1       4.380   5.332  16.297  0.00  0.00    +0.000 OA
BRANCH  27  28
ATOM     28  C   UNL     1       5.725   4.826  16.368  0.00  0.00    +0.000 C 
BRANCH  28  29
ATOM     29  C   UNL     1       6.679   5.737  17.109  0.00  0.00    +0.000 A 
ATOM     30  C   UNL     1       6.820   7.070  16.678  0.00  0.00    +0.000 A 
ATOM     31  C   UNL     1       7.606   7.966  17.402  0.00  0.00    +0.000 A 
ATOM     32  C   UNL     1       8.247   7.535  18.554  0.00  0.00    +0.000 A 
ATOM     33  F   UNL     1       8.985   8.403  19.263  0.00  0.00    +0.000 F 
ATOM     34  C   UNL     1       8.121   6.223  18.996  0.00  0.00    +0.000 A 
ATOM     35  C   UNL     1       7.333   5.322  18.274  0.00  0.00    +0.000 A 
ENDBRANCH  28  29
ENDBRANCH  27  28
ENDBRANCH  10  27
TORSDOF 6
ENDMDL
MODEL 5
REMARK VINA RESULT:      -8.6      3.239      6.315
REMARK  Name = 
REMARK  6 active torsions:
REMARK  status: ('A' for Active; 'I' for Inactive)
REMARK    1  A    between atoms: N_3  and  C_4
REMARK    2  A    between atoms: C_7  and  C_8
REMARK    3  A    between atoms: N_14  and  C_15
REMARK    4  A    between atoms: C_24  and  O_25
REMARK    5  A    between atoms: O_25  and  C_26
REMARK    6  A    between atoms: C_26  and  C_27
REMARK                            x       y       z     vdW  Elec       q    Type
REMARK                         _______ _______ _______ _____ _____    ______ ____
ROOT
ATOM      1  C   UNL     1       3.085   6.331  18.074  0.00  0.00    +0.000 A 
ATOM      2  C   UNL     1       2.444   5.850  19.226  0.00  0.00    +0.000 A 
ATOM      3  C   UNL     1       2.819   4.642  19.811  0.00  0.00    +0.000 A 
ATOM      4  N   UNL     1       2.256   4.233  20.959  0.00  0.00    +0.000 NA
ATOM      5  C   UNL     1       2.674   3.053  21.456  0.00  0.00    +0.000 A 
ATOM      6  N   UNL     1       3.559   2.225  20.887  0.00  0.00    +0.000 NA
ATOM      7  C   UNL     1       4.100   2.659  19.742  0.00  0.00    +0.000 A 
ATOM      8  C   UNL     1       3.799   3.883  19.169  0.00  0.00    +0.000 A 
ATOM      9  C   UNL     1       4.469   4.366  18.035  0.00  0.00    +0.000 A 
ATOM     10  C   UNL     1       4.182   5.639  17.546  0.00  0.00    +0.000 A 
ENDROOT
BRANCH   1  14
ATOM     11  O   UNL     1       2.238   9.744  17.717  0.00  0.00    +0.000 OA
ATOM     12  C   UNL     1       2.136   8.627  18.225  0.00  0.00    +0.000 C 
ATOM     13  N   UNL     1       1.478   8.340  19.396  0.00  0.00    +0.000 N 
ATOM     14  N   UNL     1       2.726   7.584  17.553  0.00  0.00    +0.000 N 
ATOM     15  H   UNL     1       1.723   7.474  19.850  0.00  0.00    +0.000 HD
ATOM     16  H   UNL     1       3.334   7.953  16.831  0.00  0.00    +0.000 HD
BRANCH  13  17
ATOM     17  C   UNL     1       0.709   9.266  20.141  0.00  0.00    +0.000 A 
ATOM     18  C   UNL     1      -0.028  10.291  19.535  0.00  0.00    +0.000 A 
ATOM     19  C   UNL     1      -0.750  11.216  20.298  0.00  0.00    +0.000 A 
ATOM     20  C   UNL     1      -0.751  11.140  21.696  0.00  0.00    +0.000 A 
ATOM     21  C   UNL     1      -0.039  10.095  22.308  0.00  0.00    +0.000 A 
ATOM     22  C   UNL     1       0.670   9.159  21.537  0.00  0.00    +0.000 A 
BRANCH  20  23
ATOM     23  C   UNL     1      -1.496  12.162  22.522  0.00  0.00    +0.000 C 
ATOM     24  F   UNL     1      -2.449  12.840  21.824  0.00  0.00    +0.000 F 
ATOM     25  F   UNL     1      -2.142  11.607  23.585  0.00  0.00    +0.000 F 
ATOM     26  F   UNL     1      -0.673  13.114  23.042  0.00  0.00    +0.000 F 
ENDBRANCH  20  23
ENDBRANCH  13  17
ENDBRANCH   1  14
BRANCH  10  27
ATOM     27  O   UNL     1       4.963   6.262  16.597  0.00  0.00    +0.000 OA
BRANCH  27  28
ATOM     28  C   UNL     1       6.226   5.608  16.378  0.00  0.00    +0.000 C 
BRANCH  28  29
ATOM     29  C   UNL     1       6.403   5.084  14.970  0.00  0.00    +0.000 A 
ATOM     30  C   UNL     1       7.517   5.510  14.220  0.00  0.00    +0.000 A 
ATOM     31  C   UNL     1       7.770   4.965  12.962  0.00  0.00    +0.000 A 
ATOM     32  C   UNL     1       6.916   3.997  12.452  0.00  0.00    +0.000 A 
ATOM     33  F   UNL     1       7.172   3.458  11.251  0.00  0.00    +0.000 F 
ATOM     34  C   UNL     1       5.811   3.565  13.176  0.00  0.00    +0.000 A 
ATOM     35  C   UNL     1       5.555   4.107  14.438  0.00  0.00    +0.000 A 
ENDBRANCH  28  29
ENDBRANCH  27  28
ENDBRANCH  10  27
TORSDOF 6
ENDMDL
MODEL 6
REMARK VINA RESULT:      -8.6      3.275      6.361
REMARK  Name = 
REMARK  6 active torsions:
REMARK  status: ('A' for Active; 'I' for Inactive)
REMARK    1  A    between atoms: N_3  and  C_4
REMARK    2  A    between atoms: C_7  and  C_8
REMARK    3  A    between atoms: N_14  and  C_15
REMARK    4  A    between atoms: C_24  and  O_25
REMARK    5  A    between atoms: O_25  and  C_26
REMARK    6  A    between atoms: C_26  and  C_27
REMARK                            x       y       z     vdW  Elec       q    Type
REMARK                         _______ _______ _______ _____ _____    ______ ____
ROOT
ATOM      1  C   UNL     1       2.986   6.423  18.237  0.00  0.00    +0.000 A 
ATOM      2  C   UNL     1       2.387   5.986  19.428  0.00  0.00    +0.000 A 
ATOM      3  C   UNL     1       2.693   4.744  19.979  0.00  0.00    +0.000 A 
ATOM      4  N   UNL     1       2.178   4.372  21.161  0.00  0.00    +0.000 NA
ATOM      5  C   UNL     1       2.524   3.154  21.621  0.00  0.00    +0.000 A 
ATOM      6  N   UNL     1       3.291   2.259  20.988  0.00  0.00    +0.000 NA
ATOM      7  C   UNL     1       3.788   2.657  19.809  0.00  0.00    +0.000 A 
ATOM      8  C   UNL     1       3.557   3.909  19.266  0.00  0.00    +0.000 A 
ATOM      9  C   UNL     1       4.186   4.345  18.091  0.00  0.00    +0.000 A 
ATOM     10  C   UNL     1       3.979   5.644  17.629  0.00  0.00    +0.000 A 
ENDROOT
BRANCH   1  14
ATOM     11  O   UNL     1       2.278   9.876  17.975  0.00  0.00    +0.000 OA
ATOM     12  C   UNL     1       2.106   8.743  18.427  0.00  0.00    +0.000 C 
ATOM     13  N   UNL     1       1.366   8.432  19.541  0.00  0.00    +0.000 N 
ATOM     14  N   UNL     1       2.703   7.708  17.749  0.00  0.00    +0.000 N 
ATOM     15  H   UNL     1       1.552   7.540  19.971  0.00  0.00    +0.000 HD
ATOM     16  H   UNL     1       3.368   8.085  17.083  0.00  0.00    +0.000 HD
BRANCH  13  17
ATOM     17  C   UNL     1       0.582   9.354  20.276  0.00  0.00    +0.000 A 
ATOM     18  C   UNL     1      -0.200  10.337  19.656  0.00  0.00    +0.000 A 
ATOM     19  C   UNL     1      -0.937  11.259  20.408  0.00  0.00    +0.000 A 
ATOM     20  C   UNL     1      -0.908  11.224  21.808  0.00  0.00    +0.000 A 
ATOM     21  C   UNL     1      -0.149  10.221  22.434  0.00  0.00    +0.000 A 
ATOM     22  C   UNL     1       0.574   9.286  21.674  0.00  0.00    +0.000 A 
BRANCH  20  23
ATOM     23  C   UNL     1      -1.669  12.245  22.620  0.00  0.00    +0.000 C 
ATOM     24  F   UNL     1      -0.866  13.113  23.298  0.00  0.00    +0.000 F 
ATOM     25  F   UNL     1      -2.486  13.020  21.854  0.00  0.00    +0.000 F 
ATOM     26  F   UNL     1      -2.471  11.673  23.560  0.00  0.00    +0.000 F 
ENDBRANCH  20  23
ENDBRANCH  13  17
ENDBRANCH   1  14
BRANCH  10  27
ATOM     27  O   UNL     1       4.744   6.207  16.632  0.00  0.00    +0.000 OA
BRANCH  27  28
ATOM     28  C   UNL     1       6.069   5.652  16.546  0.00  0.00    +0.000 C 
BRANCH  28  29
ATOM     29  C   UNL     1       6.387   5.043  15.198  0.00  0.00    +0.000 A 
ATOM     30  C   UNL     1       5.472   4.134  14.630  0.00  0.00    +0.000 A 
ATOM     31  C   UNL     1       5.679   3.637  13.344  0.00  0.00    +0.000 A 
ATOM     32  C   UNL     1       6.792   4.046  12.624  0.00  0.00    +0.000 A 
ATOM     33  F   UNL     1       6.980   3.585  11.379  0.00  0.00    +0.000 F 
ATOM     34  C   UNL     1       7.707   4.941  13.168  0.00  0.00    +0.000 A 
ATOM     35  C   UNL     1       7.502   5.443  14.456  0.00  0.00    +0.000 A 
ENDBRANCH  28  29
ENDBRANCH  27  28
ENDBRANCH  10  27
TORSDOF 6
ENDMDL
MODEL 7
REMARK VINA RESULT:      -8.5      3.297      6.029
REMARK  Name = 
REMARK  6 active torsions:
REMARK  status: ('A' for Active; 'I' for Inactive)
REMARK    1  A    between atoms: N_3  and  C_4
REMARK    2  A    between atoms: C_7  and  C_8
REMARK    3  A    between atoms: N_14  and  C_15
REMARK    4  A    between atoms: C_24  and  O_25
REMARK    5  A    between atoms: O_25  and  C_26
REMARK    6  A    between atoms: C_26  and  C_27
REMARK                            x       y       z     vdW  Elec       q    Type
REMARK                         _______ _______ _______ _____ _____    ______ ____
ROOT
ATOM      1  C   UNL     1       3.077   6.304  18.102  0.00  0.00    +0.000 A 
ATOM      2  C   UNL     1       2.565   6.135  19.397  0.00  0.00    +0.000 A 
ATOM      3  C   UNL     1       2.579   4.890  20.024  0.00  0.00    +0.000 A 
ATOM      4  N   UNL     1       2.163   4.757  21.293  0.00  0.00    +0.000 NA
ATOM      5  C   UNL     1       2.208   3.519  21.822  0.00  0.00    +0.000 A 
ATOM      6  N   UNL     1       2.579   2.402  21.187  0.00  0.00    +0.000 NA
ATOM      7  C   UNL     1       2.986   2.565  19.922  0.00  0.00    +0.000 A 
ATOM      8  C   UNL     1       3.047   3.797  19.292  0.00  0.00    +0.000 A 
ATOM      9  C   UNL     1       3.590   3.958  18.009  0.00  0.00    +0.000 A 
ATOM     10  C   UNL     1       3.699   5.230  17.452  0.00  0.00    +0.000 A 
ENDROOT
BRANCH   1  14
ATOM     11  O   UNL     1       2.853   9.791  17.570  0.00  0.00    +0.000 OA
ATOM     12  C   UNL     1       2.425   8.701  17.952  0.00  0.00    +0.000 C 
ATOM     13  N   UNL     1       1.326   8.511  18.753  0.00  0.00    +0.000 N 
ATOM     14  N   UNL     1       3.107   7.585  17.530  0.00  0.00    +0.000 N 
ATOM     15  H   UNL     1       1.265   7.627  19.233  0.00  0.00    +0.000 HD
ATOM     16  H   UNL     1       3.992   7.868  17.124  0.00  0.00    +0.000 HD
BRANCH  13  17
ATOM     17  C   UNL     1       0.439   9.535  19.167  0.00  0.00    +0.000 A 
ATOM     18  C   UNL     1      -0.438  10.172  18.281  0.00  0.00    +0.000 A 
ATOM     19  C   UNL     1      -1.279  11.206  18.709  0.00  0.00    +0.000 A 
ATOM     20  C   UNL     1      -1.261  11.634  20.043  0.00  0.00    +0.000 A 
ATOM     21  C   UNL     1      -0.405  10.977  20.942  0.00  0.00    +0.000 A 
ATOM     22  C   UNL     1       0.423   9.927  20.511  0.00  0.00    +0.000 A 
BRANCH  20  23
ATOM     23  C   UNL     1      -2.137  12.778  20.496  0.00  0.00    +0.000 C 
ATOM     24  F   UNL     1      -2.132  12.969  21.845  0.00  0.00    +0.000 F 
ATOM     25  F   UNL     1      -1.764  13.970  19.953  0.00  0.00    +0.000 F 
ATOM     26  F   UNL     1      -3.443  12.604  20.153  0.00  0.00    +0.000 F 
ENDBRANCH  20  23
ENDBRANCH  13  17
ENDBRANCH   1  14
BRANCH  10  27
ATOM     27  O   UNL     1       4.435   5.481  16.314  0.00  0.00    +0.000 OA
BRANCH  27  28
ATOM     28  C   UNL     1       5.779   4.971  16.378  0.00  0.00    +0.000 C 
BRANCH  28  29
ATOM     29  C   UNL     1       6.734   5.870  17.133  0.00  0.00    +0.000 A 
ATOM     30  C   UNL     1       6.902   7.200  16.700  0.00  0.00    +0.000 A 
ATOM     31  C   UNL     1       7.690   8.086  17.434  0.00  0.00    +0.000 A 
ATOM     32  C   UNL     1       8.305   7.649  18.598  0.00  0.00    +0.000 A 
ATOM     33  F   UNL     1       9.045   8.507  19.316  0.00  0.00    +0.000 F 
ATOM     34  C   UNL     1       8.152   6.340  19.041  0.00  0.00    +0.000 A 
ATOM     35  C   UNL     1       7.363   5.449  18.309  0.00  0.00    +0.000 A 
ENDBRANCH  28  29
ENDBRANCH  27  28
ENDBRANCH  10  27
TORSDOF 6
ENDMDL
MODEL 8
REMARK VINA RESULT:      -8.5      4.387      6.963
REMARK  Name = 
REMARK  6 active torsions:
REMARK  status: ('A' for Active; 'I' for Inactive)
REMARK    1  A    between atoms: N_3  and  C_4
REMARK    2  A    between atoms: C_7  and  C_8
REMARK    3  A    between atoms: N_14  and  C_15
REMARK    4  A    between atoms: C_24  and  O_25
REMARK    5  A    between atoms: O_25  and  C_26
REMARK    6  A    between atoms: C_26  and  C_27
REMARK                            x       y       z     vdW  Elec       q    Type
REMARK                         _______ _______ _______ _____ _____    ______ ____
ROOT
ATOM      1  C   UNL     1       2.301   7.320  18.450  0.00  0.00    +0.000 A 
ATOM      2  C   UNL     1       2.227   6.169  17.650  0.00  0.00    +0.000 A 
ATOM      3  C   UNL     1       2.163   4.898  18.217  0.00  0.00    +0.000 A 
ATOM      4  N   UNL     1       2.009   3.810  17.445  0.00  0.00    +0.000 NA
ATOM      5  C   UNL     1       1.958   2.619  18.073  0.00  0.00    +0.000 A 
ATOM      6  N   UNL     1       2.099   2.413  19.388  0.00  0.00    +0.000 NA
ATOM      7  C   UNL     1       2.254   3.516  20.132  0.00  0.00    +0.000 A 
ATOM      8  C   UNL     1       2.256   4.798  19.607  0.00  0.00    +0.000 A 
ATOM      9  C   UNL     1       2.299   5.941  20.418  0.00  0.00    +0.000 A 
ATOM     10  C   UNL     1       2.217   7.208  19.843  0.00  0.00    +0.000 A 
ENDROOT
BRANCH   1  14
ATOM     11  O   UNL     1       1.547  10.658  17.565  0.00  0.00    +0.000 OA
ATOM     12  C   UNL     1       1.257   9.484  17.802  0.00  0.00    +0.000 C 
ATOM     13  N   UNL     1      -0.011   9.004  18.018  0.00  0.00    +0.000 N 
ATOM     14  N   UNL     1       2.295   8.586  17.844  0.00  0.00    +0.000 N 
ATOM     15  H   UNL     1      -0.082   8.118  18.492  0.00  0.00    +0.000 HD
ATOM     16  H   UNL     1       3.174   9.092  17.869  0.00  0.00    +0.000 HD
BRANCH  13  17
ATOM     17  C   UNL     1      -1.199   9.762  17.882  0.00  0.00    +0.000 A 
ATOM     18  C   UNL     1      -1.630  10.666  18.861  0.00  0.00    +0.000 A 
ATOM     19  C   UNL     1      -2.828  11.375  18.716  0.00  0.00    +0.000 A 
ATOM     20  C   UNL     1      -3.632  11.196  17.583  0.00  0.00    +0.000 A 
ATOM     21  C   UNL     1      -3.188  10.314  16.584  0.00  0.00    +0.000 A 
ATOM     22  C   UNL     1      -1.976   9.617  16.726  0.00  0.00    +0.000 A 
BRANCH  20  23
ATOM     23  C   UNL     1      -4.945  11.930  17.446  0.00  0.00    +0.000 C 
ATOM     24  F   UNL     1      -5.087  12.579  16.257  0.00  0.00    +0.000 F 
ATOM     25  F   UNL     1      -6.021  11.100  17.545  0.00  0.00    +0.000 F 
ATOM     26  F   UNL     1      -5.116  12.879  18.408  0.00  0.00    +0.000 F 
ENDBRANCH  20  23
ENDBRANCH  13  17
ENDBRANCH   1  14
BRANCH  10  27
ATOM     27  O   UNL     1       2.012   8.348  20.588  0.00  0.00    +0.000 OA
BRANCH  27  28
ATOM     28  C   UNL     1       0.884   8.254  21.477  0.00  0.00    +0.000 C 
BRANCH  28  29
ATOM     29  C   UNL     1       0.334   9.598  21.905  0.00  0.00    +0.000 A 
ATOM     30  C   UNL     1       0.796  10.759  21.255  0.00  0.00    +0.000 A 
ATOM     31  C   UNL     1       0.233  12.001  21.548  0.00  0.00    +0.000 A 
ATOM     32  C   UNL     1      -0.789  12.085  22.482  0.00  0.00    +0.000 A 
ATOM     33  F   UNL     1      -1.346  13.276  22.747  0.00  0.00    +0.000 F 
ATOM     34  C   UNL     1      -1.258  10.950  23.134  0.00  0.00    +0.000 A 
ATOM     35  C   UNL     1      -0.697   9.703  22.843  0.00  0.00    +0.000 A 
ENDBRANCH  28  29
ENDBRANCH  27  28
ENDBRANCH  10  27
TORSDOF 6
ENDMDL
MODEL 9
REMARK VINA RESULT:      -8.4      3.220      6.306
REMARK  Name = 
REMARK  6 active torsions:
REMARK  status: ('A' for Active; 'I' for Inactive)
REMARK    1  A    between atoms: N_3  and  C_4
REMARK    2  A    between atoms: C_7  and  C_8
REMARK    3  A    between atoms: N_14  and  C_15
REMARK    4  A    between atoms: C_24  and  O_25
REMARK    5  A    between atoms: O_25  and  C_26
REMARK    6  A    between atoms: C_26  and  C_27
REMARK                            x       y       z     vdW  Elec       q    Type
REMARK                         _______ _______ _______ _____ _____    ______ ____
ROOT
ATOM      1  C   UNL     1       3.086   6.619  18.190  0.00  0.00    +0.000 A 
ATOM      2  C   UNL     1       2.279   6.193  19.256  0.00  0.00    +0.000 A 
ATOM      3  C   UNL     1       2.531   4.993  19.919  0.00  0.00    +0.000 A 
ATOM      4  N   UNL     1       1.804   4.636  20.990  0.00  0.00    +0.000 NA
ATOM      5  C   UNL     1       2.111   3.460  21.570  0.00  0.00    +0.000 A 
ATOM      6  N   UNL     1       3.038   2.591  21.151  0.00  0.00    +0.000 NA
ATOM      7  C   UNL     1       3.745   2.973  20.079  0.00  0.00    +0.000 A 
ATOM      8  C   UNL     1       3.564   4.187  19.438  0.00  0.00    +0.000 A 
ATOM      9  C   UNL     1       4.397   4.615  18.394  0.00  0.00    +0.000 A 
ATOM     10  C   UNL     1       4.222   5.880  17.836  0.00  0.00    +0.000 A 
ENDROOT
BRANCH   1  14
ATOM     11  O   UNL     1       2.418  10.045  17.629  0.00  0.00    +0.000 OA
ATOM     12  C   UNL     1       2.211   8.949  18.153  0.00  0.00    +0.000 C 
ATOM     13  N   UNL     1       1.402   8.723  19.239  0.00  0.00    +0.000 N 
ATOM     14  N   UNL     1       2.842   7.865  17.592  0.00  0.00    +0.000 N 
ATOM     15  H   UNL     1       1.555   7.866  19.745  0.00  0.00    +0.000 HD
ATOM     16  H   UNL     1       3.550   8.190  16.942  0.00  0.00    +0.000 HD
BRANCH  13  17
ATOM     17  C   UNL     1       0.580   9.700  19.853  0.00  0.00    +0.000 A 
ATOM     18  C   UNL     1       0.760  10.106  21.181  0.00  0.00    +0.000 A 
ATOM     19  C   UNL     1      -0.090  11.046  21.774  0.00  0.00    +0.000 A 
ATOM     20  C   UNL     1      -1.151  11.606  21.050  0.00  0.00    +0.000 A 
ATOM     21  C   UNL     1      -1.317  11.225  19.708  0.00  0.00    +0.000 A 
ATOM     22  C   UNL     1      -0.449  10.294  19.112  0.00  0.00    +0.000 A 
BRANCH  20  23
ATOM     23  C   UNL     1      -2.094  12.589  21.702  0.00  0.00    +0.000 C 
ATOM     24  F   UNL     1      -2.488  12.222  22.954  0.00  0.00    +0.000 F 
ATOM     25  F   UNL     1      -1.547  13.829  21.836  0.00  0.00    +0.000 F 
ATOM     26  F   UNL     1      -3.242  12.763  20.990  0.00  0.00    +0.000 F 
ENDBRANCH  20  23
ENDBRANCH  13  17
ENDBRANCH   1  14
BRANCH  10  27
ATOM     27  O   UNL     1       5.145   6.450  16.987  0.00  0.00    +0.000 OA
BRANCH  27  28
ATOM     28  C   UNL     1       6.287   5.612  16.739  0.00  0.00    +0.000 C 
BRANCH  28  29
ATOM     29  C   UNL     1       6.369   5.102  15.317  0.00  0.00    +0.000 A 
ATOM     30  C   UNL     1       7.493   5.439  14.537  0.00  0.00    +0.000 A 
ATOM     31  C   UNL     1       7.654   4.898  13.262  0.00  0.00    +0.000 A 
ATOM     32  C   UNL     1       6.699   4.023  12.766  0.00  0.00    +0.000 A 
ATOM     33  F   UNL     1       6.865   3.486  11.548  0.00  0.00    +0.000 F 
ATOM     34  C   UNL     1       5.582   3.679  13.520  0.00  0.00    +0.000 A 
ATOM     35  C   UNL     1       5.418   4.217  14.799  0.00  0.00    +0.000 A 
ENDBRANCH  28  29
ENDBRANCH  27  28
ENDBRANCH  10  27
TORSDOF 6
ENDMDL
