MODEL 1
REMARK VINA RESULT:      -8.0      0.000      0.000
REMARK  Name = 
REMARK  2 active torsions:
REMARK  status: ('A' for Active; 'I' for Inactive)
REMARK    1  A    between atoms: N_10  and  C_11
REMARK    2  A    between atoms: C_11  and  C_12
REMARK                            x       y       z     vdW  Elec       q    Type
REMARK                         _______ _______ _______ _____ _____    ______ ____
ROOT
ATOM      1  O   UNL     1       3.418   2.408  21.922  0.00  0.00    +0.000 OA
ATOM      2  C   UNL     1       2.816   2.367  20.870  0.00  0.00    +0.000 C 
ATOM      3  C   UNL     1       3.393   2.641  19.539  0.00  0.00    +0.000 C 
ATOM      4  C   UNL     1       2.265   3.517  18.940  0.00  0.00    +0.000 C 
ATOM      5  C   UNL     1       1.112   2.650  19.398  0.00  0.00    +0.000 C 
ATOM      6  O   UNL     1       0.012   2.542  18.917  0.00  0.00    +0.000 OA
ATOM      7  N   UNL     1       1.493   2.170  20.646  0.00  0.00    +0.000 N 
ATOM      8  C   UNL     1       2.739   3.709  17.521  0.00  0.00    +0.000 C 
ATOM      9  O   UNL     1       2.340   3.055  16.559  0.00  0.00    +0.000 OA
ATOM     10  N   UNL     1       3.855   4.591  17.453  0.00  0.00    +0.000 N 
ATOM     11  C   UNL     1       3.939   5.773  18.209  0.00  0.00    +0.000 C 
ATOM     12  O   UNL     1       4.855   6.581  18.107  0.00  0.00    +0.000 OA
ATOM     13  C   UNL     1       2.887   5.901  19.190  0.00  0.00    +0.000 A 
ATOM     14  C   UNL     1       2.523   6.973  19.988  0.00  0.00    +0.000 A 
ATOM     15  C   UNL     1       1.342   6.600  20.675  0.00  0.00    +0.000 A 
ATOM     16  C   UNL     1       1.049   5.310  20.307  0.00  0.00    +0.000 A 
ATOM     17  N   UNL     1       2.074   4.852  19.524  0.00  0.00    +0.000 N 
ATOM     18  H   UNL     1       0.840   2.100  21.418  0.00  0.00    +0.000 HD
ENDROOT
BRANCH  10  19
ATOM     19  C   UNL     1       5.135   3.978  17.139  0.00  0.00    +0.000 C 
BRANCH  19  20
ATOM     20  C   UNL     1       5.686   4.209  15.767  0.00  0.00    +0.000 A 
ATOM     21  C   UNL     1       5.133   3.632  14.627  0.00  0.00    +0.000 A 
ATOM     22  C   UNL     1       5.727   3.812  13.391  0.00  0.00    +0.000 A 
ATOM     23  C   UNL     1       6.900   4.575  13.278  0.00  0.00    +0.000 A 
ATOM     24 CL   UNL     1       7.639   4.780  11.740  0.00  0.00    +0.000 Cl
ATOM     25  C   UNL     1       7.473   5.152  14.402  0.00  0.00    +0.000 A 
ATOM     26  C   UNL     1       6.874   4.961  15.638  0.00  0.00    +0.000 A 
ATOM     27  F   UNL     1       7.447   5.493  16.716  0.00  0.00    +0.000 F 
ENDBRANCH  19  20
ENDBRANCH  10  19
TORSDOF 2
ENDMDL
MODEL 2
REMARK VINA RESULT:      -7.5      5.338      7.527
REMARK  Name = 
REMARK  2 active torsions:
REMARK  status: ('A' for Active; 'I' for Inactive)
REMARK    1  A    between atoms: N_10  and  C_11
REMARK    2  A    between atoms: C_11  and  C_12
REMARK                            x       y       z     vdW  Elec       q    Type
REMARK                         _______ _______ _______ _____ _____    ______ ____
ROOT
ATOM      1  O   UNL     1      -3.298  10.943  18.317  0.00  0.00    +0.000 OA
ATOM      2  C   UNL     1      -2.165  11.346  18.160  0.00  0.00    +0.000 C 
ATOM      3  C   UNL     1      -0.953  10.504  18.111  0.00  0.00    +0.000 C 
ATOM      4  C   UNL     1      -0.008  11.354  18.996  0.00  0.00    +0.000 C 
ATOM      5  C   UNL     1      -0.352  12.693  18.379  0.00  0.00    +0.000 C 
ATOM      6  O   UNL     1       0.320  13.693  18.324  0.00  0.00    +0.000 OA
ATOM      7  N   UNL     1      -1.710  12.621  18.093  0.00  0.00    +0.000 N 
ATOM      8  C   UNL     1       1.298  10.610  18.864  0.00  0.00    +0.000 C 
ATOM      9  O   UNL     1       2.207  10.929  18.099  0.00  0.00    +0.000 OA
ATOM     10  N   UNL     1       1.274   9.374  19.572  0.00  0.00    +0.000 N 
ATOM     11  C   UNL     1       0.710   9.240  20.852  0.00  0.00    +0.000 C 
ATOM     12  O   UNL     1       0.748   8.205  21.506  0.00  0.00    +0.000 OA
ATOM     13  C   UNL     1      -0.005  10.417  21.289  0.00  0.00    +0.000 A 
ATOM     14  C   UNL     1      -0.535  10.743  22.526  0.00  0.00    +0.000 A 
ATOM     15  C   UNL     1      -1.018  12.072  22.436  0.00  0.00    +0.000 A 
ATOM     16  C   UNL     1      -0.803  12.495  21.148  0.00  0.00    +0.000 A 
ATOM     17  N   UNL     1      -0.326  11.432  20.429  0.00  0.00    +0.000 N 
ATOM     18  H   UNL     1      -2.334  13.405  18.248  0.00  0.00    +0.000 HD
ENDROOT
BRANCH  10  19
ATOM     19  C   UNL     1       1.221   8.172  18.755  0.00  0.00    +0.000 C 
BRANCH  19  20
ATOM     20  C   UNL     1       2.494   7.403  18.588  0.00  0.00    +0.000 A 
ATOM     21  C   UNL     1       3.420   7.689  17.588  0.00  0.00    +0.000 A 
ATOM     22  C   UNL     1       4.543   6.897  17.426  0.00  0.00    +0.000 A 
ATOM     23  C   UNL     1       4.754   5.793  18.267  0.00  0.00    +0.000 A 
ATOM     24 CL   UNL     1       6.146   4.808  18.047  0.00  0.00    +0.000 Cl
ATOM     25  C   UNL     1       3.840   5.485  19.264  0.00  0.00    +0.000 A 
ATOM     26  C   UNL     1       2.715   6.281  19.416  0.00  0.00    +0.000 A 
ATOM     27  F   UNL     1       1.827   5.961  20.356  0.00  0.00    +0.000 F 
ENDBRANCH  19  20
ENDBRANCH  10  19
TORSDOF 2
ENDMDL
MODEL 3
REMARK VINA RESULT:      -7.5      4.610      6.618
REMARK  Name = 
REMARK  2 active torsions:
REMARK  status: ('A' for Active; 'I' for Inactive)
REMARK    1  A    between atoms: N_10  and  C_11
REMARK    2  A    between atoms: C_11  and  C_12
REMARK                            x       y       z     vdW  Elec       q    Type
REMARK                         _______ _______ _______ _____ _____    ______ ____
ROOT
ATOM      1  O   UNL     1      -2.987   9.823  18.174  0.00  0.00    +0.000 OA
ATOM      2  C   UNL     1      -1.930  10.402  18.037  0.00  0.00    +0.000 C 
ATOM      3  C   UNL     1      -0.625   9.759  17.788  0.00  0.00    +0.000 C 
ATOM      4  C   UNL     1       0.259  10.578  18.762  0.00  0.00    +0.000 C 
ATOM      5  C   UNL     1      -0.300  11.937  18.401  0.00  0.00    +0.000 C 
ATOM      6  O   UNL     1       0.230  13.017  18.488  0.00  0.00    +0.000 OA
ATOM      7  N   UNL     1      -1.653  11.722  18.169  0.00  0.00    +0.000 N 
ATOM      8  C   UNL     1       1.639  10.057  18.444  0.00  0.00    +0.000 C 
ATOM      9  O   UNL     1       2.443  10.622  17.705  0.00  0.00    +0.000 OA
ATOM     10  N   UNL     1       1.827   8.731  18.930  0.00  0.00    +0.000 N 
ATOM     11  C   UNL     1       1.375   8.312  20.193  0.00  0.00    +0.000 C 
ATOM     12  O   UNL     1       1.594   7.199  20.657  0.00  0.00    +0.000 OA
ATOM     13  C   UNL     1       0.544   9.287  20.857  0.00  0.00    +0.000 A 
ATOM     14  C   UNL     1       0.061   9.329  22.155  0.00  0.00    +0.000 A 
ATOM     15  C   UNL     1      -0.597  10.572  22.317  0.00  0.00    +0.000 A 
ATOM     16  C   UNL     1      -0.529  11.227  21.112  0.00  0.00    +0.000 A 
ATOM     17  N   UNL     1       0.033  10.374  20.201  0.00  0.00    +0.000 N 
ATOM     18  H   UNL     1      -2.362  12.374  18.485  0.00  0.00    +0.000 HD
ENDROOT
BRANCH  10  19
ATOM     19  C   UNL     1       1.877   7.684  17.923  0.00  0.00    +0.000 C 
BRANCH  19  20
ATOM     20  C   UNL     1       3.163   6.932  17.782  0.00  0.00    +0.000 A 
ATOM     21  C   UNL     1       4.338   7.528  17.333  0.00  0.00    +0.000 A 
ATOM     22  C   UNL     1       5.480   6.771  17.143  0.00  0.00    +0.000 A 
ATOM     23  C   UNL     1       5.460   5.390  17.397  0.00  0.00    +0.000 A 
ATOM     24 CL   UNL     1       6.881   4.456  17.145  0.00  0.00    +0.000 Cl
ATOM     25  C   UNL     1       4.298   4.774  17.837  0.00  0.00    +0.000 A 
ATOM     26  C   UNL     1       3.156   5.540  18.019  0.00  0.00    +0.000 A 
ATOM     27  F   UNL     1       2.036   4.936  18.412  0.00  0.00    +0.000 F 
ENDBRANCH  19  20
ENDBRANCH  10  19
TORSDOF 2
ENDMDL
MODEL 4
REMARK VINA RESULT:      -7.4      4.030      6.825
REMARK  Name = 
REMARK  2 active torsions:
REMARK  status: ('A' for Active; 'I' for Inactive)
REMARK    1  A    between atoms: N_10  and  C_11
REMARK    2  A    between atoms: C_11  and  C_12
REMARK                            x       y       z     vdW  Elec       q    Type
REMARK                         _______ _______ _______ _____ _____    ______ ____
ROOT
ATOM      1  O   UNL     1       7.001   4.830  19.840  0.00  0.00    +0.000 OA
ATOM      2  C   UNL     1       6.384   5.258  18.887  0.00  0.00    +0.000 C 
ATOM      3  C   UNL     1       5.231   6.176  18.952  0.00  0.00    +0.000 C 
ATOM      4  C   UNL     1       4.300   5.501  17.915  0.00  0.00    +0.000 C 
ATOM      5  C   UNL     1       5.360   5.259  16.862  0.00  0.00    +0.000 C 
ATOM      6  O   UNL     1       5.226   5.149  15.669  0.00  0.00    +0.000 OA
ATOM      7  N   UNL     1       6.511   4.945  17.574  0.00  0.00    +0.000 N 
ATOM      8  C   UNL     1       3.157   6.483  17.834  0.00  0.00    +0.000 C 
ATOM      9  O   UNL     1       3.031   7.334  16.956  0.00  0.00    +0.000 OA
ATOM     10  N   UNL     1       2.352   6.451  19.009  0.00  0.00    +0.000 N 
ATOM     11  C   UNL     1       1.983   5.255  19.648  0.00  0.00    +0.000 C 
ATOM     12  O   UNL     1       1.231   5.205  20.614  0.00  0.00    +0.000 OA
ATOM     13  C   UNL     1       2.655   4.092  19.117  0.00  0.00    +0.000 A 
ATOM     14  C   UNL     1       2.441   2.743  19.348  0.00  0.00    +0.000 A 
ATOM     15  C   UNL     1       3.296   2.029  18.473  0.00  0.00    +0.000 A 
ATOM     16  C   UNL     1       4.024   2.957  17.771  0.00  0.00    +0.000 A 
ATOM     17  N   UNL     1       3.731   4.195  18.278  0.00  0.00    +0.000 N 
ATOM     18  H   UNL     1       7.147   4.215  17.272  0.00  0.00    +0.000 HD
ENDROOT
BRANCH  10  19
ATOM     19  C   UNL     1       2.462   7.603  19.889  0.00  0.00    +0.000 C 
BRANCH  19  20
ATOM     20  C   UNL     1       1.371   8.625  19.818  0.00  0.00    +0.000 A 
ATOM     21  C   UNL     1       1.115   9.374  18.672  0.00  0.00    +0.000 A 
ATOM     22  C   UNL     1       0.147  10.363  18.683  0.00  0.00    +0.000 A 
ATOM     23  C   UNL     1      -0.581  10.623  19.854  0.00  0.00    +0.000 A 
ATOM     24 CL   UNL     1      -1.771  11.864  19.861  0.00  0.00    +0.000 Cl
ATOM     25  C   UNL     1      -0.336   9.895  21.010  0.00  0.00    +0.000 A 
ATOM     26  C   UNL     1       0.640   8.909  20.991  0.00  0.00    +0.000 A 
ATOM     27  F   UNL     1       0.890   8.236  22.113  0.00  0.00    +0.000 F 
ENDBRANCH  19  20
ENDBRANCH  10  19
TORSDOF 2
ENDMDL
MODEL 5
REMARK VINA RESULT:      -7.0      5.252      7.480
REMARK  Name = 
REMARK  2 active torsions:
REMARK  status: ('A' for Active; 'I' for Inactive)
REMARK    1  A    between atoms: N_10  and  C_11
REMARK    2  A    between atoms: C_11  and  C_12
REMARK                            x       y       z     vdW  Elec       q    Type
REMARK                         _______ _______ _______ _____ _____    ______ ____
ROOT
ATOM      1  O   UNL     1      -3.270  10.994  18.346  0.00  0.00    +0.000 OA
ATOM      2  C   UNL     1      -2.128  11.375  18.191  0.00  0.00    +0.000 C 
ATOM      3  C   UNL     1      -0.937  10.508  18.116  0.00  0.00    +0.000 C 
ATOM      4  C   UNL     1       0.032  11.315  19.014  0.00  0.00    +0.000 C 
ATOM      5  C   UNL     1      -0.284  12.675  18.430  0.00  0.00    +0.000 C 
ATOM      6  O   UNL     1       0.410  13.661  18.394  0.00  0.00    +0.000 OA
ATOM      7  N   UNL     1      -1.645  12.641  18.151  0.00  0.00    +0.000 N 
ATOM      8  C   UNL     1       1.320  10.545  18.857  0.00  0.00    +0.000 C 
ATOM      9  O   UNL     1       2.232  10.861  18.095  0.00  0.00    +0.000 OA
ATOM     10  N   UNL     1       1.272   9.294  19.537  0.00  0.00    +0.000 N 
ATOM     11  C   UNL     1       0.713   9.144  20.817  0.00  0.00    +0.000 C 
ATOM     12  O   UNL     1       0.730   8.093  21.447  0.00  0.00    +0.000 OA
ATOM     13  C   UNL     1       0.027  10.326  21.285  0.00  0.00    +0.000 A 
ATOM     14  C   UNL     1      -0.489  10.635  22.532  0.00  0.00    +0.000 A 
ATOM     15  C   UNL     1      -0.942  11.976  22.476  0.00  0.00    +0.000 A 
ATOM     16  C   UNL     1      -0.725  12.424  21.197  0.00  0.00    +0.000 A 
ATOM     17  N   UNL     1      -0.276  11.367  20.451  0.00  0.00    +0.000 N 
ATOM     18  H   UNL     1      -2.250  13.435  18.328  0.00  0.00    +0.000 HD
ENDROOT
BRANCH  10  19
ATOM     19  C   UNL     1       1.188   8.113  18.693  0.00  0.00    +0.000 C 
BRANCH  19  20
ATOM     20  C   UNL     1       2.376   7.204  18.669  0.00  0.00    +0.000 A 
ATOM     21  C   UNL     1       2.598   6.229  19.637  0.00  0.00    +0.000 A 
ATOM     22  C   UNL     1       3.753   5.468  19.615  0.00  0.00    +0.000 A 
ATOM     23  C   UNL     1       4.716   5.679  18.615  0.00  0.00    +0.000 A 
ATOM     24 CL   UNL     1       6.155   4.738  18.605  0.00  0.00    +0.000 Cl
ATOM     25  C   UNL     1       4.520   6.651  17.646  0.00  0.00    +0.000 A 
ATOM     26  C   UNL     1       3.361   7.413  17.679  0.00  0.00    +0.000 A 
ATOM     27  F   UNL     1       3.195   8.365  16.763  0.00  0.00    +0.000 F 
ENDBRANCH  19  20
ENDBRANCH  10  19
TORSDOF 2
ENDMDL
MODEL 6
REMARK VINA RESULT:      -7.0      4.502      6.577
REMARK  Name = 
REMARK  2 active torsions:
REMARK  status: ('A' for Active; 'I' for Inactive)
REMARK    1  A    between atoms: N_10  and  C_11
REMARK    2  A    between atoms: C_11  and  C_12
REMARK                            x       y       z     vdW  Elec       q    Type
REMARK                         _______ _______ _______ _____ _____    ______ ____
ROOT
ATOM      1  O   UNL     1      -2.840   9.688  17.984  0.00  0.00    +0.000 OA
ATOM      2  C   UNL     1      -1.753  10.220  17.902  0.00  0.00    +0.000 C 
ATOM      3  C   UNL     1      -0.457   9.518  17.836  0.00  0.00    +0.000 C 
ATOM      4  C   UNL     1       0.363  10.389  18.821  0.00  0.00    +0.000 C 
ATOM      5  C   UNL     1      -0.105  11.729  18.296  0.00  0.00    +0.000 C 
ATOM      6  O   UNL     1       0.455  12.796  18.345  0.00  0.00    +0.000 OA
ATOM      7  N   UNL     1      -1.438  11.538  17.952  0.00  0.00    +0.000 N 
ATOM      8  C   UNL     1       1.745   9.800  18.683  0.00  0.00    +0.000 C 
ATOM      9  O   UNL     1       2.637  10.275  17.982  0.00  0.00    +0.000 OA
ATOM     10  N   UNL     1       1.834   8.515  19.292  0.00  0.00    +0.000 N 
ATOM     11  C   UNL     1       1.249   8.220  20.535  0.00  0.00    +0.000 C 
ATOM     12  O   UNL     1       1.379   7.144  21.108  0.00  0.00    +0.000 OA
ATOM     13  C   UNL     1       0.398   9.274  21.033  0.00  0.00    +0.000 A 
ATOM     14  C   UNL     1      -0.203   9.441  22.270  0.00  0.00    +0.000 A 
ATOM     15  C   UNL     1      -0.824  10.714  22.264  0.00  0.00    +0.000 A 
ATOM     16  C   UNL     1      -0.617  11.261  21.022  0.00  0.00    +0.000 A 
ATOM     17  N   UNL     1      -0.006  10.316  20.242  0.00  0.00    +0.000 N 
ATOM     18  H   UNL     1      -2.148  12.235  18.143  0.00  0.00    +0.000 HD
ENDROOT
BRANCH  10  19
ATOM     19  C   UNL     1       1.938   7.385  18.383  0.00  0.00    +0.000 C 
BRANCH  19  20
ATOM     20  C   UNL     1       3.256   6.679  18.319  0.00  0.00    +0.000 A 
ATOM     21  C   UNL     1       3.685   5.794  19.304  0.00  0.00    +0.000 A 
ATOM     22  C   UNL     1       4.946   5.229  19.238  0.00  0.00    +0.000 A 
ATOM     23  C   UNL     1       5.806   5.549  18.177  0.00  0.00    +0.000 A 
ATOM     24 CL   UNL     1       7.376   4.852  18.112  0.00  0.00    +0.000 Cl
ATOM     25  C   UNL     1       5.403   6.435  17.188  0.00  0.00    +0.000 A 
ATOM     26  C   UNL     1       4.139   7.001  17.265  0.00  0.00    +0.000 A 
ATOM     27  F   UNL     1       3.771   7.874  16.329  0.00  0.00    +0.000 F 
ENDBRANCH  19  20
ENDBRANCH  10  19
TORSDOF 2
ENDMDL
MODEL 7
REMARK VINA RESULT:      -6.8      3.769      6.608
REMARK  Name = 
REMARK  2 active torsions:
REMARK  status: ('A' for Active; 'I' for Inactive)
REMARK    1  A    between atoms: N_10  and  C_11
REMARK    2  A    between atoms: C_11  and  C_12
REMARK                            x       y       z     vdW  Elec       q    Type
REMARK                         _______ _______ _______ _____ _____    ______ ____
ROOT
ATOM      1  O   UNL     1       6.937   4.355  19.572  0.00  0.00    +0.000 OA
ATOM      2  C   UNL     1       6.271   4.804  18.663  0.00  0.00    +0.000 C 
ATOM      3  C   UNL     1       5.188   5.798  18.803  0.00  0.00    +0.000 C 
ATOM      4  C   UNL     1       4.131   5.166  17.864  0.00  0.00    +0.000 C 
ATOM      5  C   UNL     1       5.079   4.836  16.732  0.00  0.00    +0.000 C 
ATOM      6  O   UNL     1       4.838   4.713  15.557  0.00  0.00    +0.000 OA
ATOM      7  N   UNL     1       6.265   4.459  17.352  0.00  0.00    +0.000 N 
ATOM      8  C   UNL     1       3.050   6.220  17.856  0.00  0.00    +0.000 C 
ATOM      9  O   UNL     1       2.905   7.061  16.971  0.00  0.00    +0.000 OA
ATOM     10  N   UNL     1       2.348   6.263  19.095  0.00  0.00    +0.000 N 
ATOM     11  C   UNL     1       1.960   5.106  19.791  0.00  0.00    +0.000 C 
ATOM     12  O   UNL     1       1.290   5.123  20.817  0.00  0.00    +0.000 OA
ATOM     13  C   UNL     1       2.508   3.891  19.234  0.00  0.00    +0.000 A 
ATOM     14  C   UNL     1       2.229   2.564  19.514  0.00  0.00    +0.000 A 
ATOM     15  C   UNL     1       2.958   1.779  18.588  0.00  0.00    +0.000 A 
ATOM     16  C   UNL     1       3.682   2.644  17.805  0.00  0.00    +0.000 A 
ATOM     17  N   UNL     1       3.513   3.907  18.306  0.00  0.00    +0.000 N 
ATOM     18  H   UNL     1       6.824   3.684  17.016  0.00  0.00    +0.000 HD
ENDROOT
BRANCH  10  19
ATOM     19  C   UNL     1       2.606   7.421  19.934  0.00  0.00    +0.000 C 
BRANCH  19  20
ATOM     20  C   UNL     1       1.538   8.467  20.004  0.00  0.00    +0.000 A 
ATOM     21  C   UNL     1       0.568   8.487  21.002  0.00  0.00    +0.000 A 
ATOM     22  C   UNL     1      -0.446   9.428  20.976  0.00  0.00    +0.000 A 
ATOM     23  C   UNL     1      -0.506  10.369  19.937  0.00  0.00    +0.000 A 
ATOM     24 CL   UNL     1      -1.778  11.525  19.907  0.00  0.00    +0.000 Cl
ATOM     25  C   UNL     1       0.445  10.363  18.927  0.00  0.00    +0.000 A 
ATOM     26  C   UNL     1       1.454   9.412  18.958  0.00  0.00    +0.000 A 
ATOM     27  F   UNL     1       2.346   9.393  17.969  0.00  0.00    +0.000 F 
ENDBRANCH  19  20
ENDBRANCH  10  19
TORSDOF 2
ENDMDL
MODEL 8
REMARK VINA RESULT:      -6.8      3.763      6.496
REMARK  Name = 
REMARK  2 active torsions:
REMARK  status: ('A' for Active; 'I' for Inactive)
REMARK    1  A    between atoms: N_10  and  C_11
REMARK    2  A    between atoms: C_11  and  C_12
REMARK                            x       y       z     vdW  Elec       q    Type
REMARK                         _______ _______ _______ _____ _____    ______ ____
ROOT
ATOM      1  O   UNL     1       2.456   2.366  16.232  0.00  0.00    +0.000 OA
ATOM      2  C   UNL     1       2.821   2.664  17.350  0.00  0.00    +0.000 C 
ATOM      3  C   UNL     1       2.472   3.908  18.063  0.00  0.00    +0.000 C 
ATOM      4  C   UNL     1       3.857   4.268  18.655  0.00  0.00    +0.000 C 
ATOM      5  C   UNL     1       4.207   2.875  19.134  0.00  0.00    +0.000 C 
ATOM      6  O   UNL     1       4.945   2.549  20.030  0.00  0.00    +0.000 OA
ATOM      7  N   UNL     1       3.687   2.020  18.170  0.00  0.00    +0.000 N 
ATOM      8  C   UNL     1       3.529   5.461  19.518  0.00  0.00    +0.000 C 
ATOM      9  O   UNL     1       3.349   5.413  20.734  0.00  0.00    +0.000 OA
ATOM     10  N   UNL     1       3.243   6.615  18.733  0.00  0.00    +0.000 N 
ATOM     11  C   UNL     1       3.989   6.968  17.596  0.00  0.00    +0.000 C 
ATOM     12  O   UNL     1       3.805   7.995  16.954  0.00  0.00    +0.000 OA
ATOM     13  C   UNL     1       4.936   5.953  17.196  0.00  0.00    +0.000 A 
ATOM     14  C   UNL     1       5.956   5.990  16.259  0.00  0.00    +0.000 A 
ATOM     15  C   UNL     1       6.659   4.765  16.359  0.00  0.00    +0.000 A 
ATOM     16  C   UNL     1       6.028   4.012  17.318  0.00  0.00    +0.000 A 
ATOM     17  N   UNL     1       4.901   4.685  17.708  0.00  0.00    +0.000 N 
ATOM     18  H   UNL     1       4.190   1.198  17.853  0.00  0.00    +0.000 HD
ENDROOT
BRANCH  10  19
ATOM     19  C   UNL     1       1.852   7.037  18.703  0.00  0.00    +0.000 C 
BRANCH  19  20
ATOM     20  C   UNL     1       1.491   8.259  19.487  0.00  0.00    +0.000 A 
ATOM     21  C   UNL     1       1.365   8.254  20.874  0.00  0.00    +0.000 A 
ATOM     22  C   UNL     1       0.950   9.391  21.544  0.00  0.00    +0.000 A 
ATOM     23  C   UNL     1       0.647  10.560  20.828  0.00  0.00    +0.000 A 
ATOM     24 CL   UNL     1       0.119  11.963  21.670  0.00  0.00    +0.000 Cl
ATOM     25  C   UNL     1       0.757  10.585  19.446  0.00  0.00    +0.000 A 
ATOM     26  C   UNL     1       1.168   9.439  18.781  0.00  0.00    +0.000 A 
ATOM     27  F   UNL     1       1.242   9.461  17.452  0.00  0.00    +0.000 F 
ENDBRANCH  19  20
ENDBRANCH  10  19
TORSDOF 2
ENDMDL
MODEL 9
REMARK VINA RESULT:      -6.8      4.051      6.450
REMARK  Name = 
REMARK  2 active torsions:
REMARK  status: ('A' for Active; 'I' for Inactive)
REMARK    1  A    between atoms: N_10  and  C_11
REMARK    2  A    between atoms: C_11  and  C_12
REMARK                            x       y       z     vdW  Elec       q    Type
REMARK                         _______ _______ _______ _____ _____    ______ ____
ROOT
ATOM      1  O   UNL     1       6.825   5.035  20.136  0.00  0.00    +0.000 OA
ATOM      2  C   UNL     1       6.020   4.977  19.230  0.00  0.00    +0.000 C 
ATOM      3  C   UNL     1       4.921   5.934  18.996  0.00  0.00    +0.000 C 
ATOM      4  C   UNL     1       3.776   4.943  18.670  0.00  0.00    +0.000 C 
ATOM      5  C   UNL     1       4.577   4.054  17.743  0.00  0.00    +0.000 C 
ATOM      6  O   UNL     1       4.183   3.355  16.843  0.00  0.00    +0.000 OA
ATOM      7  N   UNL     1       5.852   4.012  18.293  0.00  0.00    +0.000 N 
ATOM      8  C   UNL     1       2.656   5.876  18.280  0.00  0.00    +0.000 C 
ATOM      9  O   UNL     1       2.352   6.151  17.121  0.00  0.00    +0.000 OA
ATOM     10  N   UNL     1       2.128   6.566  19.409  0.00  0.00    +0.000 N 
ATOM     11  C   UNL     1       1.894   5.938  20.644  0.00  0.00    +0.000 C 
ATOM     12  O   UNL     1       1.371   6.497  21.601  0.00  0.00    +0.000 OA
ATOM     13  C   UNL     1       2.418   4.594  20.712  0.00  0.00    +0.000 A 
ATOM     14  C   UNL     1       2.243   3.604  21.665  0.00  0.00    +0.000 A 
ATOM     15  C   UNL     1       2.876   2.436  21.175  0.00  0.00    +0.000 A 
ATOM     16  C   UNL     1       3.444   2.758  19.968  0.00  0.00    +0.000 A 
ATOM     17  N   UNL     1       3.285   4.104  19.774  0.00  0.00    +0.000 N 
ATOM     18  H   UNL     1       6.397   3.157  18.324  0.00  0.00    +0.000 HD
ENDROOT
BRANCH  10  19
ATOM     19  C   UNL     1       2.444   7.982  19.495  0.00  0.00    +0.000 C 
BRANCH  19  20
ATOM     20  C   UNL     1       1.298   8.943  19.438  0.00  0.00    +0.000 A 
ATOM     21  C   UNL     1       0.586   9.334  20.569  0.00  0.00    +0.000 A 
ATOM     22  C   UNL     1      -0.516  10.162  20.453  0.00  0.00    +0.000 A 
ATOM     23  C   UNL     1      -0.930  10.609  19.188  0.00  0.00    +0.000 A 
ATOM     24 CL   UNL     1      -2.310  11.626  19.054  0.00  0.00    +0.000 Cl
ATOM     25  C   UNL     1      -0.241  10.225  18.047  0.00  0.00    +0.000 A 
ATOM     26  C   UNL     1       0.859   9.391  18.173  0.00  0.00    +0.000 A 
ATOM     27  F   UNL     1       1.497   9.001  17.070  0.00  0.00    +0.000 F 
ENDBRANCH  19  20
ENDBRANCH  10  19
TORSDOF 2
ENDMDL
