MODEL 1
REMARK VINA RESULT:      -8.9      0.000      0.000
REMARK  Name = 
REMARK  10 active torsions:
REMARK  status: ('A' for Active; 'I' for Inactive)
REMARK    1  A    between atoms: C_1  and  C_2
REMARK    2  A    between atoms: C_2  and  C_3
REMARK    3  A    between atoms: C_2  and  N_4
REMARK    4  A    between atoms: N_4  and  C_5
REMARK    5  A    between atoms: C_7  and  C_8
REMARK    6  A    between atoms: C_11  and  S_12
REMARK    7  A    between atoms: S_12  and  C_15
REMARK    8  A    between atoms: C_15  and  C_16
REMARK    9  A    between atoms: C_16  and  N_17
REMARK   10  A    between atoms: N_28  and  C_29
REMARK                            x       y       z     vdW  Elec       q    Type
REMARK                         _______ _______ _______ _____ _____    ______ ____
ROOT
ATOM      1  C   UNL     1      -0.752  10.744  18.652  0.00  0.00    +0.000 A 
ATOM      2  N   UNL     1       0.121   9.737  18.421  0.00  0.00    +0.000 NA
ATOM      3  C   UNL     1       0.929   9.292  19.416  0.00  0.00    +0.000 A 
ATOM      4  C   UNL     1       0.865   9.826  20.694  0.00  0.00    +0.000 A 
ATOM      5  C   UNL     1      -0.031  10.855  20.953  0.00  0.00    +0.000 A 
ATOM      6  N   UNL     1      -0.082  11.358  22.264  0.00  0.00    +0.000 NA
ATOM      7  C   UNL     1      -0.923  12.306  22.507  0.00  0.00    +0.000 A 
ATOM      8  N   UNL     1      -1.765  12.855  21.578  0.00  0.00    +0.000 N 
ATOM      9  C   UNL     1      -2.698  13.893  21.965  0.00  0.00    +0.000 C 
ATOM     10  C   UNL     1      -1.801  12.393  20.267  0.00  0.00    +0.000 A 
ATOM     11  O   UNL     1      -2.619  12.796  19.440  0.00  0.00    +0.000 OA
ATOM     12  C   UNL     1      -0.835  11.330  19.920  0.00  0.00    +0.000 A 
ENDROOT
BRANCH   3  13
ATOM     13  C   UNL     1       1.890   8.239  19.032  0.00  0.00    +0.000 A 
ATOM     14  C   UNL     1       2.175   7.154  19.884  0.00  0.00    +0.000 A 
ATOM     15  C   UNL     1       3.149   6.209  19.560  0.00  0.00    +0.000 A 
ATOM     16  C   UNL     1       3.851   6.332  18.362  0.00  0.00    +0.000 A 
ATOM     17  C   UNL     1       3.572   7.371  17.476  0.00  0.00    +0.000 A 
ATOM     18  C   UNL     1       2.599   8.314  17.816  0.00  0.00    +0.000 A 
BRANCH  16  19
ATOM     19  S   UNL     1       5.180   5.203  18.040  0.00  0.00    +0.000 S 
ATOM     20  O   UNL     1       5.165   4.895  16.619  0.00  0.00    +0.000 OA
ATOM     21  O   UNL     1       6.358   5.779  18.655  0.00  0.00    +0.000 OA
BRANCH  19  22
ATOM     22  C   UNL     1       4.778   3.715  18.924  0.00  0.00    +0.000 C 
BRANCH  22  23
ATOM     23  C   UNL     1       3.562   3.005  18.341  0.00  0.00    +0.000 C 
BRANCH  23  24
ATOM     24  N   UNL     1       2.881   2.103  19.299  0.00  0.00    +0.000 NA
ATOM     25  C   UNL     1       1.417   2.045  19.126  0.00  0.00    +0.000 C 
ATOM     26  C   UNL     1       0.908   3.292  19.818  0.00  0.00    +0.000 C 
ATOM     27  C   UNL     1       1.760   3.322  21.073  0.00  0.00    +0.000 C 
ATOM     28  C   UNL     1       3.057   2.609  20.681  0.00  0.00    +0.000 C 
ENDBRANCH  23  24
ENDBRANCH  22  23
ENDBRANCH  19  22
ENDBRANCH  16  19
ENDBRANCH   3  13
BRANCH   1  29
ATOM     29  N   UNL     1      -1.485  11.242  17.562  0.00  0.00    +0.000 N 
ATOM     30  H   UNL     1      -2.063  12.027  17.882  0.00  0.00    +0.000 HD
BRANCH  29  32
ATOM     31  C   UNL     1      -3.366   9.705  17.632  0.00  0.00    +0.000 C 
ATOM     32  C   UNL     1      -2.238  10.270  16.762  0.00  0.00    +0.000 C 
ATOM     33  C   UNL     1      -2.843  10.921  15.518  0.00  0.00    +0.000 C 
ENDBRANCH  29  32
ENDBRANCH   1  29
TORSDOF 7
ENDMDL
MODEL 2
REMARK VINA RESULT:      -8.3      2.876      8.911
REMARK  Name = 
REMARK  10 active torsions:
REMARK  status: ('A' for Active; 'I' for Inactive)
REMARK    1  A    between atoms: C_1  and  C_2
REMARK    2  A    between atoms: C_2  and  C_3
REMARK    3  A    between atoms: C_2  and  N_4
REMARK    4  A    between atoms: N_4  and  C_5
REMARK    5  A    between atoms: C_7  and  C_8
REMARK    6  A    between atoms: C_11  and  S_12
REMARK    7  A    between atoms: S_12  and  C_15
REMARK    8  A    between atoms: C_15  and  C_16
REMARK    9  A    between atoms: C_16  and  N_17
REMARK   10  A    between atoms: N_28  and  C_29
REMARK                            x       y       z     vdW  Elec       q    Type
REMARK                         _______ _______ _______ _____ _____    ______ ____
ROOT
ATOM      1  C   UNL     1       2.941   5.204  18.619  0.00  0.00    +0.000 A 
ATOM      2  N   UNL     1       2.276   6.262  19.138  0.00  0.00    +0.000 NA
ATOM      3  C   UNL     1       2.505   7.513  18.663  0.00  0.00    +0.000 A 
ATOM      4  C   UNL     1       3.394   7.740  17.624  0.00  0.00    +0.000 A 
ATOM      5  C   UNL     1       4.080   6.666  17.073  0.00  0.00    +0.000 A 
ATOM      6  N   UNL     1       4.958   6.933  16.008  0.00  0.00    +0.000 NA
ATOM      7  C   UNL     1       5.587   5.932  15.489  0.00  0.00    +0.000 A 
ATOM      8  N   UNL     1       5.459   4.634  15.904  0.00  0.00    +0.000 N 
ATOM      9  C   UNL     1       6.185   3.580  15.226  0.00  0.00    +0.000 C 
ATOM     10  C   UNL     1       4.589   4.281  16.928  0.00  0.00    +0.000 A 
ATOM     11  O   UNL     1       4.377   3.113  17.250  0.00  0.00    +0.000 OA
ATOM     12  C   UNL     1       3.866   5.389  17.585  0.00  0.00    +0.000 A 
ENDROOT
BRANCH   3  13
ATOM     13  C   UNL     1       1.776   8.598  19.350  0.00  0.00    +0.000 A 
ATOM     14  C   UNL     1       1.590   9.857  18.748  0.00  0.00    +0.000 A 
ATOM     15  C   UNL     1       0.981  10.909  19.434  0.00  0.00    +0.000 A 
ATOM     16  C   UNL     1       0.536  10.709  20.739  0.00  0.00    +0.000 A 
ATOM     17  C   UNL     1       0.669   9.467  21.356  0.00  0.00    +0.000 A 
ATOM     18  C   UNL     1       1.287   8.424  20.661  0.00  0.00    +0.000 A 
BRANCH  16  19
ATOM     19  S   UNL     1      -0.104  12.098  21.637  0.00  0.00    +0.000 S 
ATOM     20  O   UNL     1      -0.530  11.624  22.943  0.00  0.00    +0.000 OA
ATOM     21  O   UNL     1       0.891  13.146  21.525  0.00  0.00    +0.000 OA
BRANCH  19  22
ATOM     22  C   UNL     1      -1.550  12.626  20.750  0.00  0.00    +0.000 C 
BRANCH  22  23
ATOM     23  C   UNL     1      -2.150  11.510  19.904  0.00  0.00    +0.000 C 
BRANCH  23  24
ATOM     24  N   UNL     1      -2.778  11.983  18.648  0.00  0.00    +0.000 NA
ATOM     25  C   UNL     1      -3.989  11.233  18.266  0.00  0.00    +0.000 C 
ATOM     26  C   UNL     1      -3.459   9.971  17.618  0.00  0.00    +0.000 C 
ATOM     27  C   UNL     1      -2.317  10.509  16.777  0.00  0.00    +0.000 C 
ATOM     28  C   UNL     1      -1.852  11.770  17.509  0.00  0.00    +0.000 C 
ENDBRANCH  23  24
ENDBRANCH  22  23
ENDBRANCH  19  22
ENDBRANCH  16  19
ENDBRANCH   3  13
BRANCH   1  29
ATOM     29  N   UNL     1       2.751   3.949  19.220  0.00  0.00    +0.000 N 
ATOM     30  H   UNL     1       3.218   3.235  18.651  0.00  0.00    +0.000 HD
BRANCH  29  32
ATOM     31  C   UNL     1       0.956   2.393  18.710  0.00  0.00    +0.000 C 
ATOM     32  C   UNL     1       1.377   3.582  19.580  0.00  0.00    +0.000 C 
ATOM     33  C   UNL     1       1.273   3.185  21.053  0.00  0.00    +0.000 C 
ENDBRANCH  29  32
ENDBRANCH   1  29
TORSDOF 7
ENDMDL
MODEL 3
REMARK VINA RESULT:      -8.3      3.053      9.541
REMARK  Name = 
REMARK  10 active torsions:
REMARK  status: ('A' for Active; 'I' for Inactive)
REMARK    1  A    between atoms: C_1  and  C_2
REMARK    2  A    between atoms: C_2  and  C_3
REMARK    3  A    between atoms: C_2  and  N_4
REMARK    4  A    between atoms: N_4  and  C_5
REMARK    5  A    between atoms: C_7  and  C_8
REMARK    6  A    between atoms: C_11  and  S_12
REMARK    7  A    between atoms: S_12  and  C_15
REMARK    8  A    between atoms: C_15  and  C_16
REMARK    9  A    between atoms: C_16  and  N_17
REMARK   10  A    between atoms: N_28  and  C_29
REMARK                            x       y       z     vdW  Elec       q    Type
REMARK                         _______ _______ _______ _____ _____    ______ ____
ROOT
ATOM      1  C   UNL     1       2.872   5.179  19.078  0.00  0.00    +0.000 A 
ATOM      2  N   UNL     1       2.152   6.198  19.601  0.00  0.00    +0.000 NA
ATOM      3  C   UNL     1       2.274   7.450  19.093  0.00  0.00    +0.000 A 
ATOM      4  C   UNL     1       3.105   7.717  18.017  0.00  0.00    +0.000 A 
ATOM      5  C   UNL     1       3.846   6.683  17.461  0.00  0.00    +0.000 A 
ATOM      6  N   UNL     1       4.662   6.987  16.359  0.00  0.00    +0.000 NA
ATOM      7  C   UNL     1       5.342   6.023  15.835  0.00  0.00    +0.000 A 
ATOM      8  N   UNL     1       5.324   4.729  16.280  0.00  0.00    +0.000 N 
ATOM      9  C   UNL     1       6.098   3.714  15.596  0.00  0.00    +0.000 C 
ATOM     10  C   UNL     1       4.519   4.338  17.344  0.00  0.00    +0.000 A 
ATOM     11  O   UNL     1       4.404   3.164  17.697  0.00  0.00    +0.000 OA
ATOM     12  C   UNL     1       3.743   5.406  18.006  0.00  0.00    +0.000 A 
ENDROOT
BRANCH   3  13
ATOM     13  C   UNL     1       1.494   8.496  19.786  0.00  0.00    +0.000 A 
ATOM     14  C   UNL     1       1.062   9.658  19.118  0.00  0.00    +0.000 A 
ATOM     15  C   UNL     1       0.404  10.686  19.796  0.00  0.00    +0.000 A 
ATOM     16  C   UNL     1       0.159  10.558  21.162  0.00  0.00    +0.000 A 
ATOM     17  C   UNL     1       0.539   9.408  21.850  0.00  0.00    +0.000 A 
ATOM     18  C   UNL     1       1.202   8.389  21.162  0.00  0.00    +0.000 A 
BRANCH  16  19
ATOM     19  S   UNL     1      -0.549  11.935  22.026  0.00  0.00    +0.000 S 
ATOM     20  O   UNL     1      -0.992  11.462  23.327  0.00  0.00    +0.000 OA
ATOM     21  O   UNL     1       0.414  13.014  21.926  0.00  0.00    +0.000 OA
BRANCH  19  22
ATOM     22  C   UNL     1      -1.988  12.406  21.097  0.00  0.00    +0.000 C 
BRANCH  22  23
ATOM     23  C   UNL     1      -3.139  12.842  21.995  0.00  0.00    +0.000 C 
BRANCH  23  24
ATOM     24  N   UNL     1      -4.173  13.641  21.296  0.00  0.00    +0.000 NA
ATOM     25  C   UNL     1      -5.334  13.985  22.138  0.00  0.00    +0.000 C 
ATOM     26  C   UNL     1      -6.185  12.733  22.131  0.00  0.00    +0.000 C 
ATOM     27  C   UNL     1      -6.104  12.309  20.677  0.00  0.00    +0.000 C 
ATOM     28  C   UNL     1      -4.759  12.849  20.187  0.00  0.00    +0.000 C 
ENDBRANCH  23  24
ENDBRANCH  22  23
ENDBRANCH  19  22
ENDBRANCH  16  19
ENDBRANCH   3  13
BRANCH   1  29
ATOM     29  N   UNL     1       2.795   3.927  19.710  0.00  0.00    +0.000 N 
ATOM     30  H   UNL     1       3.323   3.243  19.158  0.00  0.00    +0.000 HD
BRANCH  29  32
ATOM     31  C   UNL     1       0.965   2.504  18.983  0.00  0.00    +0.000 C 
ATOM     32  C   UNL     1       1.460   3.448  20.084  0.00  0.00    +0.000 C 
ATOM     33  C   UNL     1       1.489   2.694  21.414  0.00  0.00    +0.000 C 
ENDBRANCH  29  32
ENDBRANCH   1  29
TORSDOF 7
ENDMDL
MODEL 4
REMARK VINA RESULT:      -8.2      0.707      1.185
REMARK  Name = 
REMARK  10 active torsions:
REMARK  status: ('A' for Active; 'I' for Inactive)
REMARK    1  A    between atoms: C_1  and  C_2
REMARK    2  A    between atoms: C_2  and  C_3
REMARK    3  A    between atoms: C_2  and  N_4
REMARK    4  A    between atoms: N_4  and  C_5
REMARK    5  A    between atoms: C_7  and  C_8
REMARK    6  A    between atoms: C_11  and  S_12
REMARK    7  A    between atoms: S_12  and  C_15
REMARK    8  A    between atoms: C_15  and  C_16
REMARK    9  A    between atoms: C_16  and  N_17
REMARK   10  A    between atoms: N_28  and  C_29
REMARK                            x       y       z     vdW  Elec       q    Type
REMARK                         _______ _______ _______ _____ _____    ______ ____
ROOT
ATOM      1  C   UNL     1      -0.940  10.766  18.902  0.00  0.00    +0.000 A 
ATOM      2  N   UNL     1      -0.011   9.830  18.598  0.00  0.00    +0.000 NA
ATOM      3  C   UNL     1       0.844   9.383  19.552  0.00  0.00    +0.000 A 
ATOM      4  C   UNL     1       0.774   9.840  20.858  0.00  0.00    +0.000 A 
ATOM      5  C   UNL     1      -0.177  10.794  21.191  0.00  0.00    +0.000 A 
ATOM      6  N   UNL     1      -0.231  11.219  22.530  0.00  0.00    +0.000 NA
ATOM      7  C   UNL     1      -1.124  12.098  22.841  0.00  0.00    +0.000 A 
ATOM      8  N   UNL     1      -2.019  12.643  21.960  0.00  0.00    +0.000 N 
ATOM      9  C   UNL     1      -3.005  13.596  22.423  0.00  0.00    +0.000 C 
ATOM     10  C   UNL     1      -2.054  12.253  20.627  0.00  0.00    +0.000 A 
ATOM     11  O   UNL     1      -2.913  12.648  19.839  0.00  0.00    +0.000 OA
ATOM     12  C   UNL     1      -1.032  11.274  20.202  0.00  0.00    +0.000 A 
ENDROOT
BRANCH   3  13
ATOM     13  C   UNL     1       1.860   8.415  19.091  0.00  0.00    +0.000 A 
ATOM     14  C   UNL     1       2.462   8.527  17.823  0.00  0.00    +0.000 A 
ATOM     15  C   UNL     1       3.355   7.562  17.353  0.00  0.00    +0.000 A 
ATOM     16  C   UNL     1       3.668   6.468  18.158  0.00  0.00    +0.000 A 
ATOM     17  C   UNL     1       3.120   6.342  19.433  0.00  0.00    +0.000 A 
ATOM     18  C   UNL     1       2.223   7.311  19.889  0.00  0.00    +0.000 A 
BRANCH  16  19
ATOM     19  S   UNL     1       4.690   5.186  17.484  0.00  0.00    +0.000 S 
ATOM     20  O   UNL     1       5.008   5.547  16.112  0.00  0.00    +0.000 OA
ATOM     21  O   UNL     1       5.749   4.963  18.449  0.00  0.00    +0.000 OA
BRANCH  19  22
ATOM     22  C   UNL     1       3.678   3.727  17.443  0.00  0.00    +0.000 C 
BRANCH  22  23
ATOM     23  C   UNL     1       2.224   4.022  17.793  0.00  0.00    +0.000 C 
BRANCH  23  24
ATOM     24  N   UNL     1       1.522   2.887  18.438  0.00  0.00    +0.000 NA
ATOM     25  C   UNL     1       0.449   3.297  19.362  0.00  0.00    +0.000 C 
ATOM     26  C   UNL     1       1.175   3.673  20.636  0.00  0.00    +0.000 C 
ATOM     27  C   UNL     1       2.211   2.569  20.742  0.00  0.00    +0.000 C 
ATOM     28  C   UNL     1       2.466   2.133  19.297  0.00  0.00    +0.000 C 
ENDBRANCH  23  24
ENDBRANCH  22  23
ENDBRANCH  19  22
ENDBRANCH  16  19
ENDBRANCH   3  13
BRANCH   1  29
ATOM     29  N   UNL     1      -1.726  11.277  17.856  0.00  0.00    +0.000 N 
ATOM     30  H   UNL     1      -2.339  12.010  18.228  0.00  0.00    +0.000 HD
BRANCH  29  32
ATOM     31  C   UNL     1      -3.784   9.995  17.695  0.00  0.00    +0.000 C 
ATOM     32  C   UNL     1      -2.443  10.305  17.022  0.00  0.00    +0.000 C 
ATOM     33  C   UNL     1      -2.702  10.857  15.620  0.00  0.00    +0.000 C 
ENDBRANCH  29  32
ENDBRANCH   1  29
TORSDOF 7
ENDMDL
MODEL 5
REMARK VINA RESULT:      -8.1      3.036      9.708
REMARK  Name = 
REMARK  10 active torsions:
REMARK  status: ('A' for Active; 'I' for Inactive)
REMARK    1  A    between atoms: C_1  and  C_2
REMARK    2  A    between atoms: C_2  and  C_3
REMARK    3  A    between atoms: C_2  and  N_4
REMARK    4  A    between atoms: N_4  and  C_5
REMARK    5  A    between atoms: C_7  and  C_8
REMARK    6  A    between atoms: C_11  and  S_12
REMARK    7  A    between atoms: S_12  and  C_15
REMARK    8  A    between atoms: C_15  and  C_16
REMARK    9  A    between atoms: C_16  and  N_17
REMARK   10  A    between atoms: N_28  and  C_29
REMARK                            x       y       z     vdW  Elec       q    Type
REMARK                         _______ _______ _______ _____ _____    ______ ____
ROOT
ATOM      1  C   UNL     1       2.863   5.096  18.953  0.00  0.00    +0.000 A 
ATOM      2  N   UNL     1       2.151   6.113  19.491  0.00  0.00    +0.000 NA
ATOM      3  C   UNL     1       2.303   7.376  19.020  0.00  0.00    +0.000 A 
ATOM      4  C   UNL     1       3.157   7.657  17.965  0.00  0.00    +0.000 A 
ATOM      5  C   UNL     1       3.890   6.626  17.394  0.00  0.00    +0.000 A 
ATOM      6  N   UNL     1       4.731   6.945  16.314  0.00  0.00    +0.000 NA
ATOM      7  C   UNL     1       5.402   5.983  15.776  0.00  0.00    +0.000 A 
ATOM      8  N   UNL     1       5.354   4.677  16.185  0.00  0.00    +0.000 N 
ATOM      9  C   UNL     1       6.123   3.668  15.487  0.00  0.00    +0.000 C 
ATOM     10  C   UNL     1       4.524   4.272  17.224  0.00  0.00    +0.000 A 
ATOM     11  O   UNL     1       4.383   3.092  17.543  0.00  0.00    +0.000 OA
ATOM     12  C   UNL     1       3.755   5.336  17.902  0.00  0.00    +0.000 A 
ENDROOT
BRANCH   3  13
ATOM     13  C   UNL     1       1.530   8.416  19.728  0.00  0.00    +0.000 A 
ATOM     14  C   UNL     1       1.092   9.583  19.073  0.00  0.00    +0.000 A 
ATOM     15  C   UNL     1       0.440  10.606  19.764  0.00  0.00    +0.000 A 
ATOM     16  C   UNL     1       0.207  10.468  21.131  0.00  0.00    +0.000 A 
ATOM     17  C   UNL     1       0.593   9.312  21.807  0.00  0.00    +0.000 A 
ATOM     18  C   UNL     1       1.251   8.299  21.105  0.00  0.00    +0.000 A 
BRANCH  16  19
ATOM     19  S   UNL     1      -0.492  11.838  22.013  0.00  0.00    +0.000 S 
ATOM     20  O   UNL     1      -0.928  11.354  23.313  0.00  0.00    +0.000 OA
ATOM     21  O   UNL     1       0.472  12.916  21.916  0.00  0.00    +0.000 OA
BRANCH  19  22
ATOM     22  C   UNL     1      -1.937  12.319  21.098  0.00  0.00    +0.000 C 
BRANCH  22  23
ATOM     23  C   UNL     1      -3.106  12.676  22.008  0.00  0.00    +0.000 C 
BRANCH  23  24
ATOM     24  N   UNL     1      -2.973  13.999  22.661  0.00  0.00    +0.000 NA
ATOM     25  C   UNL     1      -3.482  14.036  24.045  0.00  0.00    +0.000 C 
ATOM     26  C   UNL     1      -4.982  14.177  23.888  0.00  0.00    +0.000 C 
ATOM     27  C   UNL     1      -5.084  15.190  22.764  0.00  0.00    +0.000 C 
ATOM     28  C   UNL     1      -3.804  14.999  21.948  0.00  0.00    +0.000 C 
ENDBRANCH  23  24
ENDBRANCH  22  23
ENDBRANCH  19  22
ENDBRANCH  16  19
ENDBRANCH   3  13
BRANCH   1  29
ATOM     29  N   UNL     1       2.753   3.829  19.549  0.00  0.00    +0.000 N 
ATOM     30  H   UNL     1       3.186   3.133  18.933  0.00  0.00    +0.000 HD
BRANCH  29  32
ATOM     31  C   UNL     1       0.823   2.465  18.982  0.00  0.00    +0.000 C 
ATOM     32  C   UNL     1       1.423   3.423  20.017  0.00  0.00    +0.000 C 
ATOM     33  C   UNL     1       1.499   2.714  21.369  0.00  0.00    +0.000 C 
ENDBRANCH  29  32
ENDBRANCH   1  29
TORSDOF 7
ENDMDL
MODEL 6
REMARK VINA RESULT:      -8.0      3.022      9.472
REMARK  Name = 
REMARK  10 active torsions:
REMARK  status: ('A' for Active; 'I' for Inactive)
REMARK    1  A    between atoms: C_1  and  C_2
REMARK    2  A    between atoms: C_2  and  C_3
REMARK    3  A    between atoms: C_2  and  N_4
REMARK    4  A    between atoms: N_4  and  C_5
REMARK    5  A    between atoms: C_7  and  C_8
REMARK    6  A    between atoms: C_11  and  S_12
REMARK    7  A    between atoms: S_12  and  C_15
REMARK    8  A    between atoms: C_15  and  C_16
REMARK    9  A    between atoms: C_16  and  N_17
REMARK   10  A    between atoms: N_28  and  C_29
REMARK                            x       y       z     vdW  Elec       q    Type
REMARK                         _______ _______ _______ _____ _____    ______ ____
ROOT
ATOM      1  C   UNL     1       2.923   5.372  18.984  0.00  0.00    +0.000 A 
ATOM      2  N   UNL     1       2.229   6.447  19.424  0.00  0.00    +0.000 NA
ATOM      3  C   UNL     1       2.384   7.653  18.822  0.00  0.00    +0.000 A 
ATOM      4  C   UNL     1       3.223   7.814  17.731  0.00  0.00    +0.000 A 
ATOM      5  C   UNL     1       3.938   6.722  17.259  0.00  0.00    +0.000 A 
ATOM      6  N   UNL     1       4.763   6.919  16.139  0.00  0.00    +0.000 NA
ATOM      7  C   UNL     1       5.418   5.900  15.693  0.00  0.00    +0.000 A 
ATOM      8  N   UNL     1       5.365   4.644  16.236  0.00  0.00    +0.000 N 
ATOM      9  C   UNL     1       6.114   3.560  15.635  0.00  0.00    +0.000 C 
ATOM     10  C   UNL     1       4.549   4.357  17.324  0.00  0.00    +0.000 A 
ATOM     11  O   UNL     1       4.403   3.218  17.766  0.00  0.00    +0.000 OA
ATOM     12  C   UNL     1       3.800   5.493  17.900  0.00  0.00    +0.000 A 
ENDROOT
BRANCH   3  13
ATOM     13  C   UNL     1       1.631   8.769  19.430  0.00  0.00    +0.000 A 
ATOM     14  C   UNL     1       1.411   9.974  18.736  0.00  0.00    +0.000 A 
ATOM     15  C   UNL     1       0.779  11.060  19.344  0.00  0.00    +0.000 A 
ATOM     16  C   UNL     1       0.345  10.948  20.664  0.00  0.00    +0.000 A 
ATOM     17  C   UNL     1       0.512   9.760  21.371  0.00  0.00    +0.000 A 
ATOM     18  C   UNL     1       1.152   8.683  20.753  0.00  0.00    +0.000 A 
BRANCH  16  19
ATOM     19  S   UNL     1      -0.326  12.385  21.458  0.00  0.00    +0.000 S 
ATOM     20  O   UNL     1       0.784  13.259  21.803  0.00  0.00    +0.000 OA
ATOM     21  O   UNL     1      -1.395  12.858  20.603  0.00  0.00    +0.000 OA
BRANCH  19  22
ATOM     22  C   UNL     1      -1.056  11.808  22.971  0.00  0.00    +0.000 C 
BRANCH  22  23
ATOM     23  C   UNL     1      -2.579  11.831  22.924  0.00  0.00    +0.000 C 
BRANCH  23  24
ATOM     24  N   UNL     1      -3.171  13.110  23.381  0.00  0.00    +0.000 NA
ATOM     25  C   UNL     1      -3.741  13.052  24.741  0.00  0.00    +0.000 C 
ATOM     26  C   UNL     1      -5.095  12.402  24.551  0.00  0.00    +0.000 C 
ATOM     27  C   UNL     1      -5.596  13.084  23.293  0.00  0.00    +0.000 C 
ATOM     28  C   UNL     1      -4.328  13.465  22.524  0.00  0.00    +0.000 C 
ENDBRANCH  23  24
ENDBRANCH  22  23
ENDBRANCH  19  22
ENDBRANCH  16  19
ENDBRANCH   3  13
BRANCH   1  29
ATOM     29  N   UNL     1       2.813   4.175  19.710  0.00  0.00    +0.000 N 
ATOM     30  H   UNL     1       3.368   3.451  19.243  0.00  0.00    +0.000 HD
BRANCH  29  32
ATOM     31  C   UNL     1       0.961   2.812  18.923  0.00  0.00    +0.000 C 
ATOM     32  C   UNL     1       1.459   3.723  20.050  0.00  0.00    +0.000 C 
ATOM     33  C   UNL     1       1.446   2.943  21.366  0.00  0.00    +0.000 C 
ENDBRANCH  29  32
ENDBRANCH   1  29
TORSDOF 7
ENDMDL
MODEL 7
REMARK VINA RESULT:      -8.0      3.340      9.383
REMARK  Name = 
REMARK  10 active torsions:
REMARK  status: ('A' for Active; 'I' for Inactive)
REMARK    1  A    between atoms: C_1  and  C_2
REMARK    2  A    between atoms: C_2  and  C_3
REMARK    3  A    between atoms: C_2  and  N_4
REMARK    4  A    between atoms: N_4  and  C_5
REMARK    5  A    between atoms: C_7  and  C_8
REMARK    6  A    between atoms: C_11  and  S_12
REMARK    7  A    between atoms: S_12  and  C_15
REMARK    8  A    between atoms: C_15  and  C_16
REMARK    9  A    between atoms: C_16  and  N_17
REMARK   10  A    between atoms: N_28  and  C_29
REMARK                            x       y       z     vdW  Elec       q    Type
REMARK                         _______ _______ _______ _____ _____    ______ ____
ROOT
ATOM      1  C   UNL     1       2.854   5.121  18.826  0.00  0.00    +0.000 A 
ATOM      2  N   UNL     1       2.140   6.150  19.338  0.00  0.00    +0.000 NA
ATOM      3  C   UNL     1       2.320   7.408  18.865  0.00  0.00    +0.000 A 
ATOM      4  C   UNL     1       3.207   7.673  17.834  0.00  0.00    +0.000 A 
ATOM      5  C   UNL     1       3.944   6.630  17.289  0.00  0.00    +0.000 A 
ATOM      6  N   UNL     1       4.819   6.933  16.232  0.00  0.00    +0.000 NA
ATOM      7  C   UNL     1       5.494   5.961  15.719  0.00  0.00    +0.000 A 
ATOM      8  N   UNL     1       5.419   4.658  16.133  0.00  0.00    +0.000 N 
ATOM      9  C   UNL     1       6.195   3.636  15.463  0.00  0.00    +0.000 C 
ATOM     10  C   UNL     1       4.554   4.268  17.150  0.00  0.00    +0.000 A 
ATOM     11  O   UNL     1       4.390   3.092  17.470  0.00  0.00    +0.000 OA
ATOM     12  C   UNL     1       3.779   5.345  17.800  0.00  0.00    +0.000 A 
ENDROOT
BRANCH   3  13
ATOM     13  C   UNL     1       1.539   8.462  19.545  0.00  0.00    +0.000 A 
ATOM     14  C   UNL     1       1.103   9.613  18.862  0.00  0.00    +0.000 A 
ATOM     15  C   UNL     1       0.444  10.649  19.527  0.00  0.00    +0.000 A 
ATOM     16  C   UNL     1       0.202  10.539  20.894  0.00  0.00    +0.000 A 
ATOM     17  C   UNL     1       0.586   9.399  21.598  0.00  0.00    +0.000 A 
ATOM     18  C   UNL     1       1.250   8.373  20.922  0.00  0.00    +0.000 A 
BRANCH  16  19
ATOM     19  S   UNL     1      -0.507  11.927  21.742  0.00  0.00    +0.000 S 
ATOM     20  O   UNL     1      -1.730  12.293  21.046  0.00  0.00    +0.000 OA
ATOM     21  O   UNL     1      -0.540  11.569  23.146  0.00  0.00    +0.000 OA
BRANCH  19  22
ATOM     22  C   UNL     1       0.652  13.259  21.547  0.00  0.00    +0.000 C 
BRANCH  22  23
ATOM     23  C   UNL     1       0.233  14.235  20.455  0.00  0.00    +0.000 C 
BRANCH  23  24
ATOM     24  N   UNL     1       1.255  15.263  20.147  0.00  0.00    +0.000 NA
ATOM     25  C   UNL     1       1.470  15.478  18.704  0.00  0.00    +0.000 C 
ATOM     26  C   UNL     1       2.376  14.339  18.286  0.00  0.00    +0.000 C 
ATOM     27  C   UNL     1       3.359  14.284  19.440  0.00  0.00    +0.000 C 
ATOM     28  C   UNL     1       2.581  14.820  20.643  0.00  0.00    +0.000 C 
ENDBRANCH  23  24
ENDBRANCH  22  23
ENDBRANCH  19  22
ENDBRANCH  16  19
ENDBRANCH   3  13
BRANCH   1  29
ATOM     29  N   UNL     1       2.712   3.859  19.425  0.00  0.00    +0.000 N 
ATOM     30  H   UNL     1       3.174   3.158  18.837  0.00  0.00    +0.000 HD
BRANCH  29  32
ATOM     31  C   UNL     1       0.854   2.408  18.835  0.00  0.00    +0.000 C 
ATOM     32  C   UNL     1       1.359   3.459  19.829  0.00  0.00    +0.000 C 
ATOM     33  C   UNL     1       1.350   2.862  21.236  0.00  0.00    +0.000 C 
ENDBRANCH  29  32
ENDBRANCH   1  29
TORSDOF 7
ENDMDL
MODEL 8
REMARK VINA RESULT:      -8.0      3.173      9.393
REMARK  Name = 
REMARK  10 active torsions:
REMARK  status: ('A' for Active; 'I' for Inactive)
REMARK    1  A    between atoms: C_1  and  C_2
REMARK    2  A    between atoms: C_2  and  C_3
REMARK    3  A    between atoms: C_2  and  N_4
REMARK    4  A    between atoms: N_4  and  C_5
REMARK    5  A    between atoms: C_7  and  C_8
REMARK    6  A    between atoms: C_11  and  S_12
REMARK    7  A    between atoms: S_12  and  C_15
REMARK    8  A    between atoms: C_15  and  C_16
REMARK    9  A    between atoms: C_16  and  N_17
REMARK   10  A    between atoms: N_28  and  C_29
REMARK                            x       y       z     vdW  Elec       q    Type
REMARK                         _______ _______ _______ _____ _____    ______ ____
ROOT
ATOM      1  C   UNL     1       2.958   5.995  19.506  0.00  0.00    +0.000 A 
ATOM      2  N   UNL     1       2.137   7.040  19.761  0.00  0.00    +0.000 NA
ATOM      3  C   UNL     1       2.120   8.113  18.932  0.00  0.00    +0.000 A 
ATOM      4  C   UNL     1       2.911   8.161  17.794  0.00  0.00    +0.000 A 
ATOM      5  C   UNL     1       3.754   7.096  17.511  0.00  0.00    +0.000 A 
ATOM      6  N   UNL     1       4.526   7.171  16.339  0.00  0.00    +0.000 NA
ATOM      7  C   UNL     1       5.301   6.175  16.070  0.00  0.00    +0.000 A 
ATOM      8  N   UNL     1       5.425   5.054  16.846  0.00  0.00    +0.000 N 
ATOM      9  C   UNL     1       6.298   3.976  16.433  0.00  0.00    +0.000 C 
ATOM     10  C   UNL     1       4.673   4.886  18.004  0.00  0.00    +0.000 A 
ATOM     11  O   UNL     1       4.687   3.847  18.662  0.00  0.00    +0.000 OA
ATOM     12  C   UNL     1       3.792   6.010  18.382  0.00  0.00    +0.000 A 
ENDROOT
BRANCH   3  13
ATOM     13  C   UNL     1       1.238   9.223  19.346  0.00  0.00    +0.000 A 
ATOM     14  C   UNL     1       0.617   9.239  20.609  0.00  0.00    +0.000 A 
ATOM     15  C   UNL     1      -0.287  10.241  20.965  0.00  0.00    +0.000 A 
ATOM     16  C   UNL     1      -0.575  11.257  20.055  0.00  0.00    +0.000 A 
ATOM     17  C   UNL     1       0.047  11.296  18.809  0.00  0.00    +0.000 A 
ATOM     18  C   UNL     1       0.945  10.283  18.463  0.00  0.00    +0.000 A 
BRANCH  16  19
ATOM     19  S   UNL     1      -1.831  12.437  20.475  0.00  0.00    +0.000 S 
ATOM     20  O   UNL     1      -2.263  12.160  21.835  0.00  0.00    +0.000 OA
ATOM     21  O   UNL     1      -1.297  13.738  20.123  0.00  0.00    +0.000 OA
BRANCH  19  22
ATOM     22  C   UNL     1      -3.196  12.100  19.389  0.00  0.00    +0.000 C 
BRANCH  22  23
ATOM     23  C   UNL     1      -4.530  12.533  19.986  0.00  0.00    +0.000 C 
BRANCH  23  24
ATOM     24  N   UNL     1      -5.629  12.615  18.995  0.00  0.00    +0.000 NA
ATOM     25  C   UNL     1      -6.973  12.687  19.599  0.00  0.00    +0.000 C 
ATOM     26  C   UNL     1      -7.299  11.252  19.957  0.00  0.00    +0.000 C 
ATOM     27  C   UNL     1      -6.796  10.504  18.738  0.00  0.00    +0.000 C 
ATOM     28  C   UNL     1      -5.669  11.377  18.181  0.00  0.00    +0.000 C 
ENDBRANCH  23  24
ENDBRANCH  22  23
ENDBRANCH  19  22
ENDBRANCH  16  19
ENDBRANCH   3  13
BRANCH   1  29
ATOM     29  N   UNL     1       3.019   4.960  20.453  0.00  0.00    +0.000 N 
ATOM     30  H   UNL     1       3.759   4.304  20.181  0.00  0.00    +0.000 HD
BRANCH  29  32
ATOM     31  C   UNL     1       1.175   3.693  19.505  0.00  0.00    +0.000 C 
ATOM     32  C   UNL     1       1.760   4.287  20.791  0.00  0.00    +0.000 C 
ATOM     33  C   UNL     1       1.981   3.165  21.805  0.00  0.00    +0.000 C 
ENDBRANCH  29  32
ENDBRANCH   1  29
TORSDOF 7
ENDMDL
MODEL 9
REMARK VINA RESULT:      -7.9      1.811      2.275
REMARK  Name = 
REMARK  10 active torsions:
REMARK  status: ('A' for Active; 'I' for Inactive)
REMARK    1  A    between atoms: C_1  and  C_2
REMARK    2  A    between atoms: C_2  and  C_3
REMARK    3  A    between atoms: C_2  and  N_4
REMARK    4  A    between atoms: N_4  and  C_5
REMARK    5  A    between atoms: C_7  and  C_8
REMARK    6  A    between atoms: C_11  and  S_12
REMARK    7  A    between atoms: S_12  and  C_15
REMARK    8  A    between atoms: C_15  and  C_16
REMARK    9  A    between atoms: C_16  and  N_17
REMARK   10  A    between atoms: N_28  and  C_29
REMARK                            x       y       z     vdW  Elec       q    Type
REMARK                         _______ _______ _______ _____ _____    ______ ____
ROOT
ATOM      1  C   UNL     1       0.319  11.551  19.581  0.00  0.00    +0.000 A 
ATOM      2  N   UNL     1       1.002  10.480  19.116  0.00  0.00    +0.000 NA
ATOM      3  C   UNL     1       1.082   9.347  19.858  0.00  0.00    +0.000 A 
ATOM      4  C   UNL     1       0.450   9.241  21.087  0.00  0.00    +0.000 A 
ATOM      5  C   UNL     1      -0.262  10.327  21.578  0.00  0.00    +0.000 A 
ATOM      6  N   UNL     1      -0.906  10.177  22.818  0.00  0.00    +0.000 NA
ATOM      7  C   UNL     1      -1.577  11.183  23.268  0.00  0.00    +0.000 A 
ATOM      8  N   UNL     1      -1.703  12.384  22.624  0.00  0.00    +0.000 N 
ATOM      9  C   UNL     1      -2.512  13.437  23.201  0.00  0.00    +0.000 C 
ATOM     10  C   UNL     1      -1.126  12.604  21.379  0.00  0.00    +0.000 A 
ATOM     11  O   UNL     1      -1.309  13.634  20.731  0.00  0.00    +0.000 OA
ATOM     12  C   UNL     1      -0.315  11.499  20.827  0.00  0.00    +0.000 A 
ENDROOT
BRANCH   3  13
ATOM     13  C   UNL     1       1.910   8.267  19.284  0.00  0.00    +0.000 A 
ATOM     14  C   UNL     1       2.218   7.105  20.017  0.00  0.00    +0.000 A 
ATOM     15  C   UNL     1       3.074   6.128  19.508  0.00  0.00    +0.000 A 
ATOM     16  C   UNL     1       3.629   6.297  18.241  0.00  0.00    +0.000 A 
ATOM     17  C   UNL     1       3.319   7.416  17.470  0.00  0.00    +0.000 A 
ATOM     18  C   UNL     1       2.467   8.390  17.995  0.00  0.00    +0.000 A 
BRANCH  16  19
ATOM     19  S   UNL     1       4.823   5.114  17.675  0.00  0.00    +0.000 S 
ATOM     20  O   UNL     1       5.575   5.726  16.592  0.00  0.00    +0.000 OA
ATOM     21  O   UNL     1       5.504   4.628  18.859  0.00  0.00    +0.000 OA
BRANCH  19  22
ATOM     22  C   UNL     1       3.887   3.765  16.996  0.00  0.00    +0.000 C 
BRANCH  22  23
ATOM     23  C   UNL     1       2.458   3.729  17.523  0.00  0.00    +0.000 C 
BRANCH  23  24
ATOM     24  N   UNL     1       2.114   2.474  18.232  0.00  0.00    +0.000 NA
ATOM     25  C   UNL     1       0.744   2.453  18.778  0.00  0.00    +0.000 C 
ATOM     26  C   UNL     1       0.842   3.245  20.065  0.00  0.00    +0.000 C 
ATOM     27  C   UNL     1       2.150   2.740  20.644  0.00  0.00    +0.000 C 
ATOM     28  C   UNL     1       2.977   2.317  19.427  0.00  0.00    +0.000 C 
ENDBRANCH  23  24
ENDBRANCH  22  23
ENDBRANCH  19  22
ENDBRANCH  16  19
ENDBRANCH   3  13
BRANCH   1  29
ATOM     29  N   UNL     1       0.360  12.735  18.826  0.00  0.00    +0.000 N 
ATOM     30  H   UNL     1       0.171  12.509  17.843  0.00  0.00    +0.000 HD
BRANCH  29  32
ATOM     31  C   UNL     1       2.577  13.196  17.944  0.00  0.00    +0.000 C 
ATOM     32  C   UNL     1       1.536  13.595  18.995  0.00  0.00    +0.000 C 
ATOM     33  C   UNL     1       1.180  15.071  18.810  0.00  0.00    +0.000 C 
ENDBRANCH  29  32
ENDBRANCH   1  29
TORSDOF 7
ENDMDL
