MODEL 1
REMARK VINA RESULT:      -8.1      0.000      0.000
REMARK  Name = 
REMARK  6 active torsions:
REMARK  status: ('A' for Active; 'I' for Inactive)
REMARK    1  A    between atoms: C_1  and  N_2
REMARK    2  A    between atoms: C_3  and  C_4
REMARK    3  A    between atoms: C_4  and  C_5
REMARK    4  A    between atoms: C_11  and  N_12
REMARK    5  A    between atoms: N_22  and  C_23
REMARK    6  A    between atoms: C_23  and  C_24
REMARK                            x       y       z     vdW  Elec       q    Type
REMARK                         _______ _______ _______ _____ _____    ______ ____
ROOT
ATOM      1  C   UNL     1       0.022   9.780  18.314  0.00  0.00    +0.000 C 
ATOM      2  N   UNL     1       1.069   9.813  19.334  0.00  0.00    +0.000 NA
ATOM      3  C   UNL     1       1.159   8.539  20.101  0.00  0.00    +0.000 C 
ATOM      4  C   UNL     1       1.057   8.902  21.585  0.00  0.00    +0.000 C 
ATOM      5  C   UNL     1       0.545  10.314  21.604  0.00  0.00    +0.000 C 
ATOM      6  C   UNL     1      -0.970  10.415  21.543  0.00  0.00    +0.000 C 
ATOM      7  N   UNL     1      -1.226  11.761  21.009  0.00  0.00    +0.000 NA
ATOM      8  C   UNL     1      -0.062  12.078  20.136  0.00  0.00    +0.000 C 
ATOM      9  C   UNL     1       0.972  10.938  20.292  0.00  0.00    +0.000 C 
ENDROOT
BRANCH   3  10
ATOM     10  C   UNL     1       2.477   7.796  19.791  0.00  0.00    +0.000 C 
BRANCH  10  11
ATOM     11  C   UNL     1       2.325   6.299  19.686  0.00  0.00    +0.000 A 
ATOM     12  C   UNL     1       1.432   5.503  20.379  0.00  0.00    +0.000 A 
ATOM     13  N   UNL     1       1.617   4.200  19.992  0.00  0.00    +0.000 N 
ATOM     14  C   UNL     1       2.583   4.129  19.025  0.00  0.00    +0.000 A 
ATOM     15  C   UNL     1       3.054   3.024  18.319  0.00  0.00    +0.000 A 
ATOM     16  C   UNL     1       4.054   3.249  17.364  0.00  0.00    +0.000 A 
ATOM     17  C   UNL     1       4.580   4.529  17.153  0.00  0.00    +0.000 A 
ATOM     18  C   UNL     1       4.103   5.621  17.900  0.00  0.00    +0.000 A 
ATOM     19  C   UNL     1       3.069   5.418  18.835  0.00  0.00    +0.000 A 
ATOM     20  H   UNL     1       1.104   3.407  20.351  0.00  0.00    +0.000 HD
BRANCH  17  21
ATOM     21  N   UNL     1       5.577   4.735  16.163  0.00  0.00    +0.000 N 
ATOM     22  C   UNL     1       5.539   4.339  14.845  0.00  0.00    +0.000 A 
ATOM     23  C   UNL     1       6.736   4.732  14.299  0.00  0.00    +0.000 A 
ATOM     24  N   UNL     1       7.515   5.362  15.222  0.00  0.00    +0.000 NA
ATOM     25  C   UNL     1       6.798   5.352  16.324  0.00  0.00    +0.000 A 
ENDBRANCH  17  21
ENDBRANCH  10  11
ENDBRANCH   3  10
BRANCH   7  26
ATOM     26  C   UNL     1      -1.361  12.724  22.115  0.00  0.00    +0.000 C 
BRANCH  26  27
ATOM     27  C   UNL     1      -2.769  12.835  22.655  0.00  0.00    +0.000 A 
ATOM     28  C   UNL     1      -3.818  13.300  21.852  0.00  0.00    +0.000 A 
ATOM     29  C   UNL     1      -5.119  13.366  22.354  0.00  0.00    +0.000 A 
ATOM     30  C   UNL     1      -5.387  12.944  23.655  0.00  0.00    +0.000 A 
ATOM     31  C   UNL     1      -4.352  12.483  24.466  0.00  0.00    +0.000 A 
ATOM     32  C   UNL     1      -3.047  12.444  23.974  0.00  0.00    +0.000 A 
ENDBRANCH  26  27
ENDBRANCH   7  26
TORSDOF 5
ENDMDL
MODEL 2
REMARK VINA RESULT:      -8.0      1.198      1.431
REMARK  Name = 
REMARK  6 active torsions:
REMARK  status: ('A' for Active; 'I' for Inactive)
REMARK    1  A    between atoms: C_1  and  N_2
REMARK    2  A    between atoms: C_3  and  C_4
REMARK    3  A    between atoms: C_4  and  C_5
REMARK    4  A    between atoms: C_11  and  N_12
REMARK    5  A    between atoms: N_22  and  C_23
REMARK    6  A    between atoms: C_23  and  C_24
REMARK                            x       y       z     vdW  Elec       q    Type
REMARK                         _______ _______ _______ _____ _____    ______ ____
ROOT
ATOM      1  C   UNL     1      -1.209   9.871  17.697  0.00  0.00    +0.000 C 
ATOM      2  N   UNL     1       0.090  10.327  18.189  0.00  0.00    +0.000 NA
ATOM      3  C   UNL     1       0.681   9.394  19.190  0.00  0.00    +0.000 C 
ATOM      4  C   UNL     1       1.009  10.223  20.435  0.00  0.00    +0.000 C 
ATOM      5  C   UNL     1       0.265  11.516  20.247  0.00  0.00    +0.000 C 
ATOM      6  C   UNL     1      -1.171  11.469  20.739  0.00  0.00    +0.000 C 
ATOM      7  N   UNL     1      -1.851  12.534  19.986  0.00  0.00    +0.000 NA
ATOM      8  C   UNL     1      -1.131  12.632  18.686  0.00  0.00    +0.000 C 
ATOM      9  C   UNL     1       0.099  11.696  18.753  0.00  0.00    +0.000 C 
ENDROOT
BRANCH   3  10
ATOM     10  C   UNL     1       1.939   8.698  18.627  0.00  0.00    +0.000 C 
BRANCH  10  11
ATOM     11  C   UNL     1       2.265   7.388  19.299  0.00  0.00    +0.000 A 
ATOM     12  C   UNL     1       1.701   6.883  20.456  0.00  0.00    +0.000 A 
ATOM     13  N   UNL     1       2.273   5.666  20.725  0.00  0.00    +0.000 N 
ATOM     14  C   UNL     1       3.170   5.339  19.745  0.00  0.00    +0.000 A 
ATOM     15  C   UNL     1       3.937   4.187  19.589  0.00  0.00    +0.000 A 
ATOM     16  C   UNL     1       4.773   4.116  18.468  0.00  0.00    +0.000 A 
ATOM     17  C   UNL     1       4.856   5.177  17.557  0.00  0.00    +0.000 A 
ATOM     18  C   UNL     1       4.089   6.338  17.755  0.00  0.00    +0.000 A 
ATOM     19  C   UNL     1       3.213   6.409  18.857  0.00  0.00    +0.000 A 
ATOM     20  H   UNL     1       2.054   5.082  21.521  0.00  0.00    +0.000 HD
BRANCH  17  21
ATOM     21  N   UNL     1       5.693   5.071  16.416  0.00  0.00    +0.000 N 
ATOM     22  C   UNL     1       5.406   4.444  15.224  0.00  0.00    +0.000 A 
ATOM     23  C   UNL     1       6.530   4.580  14.446  0.00  0.00    +0.000 A 
ATOM     24  N   UNL     1       7.503   5.270  15.104  0.00  0.00    +0.000 NA
ATOM     25  C   UNL     1       6.976   5.553  16.274  0.00  0.00    +0.000 A 
ENDBRANCH  17  21
ENDBRANCH  10  11
ENDBRANCH   3  10
BRANCH   7  26
ATOM     26  C   UNL     1      -1.797  13.797  20.740  0.00  0.00    +0.000 C 
BRANCH  26  27
ATOM     27  C   UNL     1      -2.582  13.769  22.032  0.00  0.00    +0.000 A 
ATOM     28  C   UNL     1      -3.873  13.229  22.082  0.00  0.00    +0.000 A 
ATOM     29  C   UNL     1      -4.574  13.179  23.289  0.00  0.00    +0.000 A 
ATOM     30  C   UNL     1      -3.979  13.643  24.461  0.00  0.00    +0.000 A 
ATOM     31  C   UNL     1      -2.696  14.186  24.424  0.00  0.00    +0.000 A 
ATOM     32  C   UNL     1      -2.007  14.263  23.214  0.00  0.00    +0.000 A 
ENDBRANCH  26  27
ENDBRANCH   7  26
TORSDOF 5
ENDMDL
MODEL 3
REMARK VINA RESULT:      -7.9      3.791      9.067
REMARK  Name = 
REMARK  6 active torsions:
REMARK  status: ('A' for Active; 'I' for Inactive)
REMARK    1  A    between atoms: C_1  and  N_2
REMARK    2  A    between atoms: C_3  and  C_4
REMARK    3  A    between atoms: C_4  and  C_5
REMARK    4  A    between atoms: C_11  and  N_12
REMARK    5  A    between atoms: N_22  and  C_23
REMARK    6  A    between atoms: C_23  and  C_24
REMARK                            x       y       z     vdW  Elec       q    Type
REMARK                         _______ _______ _______ _____ _____    ______ ____
ROOT
ATOM      1  C   UNL     1       7.973   4.474  18.043  0.00  0.00    +0.000 C 
ATOM      2  N   UNL     1       6.600   4.968  17.955  0.00  0.00    +0.000 NA
ATOM      3  C   UNL     1       6.002   4.753  16.607  0.00  0.00    +0.000 C 
ATOM      4  C   UNL     1       5.490   6.112  16.122  0.00  0.00    +0.000 C 
ATOM      5  C   UNL     1       6.135   7.117  17.034  0.00  0.00    +0.000 C 
ATOM      6  C   UNL     1       7.519   7.551  16.582  0.00  0.00    +0.000 C 
ATOM      7  N   UNL     1       8.172   8.031  17.809  0.00  0.00    +0.000 NA
ATOM      8  C   UNL     1       7.569   7.244  18.921  0.00  0.00    +0.000 C 
ATOM      9  C   UNL     1       6.423   6.390  18.331  0.00  0.00    +0.000 C 
ENDROOT
BRANCH   3  10
ATOM     10  C   UNL     1       4.865   3.709  16.664  0.00  0.00    +0.000 C 
BRANCH  10  11
ATOM     11  C   UNL     1       4.212   3.590  18.018  0.00  0.00    +0.000 A 
ATOM     12  C   UNL     1       4.267   2.509  18.877  0.00  0.00    +0.000 A 
ATOM     13  N   UNL     1       3.542   2.808  20.003  0.00  0.00    +0.000 N 
ATOM     14  C   UNL     1       3.048   4.081  19.920  0.00  0.00    +0.000 A 
ATOM     15  C   UNL     1       2.305   4.808  20.847  0.00  0.00    +0.000 A 
ATOM     16  C   UNL     1       1.940   6.114  20.499  0.00  0.00    +0.000 A 
ATOM     17  C   UNL     1       2.282   6.654  19.252  0.00  0.00    +0.000 A 
ATOM     18  C   UNL     1       3.010   5.887  18.327  0.00  0.00    +0.000 A 
ATOM     19  C   UNL     1       3.420   4.585  18.679  0.00  0.00    +0.000 A 
ATOM     20  H   UNL     1       3.405   2.188  20.789  0.00  0.00    +0.000 HD
BRANCH  17  21
ATOM     21  N   UNL     1       1.920   7.989  18.932  0.00  0.00    +0.000 N 
ATOM     22  C   UNL     1       1.262   8.893  19.736  0.00  0.00    +0.000 A 
ATOM     23  C   UNL     1       1.112  10.029  18.981  0.00  0.00    +0.000 A 
ATOM     24  N   UNL     1       1.654   9.872  17.741  0.00  0.00    +0.000 NA
ATOM     25  C   UNL     1       2.132   8.648  17.740  0.00  0.00    +0.000 A 
ENDBRANCH  17  21
ENDBRANCH  10  11
ENDBRANCH   3  10
BRANCH   7  26
ATOM     26  C   UNL     1       7.940   9.476  17.972  0.00  0.00    +0.000 C 
BRANCH  26  27
ATOM     27  C   UNL     1       9.129  10.222  18.533  0.00  0.00    +0.000 A 
ATOM     28  C   UNL     1      10.087  10.798  17.689  0.00  0.00    +0.000 A 
ATOM     29  C   UNL     1      11.162  11.513  18.221  0.00  0.00    +0.000 A 
ATOM     30  C   UNL     1      11.274  11.681  19.600  0.00  0.00    +0.000 A 
ATOM     31  C   UNL     1      10.330  11.110  20.452  0.00  0.00    +0.000 A 
ATOM     32  C   UNL     1       9.272  10.371  19.922  0.00  0.00    +0.000 A 
ENDBRANCH  26  27
ENDBRANCH   7  26
TORSDOF 5
ENDMDL
MODEL 4
REMARK VINA RESULT:      -7.8      0.778      1.204
REMARK  Name = 
REMARK  6 active torsions:
REMARK  status: ('A' for Active; 'I' for Inactive)
REMARK    1  A    between atoms: C_1  and  N_2
REMARK    2  A    between atoms: C_3  and  C_4
REMARK    3  A    between atoms: C_4  and  C_5
REMARK    4  A    between atoms: C_11  and  N_12
REMARK    5  A    between atoms: N_22  and  C_23
REMARK    6  A    between atoms: C_23  and  C_24
REMARK                            x       y       z     vdW  Elec       q    Type
REMARK                         _______ _______ _______ _____ _____    ______ ____
ROOT
ATOM      1  C   UNL     1       0.774   9.257  18.068  0.00  0.00    +0.000 C 
ATOM      2  N   UNL     1       1.452   9.317  19.362  0.00  0.00    +0.000 NA
ATOM      3  C   UNL     1       1.104   8.166  20.242  0.00  0.00    +0.000 C 
ATOM      4  C   UNL     1       0.611   8.750  21.569  0.00  0.00    +0.000 C 
ATOM      5  C   UNL     1       0.344  10.201  21.279  0.00  0.00    +0.000 C 
ATOM      6  C   UNL     1      -1.044  10.466  20.722  0.00  0.00    +0.000 C 
ATOM      7  N   UNL     1      -0.913  11.740  20.001  0.00  0.00    +0.000 NA
ATOM      8  C   UNL     1       0.497  11.790  19.523  0.00  0.00    +0.000 C 
ATOM      9  C   UNL     1       1.243  10.573  20.119  0.00  0.00    +0.000 C 
ENDROOT
BRANCH   3  10
ATOM     10  C   UNL     1       2.321   7.238  20.451  0.00  0.00    +0.000 C 
BRANCH  10  11
ATOM     11  C   UNL     1       2.085   5.814  20.016  0.00  0.00    +0.000 A 
ATOM     12  C   UNL     1       1.083   4.966  20.451  0.00  0.00    +0.000 A 
ATOM     13  N   UNL     1       1.221   3.762  19.809  0.00  0.00    +0.000 N 
ATOM     14  C   UNL     1       2.267   3.815  18.927  0.00  0.00    +0.000 A 
ATOM     15  C   UNL     1       2.730   2.848  18.039  0.00  0.00    +0.000 A 
ATOM     16  C   UNL     1       3.827   3.184  17.235  0.00  0.00    +0.000 A 
ATOM     17  C   UNL     1       4.450   4.433  17.345  0.00  0.00    +0.000 A 
ATOM     18  C   UNL     1       3.975   5.380  18.269  0.00  0.00    +0.000 A 
ATOM     19  C   UNL     1       2.848   5.072  19.056  0.00  0.00    +0.000 A 
ATOM     20  H   UNL     1       0.629   2.955  19.949  0.00  0.00    +0.000 HD
BRANCH  17  21
ATOM     21  N   UNL     1       5.545   4.759  16.502  0.00  0.00    +0.000 N 
ATOM     22  C   UNL     1       5.965   4.082  15.379  0.00  0.00    +0.000 A 
ATOM     23  C   UNL     1       7.073   4.754  14.926  0.00  0.00    +0.000 A 
ATOM     24  N   UNL     1       7.357   5.826  15.718  0.00  0.00    +0.000 NA
ATOM     25  C   UNL     1       6.428   5.806  16.648  0.00  0.00    +0.000 A 
ENDBRANCH  17  21
ENDBRANCH  10  11
ENDBRANCH   3  10
BRANCH   7  26
ATOM     26  C   UNL     1      -1.227  12.863  20.900  0.00  0.00    +0.000 C 
BRANCH  26  27
ATOM     27  C   UNL     1      -2.660  12.873  21.382  0.00  0.00    +0.000 A 
ATOM     28  C   UNL     1      -2.965  12.774  22.746  0.00  0.00    +0.000 A 
ATOM     29  C   UNL     1      -4.292  12.818  23.180  0.00  0.00    +0.000 A 
ATOM     30  C   UNL     1      -5.322  12.987  22.257  0.00  0.00    +0.000 A 
ATOM     31  C   UNL     1      -5.033  13.082  20.897  0.00  0.00    +0.000 A 
ATOM     32  C   UNL     1      -3.710  13.009  20.460  0.00  0.00    +0.000 A 
ENDBRANCH  26  27
ENDBRANCH   7  26
TORSDOF 5
ENDMDL
MODEL 5
REMARK VINA RESULT:      -7.6      2.989      3.926
REMARK  Name = 
REMARK  6 active torsions:
REMARK  status: ('A' for Active; 'I' for Inactive)
REMARK    1  A    between atoms: C_1  and  N_2
REMARK    2  A    between atoms: C_3  and  C_4
REMARK    3  A    between atoms: C_4  and  C_5
REMARK    4  A    between atoms: C_11  and  N_12
REMARK    5  A    between atoms: N_22  and  C_23
REMARK    6  A    between atoms: C_23  and  C_24
REMARK                            x       y       z     vdW  Elec       q    Type
REMARK                         _______ _______ _______ _____ _____    ______ ____
ROOT
ATOM      1  C   UNL     1      -0.205  11.247  20.225  0.00  0.00    +0.000 C 
ATOM      2  N   UNL     1       0.324  11.305  18.863  0.00  0.00    +0.000 NA
ATOM      3  C   UNL     1       1.734  10.828  18.778  0.00  0.00    +0.000 C 
ATOM      4  C   UNL     1       2.541  11.937  18.098  0.00  0.00    +0.000 C 
ATOM      5  C   UNL     1       1.654  13.150  18.150  0.00  0.00    +0.000 C 
ATOM      6  C   UNL     1       1.779  13.941  19.440  0.00  0.00    +0.000 C 
ATOM      7  N   UNL     1       0.510  14.677  19.543  0.00  0.00    +0.000 NA
ATOM      8  C   UNL     1      -0.506  13.827  18.862  0.00  0.00    +0.000 C 
ATOM      9  C   UNL     1       0.232  12.633  18.213  0.00  0.00    +0.000 C 
ENDROOT
BRANCH   3  10
ATOM     10  C   UNL     1       1.824   9.501  17.993  0.00  0.00    +0.000 C 
BRANCH  10  11
ATOM     11  C   UNL     1       2.070   8.293  18.862  0.00  0.00    +0.000 A 
ATOM     12  C   UNL     1       1.444   7.985  20.055  0.00  0.00    +0.000 A 
ATOM     13  N   UNL     1       1.954   6.801  20.523  0.00  0.00    +0.000 N 
ATOM     14  C   UNL     1       2.871   6.301  19.639  0.00  0.00    +0.000 A 
ATOM     15  C   UNL     1       3.594   5.112  19.686  0.00  0.00    +0.000 A 
ATOM     16  C   UNL     1       4.466   4.845  18.623  0.00  0.00    +0.000 A 
ATOM     17  C   UNL     1       4.627   5.757  17.572  0.00  0.00    +0.000 A 
ATOM     18  C   UNL     1       3.904   6.962  17.566  0.00  0.00    +0.000 A 
ATOM     19  C   UNL     1       2.992   7.226  18.607  0.00  0.00    +0.000 A 
ATOM     20  H   UNL     1       1.682   6.349  21.385  0.00  0.00    +0.000 HD
BRANCH  17  21
ATOM     21  N   UNL     1       5.500   5.454  16.494  0.00  0.00    +0.000 N 
ATOM     22  C   UNL     1       5.231   4.669  15.395  0.00  0.00    +0.000 A 
ATOM     23  C   UNL     1       6.386   4.648  14.654  0.00  0.00    +0.000 A 
ATOM     24  N   UNL     1       7.363   5.392  15.245  0.00  0.00    +0.000 NA
ATOM     25  C   UNL     1       6.806   5.863  16.338  0.00  0.00    +0.000 A 
ENDBRANCH  17  21
ENDBRANCH  10  11
ENDBRANCH   3  10
BRANCH   7  26
ATOM     26  C   UNL     1       0.640  15.997  18.902  0.00  0.00    +0.000 C 
BRANCH  26  27
ATOM     27  C   UNL     1      -0.562  16.892  19.106  0.00  0.00    +0.000 A 
ATOM     28  C   UNL     1      -1.225  16.943  20.339  0.00  0.00    +0.000 A 
ATOM     29  C   UNL     1      -2.312  17.800  20.523  0.00  0.00    +0.000 A 
ATOM     30  C   UNL     1      -2.729  18.631  19.485  0.00  0.00    +0.000 A 
ATOM     31  C   UNL     1      -2.081  18.587  18.252  0.00  0.00    +0.000 A 
ATOM     32  C   UNL     1      -1.013  17.711  18.059  0.00  0.00    +0.000 A 
ENDBRANCH  26  27
ENDBRANCH   7  26
TORSDOF 5
ENDMDL
MODEL 6
REMARK VINA RESULT:      -7.6      1.130      1.549
REMARK  Name = 
REMARK  6 active torsions:
REMARK  status: ('A' for Active; 'I' for Inactive)
REMARK    1  A    between atoms: C_1  and  N_2
REMARK    2  A    between atoms: C_3  and  C_4
REMARK    3  A    between atoms: C_4  and  C_5
REMARK    4  A    between atoms: C_11  and  N_12
REMARK    5  A    between atoms: N_22  and  C_23
REMARK    6  A    between atoms: C_23  and  C_24
REMARK                            x       y       z     vdW  Elec       q    Type
REMARK                         _______ _______ _______ _____ _____    ______ ____
ROOT
ATOM      1  C   UNL     1      -0.944   9.876  17.589  0.00  0.00    +0.000 C 
ATOM      2  N   UNL     1       0.285  10.286  18.267  0.00  0.00    +0.000 NA
ATOM      3  C   UNL     1       0.750   9.278  19.262  0.00  0.00    +0.000 C 
ATOM      4  C   UNL     1       0.924  10.013  20.594  0.00  0.00    +0.000 C 
ATOM      5  C   UNL     1       0.206  11.321  20.413  0.00  0.00    +0.000 C 
ATOM      6  C   UNL     1      -1.279  11.250  20.721  0.00  0.00    +0.000 C 
ATOM      7  N   UNL     1      -1.864  12.371  19.971  0.00  0.00    +0.000 NA
ATOM      8  C   UNL     1      -0.991  12.557  18.778  0.00  0.00    +0.000 C 
ATOM      9  C   UNL     1       0.223  11.611  18.926  0.00  0.00    +0.000 C 
ENDROOT
BRANCH   3  10
ATOM     10  C   UNL     1       2.069   8.615  18.807  0.00  0.00    +0.000 C 
BRANCH  10  11
ATOM     11  C   UNL     1       2.320   7.265  19.428  0.00  0.00    +0.000 A 
ATOM     12  C   UNL     1       1.743   6.757  20.578  0.00  0.00    +0.000 A 
ATOM     13  N   UNL     1       2.239   5.497  20.796  0.00  0.00    +0.000 N 
ATOM     14  C   UNL     1       3.096   5.148  19.788  0.00  0.00    +0.000 A 
ATOM     15  C   UNL     1       3.783   3.954  19.580  0.00  0.00    +0.000 A 
ATOM     16  C   UNL     1       4.594   3.868  18.440  0.00  0.00    +0.000 A 
ATOM     17  C   UNL     1       4.730   4.952  17.565  0.00  0.00    +0.000 A 
ATOM     18  C   UNL     1       4.045   6.153  17.816  0.00  0.00    +0.000 A 
ATOM     19  C   UNL     1       3.194   6.242  18.936  0.00  0.00    +0.000 A 
ATOM     20  H   UNL     1       1.996   4.902  21.576  0.00  0.00    +0.000 HD
BRANCH  17  21
ATOM     21  N   UNL     1       5.540   4.832  16.404  0.00  0.00    +0.000 N 
ATOM     22  C   UNL     1       6.859   5.198  16.264  0.00  0.00    +0.000 A 
ATOM     23  C   UNL     1       7.192   4.918  14.962  0.00  0.00    +0.000 A 
ATOM     24  N   UNL     1       6.134   4.387  14.287  0.00  0.00    +0.000 NA
ATOM     25  C   UNL     1       5.164   4.344  15.172  0.00  0.00    +0.000 A 
ENDBRANCH  17  21
ENDBRANCH  10  11
ENDBRANCH   3  10
BRANCH   7  26
ATOM     26  C   UNL     1      -1.903  13.576  20.816  0.00  0.00    +0.000 C 
BRANCH  26  27
ATOM     27  C   UNL     1      -2.888  13.485  21.959  0.00  0.00    +0.000 A 
ATOM     28  C   UNL     1      -2.494  13.753  23.276  0.00  0.00    +0.000 A 
ATOM     29  C   UNL     1      -3.422  13.697  24.318  0.00  0.00    +0.000 A 
ATOM     30  C   UNL     1      -4.757  13.400  24.049  0.00  0.00    +0.000 A 
ATOM     31  C   UNL     1      -5.162  13.128  22.743  0.00  0.00    +0.000 A 
ATOM     32  C   UNL     1      -4.229  13.155  21.706  0.00  0.00    +0.000 A 
ENDBRANCH  26  27
ENDBRANCH   7  26
TORSDOF 5
ENDMDL
MODEL 7
REMARK VINA RESULT:      -7.6      3.373      4.725
REMARK  Name = 
REMARK  6 active torsions:
REMARK  status: ('A' for Active; 'I' for Inactive)
REMARK    1  A    between atoms: C_1  and  N_2
REMARK    2  A    between atoms: C_3  and  C_4
REMARK    3  A    between atoms: C_4  and  C_5
REMARK    4  A    between atoms: C_11  and  N_12
REMARK    5  A    between atoms: N_22  and  C_23
REMARK    6  A    between atoms: C_23  and  C_24
REMARK                            x       y       z     vdW  Elec       q    Type
REMARK                         _______ _______ _______ _____ _____    ______ ____
ROOT
ATOM      1  C   UNL     1      -1.509  12.024  19.415  0.00  0.00    +0.000 C 
ATOM      2  N   UNL     1      -0.186  12.047  18.794  0.00  0.00    +0.000 NA
ATOM      3  C   UNL     1       0.810  11.228  19.542  0.00  0.00    +0.000 C 
ATOM      4  C   UNL     1       2.005  12.138  19.838  0.00  0.00    +0.000 C 
ATOM      5  C   UNL     1       1.506  13.532  19.580  0.00  0.00    +0.000 C 
ATOM      6  C   UNL     1       0.813  14.162  20.776  0.00  0.00    +0.000 C 
ATOM      7  N   UNL     1      -0.059  15.193  20.193  0.00  0.00    +0.000 NA
ATOM      8  C   UNL     1      -0.429  14.691  18.840  0.00  0.00    +0.000 C 
ATOM      9  C   UNL     1       0.379  13.399  18.576  0.00  0.00    +0.000 C 
ENDROOT
BRANCH   3  10
ATOM     10  C   UNL     1       1.234   9.987  18.726  0.00  0.00    +0.000 C 
BRANCH  10  11
ATOM     11  C   UNL     1       1.440   8.748  19.560  0.00  0.00    +0.000 A 
ATOM     12  C   UNL     1       0.871   8.468  20.789  0.00  0.00    +0.000 A 
ATOM     13  N   UNL     1       1.317   7.240  21.206  0.00  0.00    +0.000 N 
ATOM     14  C   UNL     1       2.132   6.686  20.256  0.00  0.00    +0.000 A 
ATOM     15  C   UNL     1       2.761   5.444  20.239  0.00  0.00    +0.000 A 
ATOM     16  C   UNL     1       3.538   5.130  19.117  0.00  0.00    +0.000 A 
ATOM     17  C   UNL     1       3.700   6.046  18.069  0.00  0.00    +0.000 A 
ATOM     18  C   UNL     1       3.074   7.303  18.127  0.00  0.00    +0.000 A 
ATOM     19  C   UNL     1       2.257   7.618  19.231  0.00  0.00    +0.000 A 
ATOM     20  H   UNL     1       1.068   6.795  22.079  0.00  0.00    +0.000 HD
BRANCH  17  21
ATOM     21  N   UNL     1       4.474   5.695  16.932  0.00  0.00    +0.000 N 
ATOM     22  C   UNL     1       4.649   4.440  16.395  0.00  0.00    +0.000 A 
ATOM     23  C   UNL     1       5.500   4.600  15.329  0.00  0.00    +0.000 A 
ATOM     24  N   UNL     1       5.857   5.906  15.177  0.00  0.00    +0.000 NA
ATOM     25  C   UNL     1       5.228   6.537  16.144  0.00  0.00    +0.000 A 
ENDBRANCH  17  21
ENDBRANCH  10  11
ENDBRANCH   3  10
BRANCH   7  26
ATOM     26  C   UNL     1       0.656  16.478  20.125  0.00  0.00    +0.000 C 
BRANCH  26  27
ATOM     27  C   UNL     1       0.501  17.190  18.800  0.00  0.00    +0.000 A 
ATOM     28  C   UNL     1      -0.701  17.822  18.455  0.00  0.00    +0.000 A 
ATOM     29  C   UNL     1      -0.819  18.505  17.243  0.00  0.00    +0.000 A 
ATOM     30  C   UNL     1       0.270  18.584  16.377  0.00  0.00    +0.000 A 
ATOM     31  C   UNL     1       1.470  17.956  16.706  0.00  0.00    +0.000 A 
ATOM     32  C   UNL     1       1.580  17.249  17.904  0.00  0.00    +0.000 A 
ENDBRANCH  26  27
ENDBRANCH   7  26
TORSDOF 5
ENDMDL
MODEL 8
REMARK VINA RESULT:      -7.5      1.316      1.942
REMARK  Name = 
REMARK  6 active torsions:
REMARK  status: ('A' for Active; 'I' for Inactive)
REMARK    1  A    between atoms: C_1  and  N_2
REMARK    2  A    between atoms: C_3  and  C_4
REMARK    3  A    between atoms: C_4  and  C_5
REMARK    4  A    between atoms: C_11  and  N_12
REMARK    5  A    between atoms: N_22  and  C_23
REMARK    6  A    between atoms: C_23  and  C_24
REMARK                            x       y       z     vdW  Elec       q    Type
REMARK                         _______ _______ _______ _____ _____    ______ ____
ROOT
ATOM      1  C   UNL     1       1.226   8.980  21.863  0.00  0.00    +0.000 C 
ATOM      2  N   UNL     1       0.700   9.141  20.508  0.00  0.00    +0.000 NA
ATOM      3  C   UNL     1       1.778   9.184  19.480  0.00  0.00    +0.000 C 
ATOM      4  C   UNL     1       1.569  10.464  18.666  0.00  0.00    +0.000 C 
ATOM      5  C   UNL     1       0.614  11.290  19.481  0.00  0.00    +0.000 C 
ATOM      6  C   UNL     1       1.295  12.149  20.533  0.00  0.00    +0.000 C 
ATOM      7  N   UNL     1       0.248  12.399  21.535  0.00  0.00    +0.000 NA
ATOM      8  C   UNL     1      -0.646  11.208  21.490  0.00  0.00    +0.000 C 
ATOM      9  C   UNL     1      -0.186  10.312  20.317  0.00  0.00    +0.000 C 
ENDROOT
BRANCH   3  10
ATOM     10  C   UNL     1       1.736   7.929  18.580  0.00  0.00    +0.000 C 
BRANCH  10  11
ATOM     11  C   UNL     1       2.303   6.692  19.230  0.00  0.00    +0.000 A 
ATOM     12  C   UNL     1       1.903   6.122  20.424  0.00  0.00    +0.000 A 
ATOM     13  N   UNL     1       2.671   5.009  20.655  0.00  0.00    +0.000 N 
ATOM     14  C   UNL     1       3.538   4.811  19.615  0.00  0.00    +0.000 A 
ATOM     15  C   UNL     1       4.459   3.787  19.409  0.00  0.00    +0.000 A 
ATOM     16  C   UNL     1       5.218   3.829  18.233  0.00  0.00    +0.000 A 
ATOM     17  C   UNL     1       5.076   4.880  17.317  0.00  0.00    +0.000 A 
ATOM     18  C   UNL     1       4.157   5.913  17.565  0.00  0.00    +0.000 A 
ATOM     19  C   UNL     1       3.357   5.863  18.725  0.00  0.00    +0.000 A 
ATOM     20  H   UNL     1       2.598   4.409  21.465  0.00  0.00    +0.000 HD
BRANCH  17  21
ATOM     21  N   UNL     1       5.840   4.888  16.120  0.00  0.00    +0.000 N 
ATOM     22  C   UNL     1       5.535   4.269  14.929  0.00  0.00    +0.000 A 
ATOM     23  C   UNL     1       6.584   4.536  14.085  0.00  0.00    +0.000 A 
ATOM     24  N   UNL     1       7.528   5.301  14.701  0.00  0.00    +0.000 NA
ATOM     25  C   UNL     1       7.057   5.499  15.912  0.00  0.00    +0.000 A 
ENDBRANCH  17  21
ENDBRANCH  10  11
ENDBRANCH   3  10
BRANCH   7  26
ATOM     26  C   UNL     1      -0.474  13.640  21.211  0.00  0.00    +0.000 C 
BRANCH  26  27
ATOM     27  C   UNL     1      -1.566  13.984  22.199  0.00  0.00    +0.000 A 
ATOM     28  C   UNL     1      -1.271  14.227  23.547  0.00  0.00    +0.000 A 
ATOM     29  C   UNL     1      -2.285  14.577  24.441  0.00  0.00    +0.000 A 
ATOM     30  C   UNL     1      -3.597  14.711  23.991  0.00  0.00    +0.000 A 
ATOM     31  C   UNL     1      -3.904  14.467  22.654  0.00  0.00    +0.000 A 
ATOM     32  C   UNL     1      -2.896  14.090  21.766  0.00  0.00    +0.000 A 
ENDBRANCH  26  27
ENDBRANCH   7  26
TORSDOF 5
ENDMDL
MODEL 9
REMARK VINA RESULT:      -7.5      1.114      1.662
REMARK  Name = 
REMARK  6 active torsions:
REMARK  status: ('A' for Active; 'I' for Inactive)
REMARK    1  A    between atoms: C_1  and  N_2
REMARK    2  A    between atoms: C_3  and  C_4
REMARK    3  A    between atoms: C_4  and  C_5
REMARK    4  A    between atoms: C_11  and  N_12
REMARK    5  A    between atoms: N_22  and  C_23
REMARK    6  A    between atoms: C_23  and  C_24
REMARK                            x       y       z     vdW  Elec       q    Type
REMARK                         _______ _______ _______ _____ _____    ______ ____
ROOT
ATOM      1  C   UNL     1       1.378   8.973  21.977  0.00  0.00    +0.000 C 
ATOM      2  N   UNL     1       0.746   9.100  20.665  0.00  0.00    +0.000 NA
ATOM      3  C   UNL     1       1.740   9.206  19.560  0.00  0.00    +0.000 C 
ATOM      4  C   UNL     1       1.396  10.470  18.768  0.00  0.00    +0.000 C 
ATOM      5  C   UNL     1       0.456  11.239  19.653  0.00  0.00    +0.000 C 
ATOM      6  C   UNL     1       1.161  12.138  20.654  0.00  0.00    +0.000 C 
ATOM      7  N   UNL     1       0.178  12.327  21.732  0.00  0.00    +0.000 NA
ATOM      8  C   UNL     1      -0.645  11.085  21.749  0.00  0.00    +0.000 C 
ATOM      9  C   UNL     1      -0.220  10.217  20.543  0.00  0.00    +0.000 C 
ENDROOT
BRANCH   3  10
ATOM     10  C   UNL     1       1.707   7.950  18.662  0.00  0.00    +0.000 C 
BRANCH  10  11
ATOM     11  C   UNL     1       2.279   6.717  19.315  0.00  0.00    +0.000 A 
ATOM     12  C   UNL     1       1.879   6.145  20.508  0.00  0.00    +0.000 A 
ATOM     13  N   UNL     1       2.652   5.037  20.743  0.00  0.00    +0.000 N 
ATOM     14  C   UNL     1       3.524   4.843  19.706  0.00  0.00    +0.000 A 
ATOM     15  C   UNL     1       4.452   3.824  19.504  0.00  0.00    +0.000 A 
ATOM     16  C   UNL     1       5.214   3.870  18.329  0.00  0.00    +0.000 A 
ATOM     17  C   UNL     1       5.068   4.918  17.412  0.00  0.00    +0.000 A 
ATOM     18  C   UNL     1       4.142   5.947  17.657  0.00  0.00    +0.000 A 
ATOM     19  C   UNL     1       3.340   5.894  18.814  0.00  0.00    +0.000 A 
ATOM     20  H   UNL     1       2.581   4.437  21.553  0.00  0.00    +0.000 HD
BRANCH  17  21
ATOM     21  N   UNL     1       5.836   4.930  16.218  0.00  0.00    +0.000 N 
ATOM     22  C   UNL     1       5.507   4.364  15.007  0.00  0.00    +0.000 A 
ATOM     23  C   UNL     1       6.570   4.610  14.174  0.00  0.00    +0.000 A 
ATOM     24  N   UNL     1       7.546   5.311  14.815  0.00  0.00    +0.000 NA
ATOM     25  C   UNL     1       7.081   5.491  16.031  0.00  0.00    +0.000 A 
ENDBRANCH  17  21
ENDBRANCH  10  11
ENDBRANCH   3  10
BRANCH   7  26
ATOM     26  C   UNL     1      -0.639  13.523  21.466  0.00  0.00    +0.000 C 
BRANCH  26  27
ATOM     27  C   UNL     1      -2.127  13.280  21.578  0.00  0.00    +0.000 A 
ATOM     28  C   UNL     1      -2.906  13.029  20.442  0.00  0.00    +0.000 A 
ATOM     29  C   UNL     1      -4.274  12.773  20.564  0.00  0.00    +0.000 A 
ATOM     30  C   UNL     1      -4.868  12.741  21.825  0.00  0.00    +0.000 A 
ATOM     31  C   UNL     1      -4.104  12.993  22.963  0.00  0.00    +0.000 A 
ATOM     32  C   UNL     1      -2.744  13.277  22.839  0.00  0.00    +0.000 A 
ENDBRANCH  26  27
ENDBRANCH   7  26
TORSDOF 5
ENDMDL
