MODEL 1
REMARK VINA RESULT:      -8.3      0.000      0.000
REMARK  Name = 
REMARK  5 active torsions:
REMARK  status: ('A' for Active; 'I' for Inactive)
REMARK    1  A    between atoms: C_1  and  N_2
REMARK    2  A    between atoms: C_5  and  O_6
REMARK    3  A    between atoms: C_7  and  C_8
REMARK    4  A    between atoms: C_8  and  C_10
REMARK    5  A    between atoms: C_16  and  C_17
REMARK                            x       y       z     vdW  Elec       q    Type
REMARK                         _______ _______ _______ _____ _____    ______ ____
ROOT
ATOM      1  C   UNL     1       7.244   6.554  18.355  0.00  0.00    +0.000 C 
ATOM      2  N   UNL     1       6.350   5.599  17.741  0.00  0.00    +0.000 N 
ATOM      3  C   UNL     1       6.607   4.925  16.575  0.00  0.00    +0.000 C 
ATOM      4  O   UNL     1       7.472   5.117  15.742  0.00  0.00    +0.000 OA
ATOM      5  C   UNL     1       5.656   3.794  16.524  0.00  0.00    +0.000 C 
ATOM      6  C   UNL     1       4.918   3.821  17.648  0.00  0.00    +0.000 C 
ATOM      7  C   UNL     1       5.187   5.069  18.431  0.00  0.00    +0.000 C 
ENDROOT
BRANCH   7   8
ATOM      8  C   UNL     1       4.072   6.108  18.419  0.00  0.00    +0.000 A 
ATOM      9  C   UNL     1       3.926   7.013  17.350  0.00  0.00    +0.000 A 
ATOM     10  C   UNL     1       2.999   8.056  17.410  0.00  0.00    +0.000 A 
ATOM     11  C   UNL     1       2.190   8.204  18.534  0.00  0.00    +0.000 A 
ATOM     12  C   UNL     1       2.295   7.291  19.579  0.00  0.00    +0.000 A 
ATOM     13 CL   UNL     1       1.295   7.471  20.969  0.00  0.00    +0.000 Cl
ATOM     14  C   UNL     1       3.225   6.252  19.530  0.00  0.00    +0.000 A 
ENDBRANCH   7   8
BRANCH   5  15
ATOM     15  O   UNL     1       5.675   2.889  15.503  0.00  0.00    +0.000 OA
ATOM     16  H   UNL     1       4.769   2.880  15.138  0.00  0.00    +0.000 HD
ENDBRANCH   5  15
BRANCH   6  17
ATOM     17  C   UNL     1       3.992   2.717  18.017  0.00  0.00    +0.000 C 
ATOM     18  O   UNL     1       3.957   1.675  17.362  0.00  0.00    +0.000 OA
BRANCH  17  19
ATOM     19  C   UNL     1       3.061   2.805  19.181  0.00  0.00    +0.000 A 
ATOM     20  C   UNL     1       1.706   3.051  18.901  0.00  0.00    +0.000 A 
ATOM     21  C   UNL     1       0.765   3.155  19.929  0.00  0.00    +0.000 A 
ATOM     22  C   UNL     1       1.168   3.033  21.254  0.00  0.00    +0.000 A 
ATOM     23  C   UNL     1       2.498   2.744  21.547  0.00  0.00    +0.000 A 
ATOM     24  C   UNL     1       3.427   2.585  20.513  0.00  0.00    +0.000 A 
ENDBRANCH  17  19
ENDBRANCH   6  17
TORSDOF 4
ENDMDL
MODEL 2
REMARK VINA RESULT:      -8.2      0.097      1.006
REMARK  Name = 
REMARK  5 active torsions:
REMARK  status: ('A' for Active; 'I' for Inactive)
REMARK    1  A    between atoms: C_1  and  N_2
REMARK    2  A    between atoms: C_5  and  O_6
REMARK    3  A    between atoms: C_7  and  C_8
REMARK    4  A    between atoms: C_8  and  C_10
REMARK    5  A    between atoms: C_16  and  C_17
REMARK                            x       y       z     vdW  Elec       q    Type
REMARK                         _______ _______ _______ _____ _____    ______ ____
ROOT
ATOM      1  C   UNL     1       7.235   6.521  18.501  0.00  0.00    +0.000 C 
ATOM      2  N   UNL     1       6.349   5.583  17.851  0.00  0.00    +0.000 N 
ATOM      3  C   UNL     1       6.632   4.919  16.686  0.00  0.00    +0.000 C 
ATOM      4  O   UNL     1       7.524   5.109  15.881  0.00  0.00    +0.000 OA
ATOM      5  C   UNL     1       5.671   3.799  16.595  0.00  0.00    +0.000 C 
ATOM      6  C   UNL     1       4.901   3.822  17.697  0.00  0.00    +0.000 C 
ATOM      7  C   UNL     1       5.160   5.059  18.501  0.00  0.00    +0.000 C 
ENDROOT
BRANCH   7   8
ATOM      8  C   UNL     1       4.057   6.111  18.467  0.00  0.00    +0.000 A 
ATOM      9  C   UNL     1       3.920   6.994  17.378  0.00  0.00    +0.000 A 
ATOM     10  C   UNL     1       3.005   8.048  17.416  0.00  0.00    +0.000 A 
ATOM     11  C   UNL     1       2.200   8.231  18.538  0.00  0.00    +0.000 A 
ATOM     12  C   UNL     1       2.296   7.340  19.604  0.00  0.00    +0.000 A 
ATOM     13 CL   UNL     1       1.301   7.563  20.991  0.00  0.00    +0.000 Cl
ATOM     14  C   UNL     1       3.214   6.289  19.576  0.00  0.00    +0.000 A 
ENDBRANCH   7   8
BRANCH   5  15
ATOM     15  O   UNL     1       5.710   2.905  15.565  0.00  0.00    +0.000 OA
ATOM     16  H   UNL     1       4.828   2.941  15.146  0.00  0.00    +0.000 HD
ENDBRANCH   5  15
BRANCH   6  17
ATOM     17  C   UNL     1       3.952   2.726  18.027  0.00  0.00    +0.000 C 
ATOM     18  O   UNL     1       3.957   1.672  17.388  0.00  0.00    +0.000 OA
BRANCH  17  19
ATOM     19  C   UNL     1       2.950   2.834  19.129  0.00  0.00    +0.000 A 
ATOM     20  C   UNL     1       3.408   2.598  20.436  0.00  0.00    +0.000 A 
ATOM     21  C   UNL     1       2.539   2.672  21.528  0.00  0.00    +0.000 A 
ATOM     22  C   UNL     1       1.194   2.965  21.326  0.00  0.00    +0.000 A 
ATOM     23  C   UNL     1       0.734   3.246  20.044  0.00  0.00    +0.000 A 
ATOM     24  C   UNL     1       1.618   3.227  18.959  0.00  0.00    +0.000 A 
ENDBRANCH  17  19
ENDBRANCH   6  17
TORSDOF 4
ENDMDL
MODEL 3
REMARK VINA RESULT:      -7.6      2.227      5.075
REMARK  Name = 
REMARK  5 active torsions:
REMARK  status: ('A' for Active; 'I' for Inactive)
REMARK    1  A    between atoms: C_1  and  N_2
REMARK    2  A    between atoms: C_5  and  O_6
REMARK    3  A    between atoms: C_7  and  C_8
REMARK    4  A    between atoms: C_8  and  C_10
REMARK    5  A    between atoms: C_16  and  C_17
REMARK                            x       y       z     vdW  Elec       q    Type
REMARK                         _______ _______ _______ _____ _____    ______ ____
ROOT
ATOM      1  C   UNL     1       0.653   3.233  18.497  0.00  0.00    +0.000 C 
ATOM      2  N   UNL     1       2.013   3.397  18.957  0.00  0.00    +0.000 N 
ATOM      3  C   UNL     1       2.681   2.505  19.755  0.00  0.00    +0.000 C 
ATOM      4  O   UNL     1       2.253   1.557  20.386  0.00  0.00    +0.000 OA
ATOM      5  C   UNL     1       4.117   2.843  19.654  0.00  0.00    +0.000 C 
ATOM      6  C   UNL     1       4.242   3.870  18.796  0.00  0.00    +0.000 C 
ATOM      7  C   UNL     1       2.899   4.413  18.416  0.00  0.00    +0.000 C 
ENDROOT
BRANCH   7   8
ATOM      8  C   UNL     1       2.542   5.769  19.014  0.00  0.00    +0.000 A 
ATOM      9  C   UNL     1       2.098   5.889  20.345  0.00  0.00    +0.000 A 
ATOM     10  C   UNL     1       1.632   7.108  20.842  0.00  0.00    +0.000 A 
ATOM     11  C   UNL     1       1.617   8.234  20.022  0.00  0.00    +0.000 A 
ATOM     12  C   UNL     1       2.093   8.139  18.717  0.00  0.00    +0.000 A 
ATOM     13 CL   UNL     1       2.076   9.529  17.702  0.00  0.00    +0.000 Cl
ATOM     14  C   UNL     1       2.551   6.921  18.211  0.00  0.00    +0.000 A 
ENDBRANCH   7   8
BRANCH   5  15
ATOM     15  O   UNL     1       5.071   2.110  20.298  0.00  0.00    +0.000 OA
ATOM     16  H   UNL     1       4.746   1.993  21.212  0.00  0.00    +0.000 HD
ENDBRANCH   5  15
BRANCH   6  17
ATOM     17  C   UNL     1       5.566   4.344  18.312  0.00  0.00    +0.000 C 
ATOM     18  O   UNL     1       6.449   4.673  19.106  0.00  0.00    +0.000 OA
BRANCH  17  19
ATOM     19  C   UNL     1       5.899   4.454  16.860  0.00  0.00    +0.000 A 
ATOM     20  C   UNL     1       7.178   4.933  16.531  0.00  0.00    +0.000 A 
ATOM     21  C   UNL     1       7.574   5.073  15.198  0.00  0.00    +0.000 A 
ATOM     22  C   UNL     1       6.688   4.754  14.174  0.00  0.00    +0.000 A 
ATOM     23  C   UNL     1       5.434   4.234  14.483  0.00  0.00    +0.000 A 
ATOM     24  C   UNL     1       5.062   4.042  15.818  0.00  0.00    +0.000 A 
ENDBRANCH  17  19
ENDBRANCH   6  17
TORSDOF 4
ENDMDL
MODEL 4
REMARK VINA RESULT:      -7.6      2.066      4.865
REMARK  Name = 
REMARK  5 active torsions:
REMARK  status: ('A' for Active; 'I' for Inactive)
REMARK    1  A    between atoms: C_1  and  N_2
REMARK    2  A    between atoms: C_5  and  O_6
REMARK    3  A    between atoms: C_7  and  C_8
REMARK    4  A    between atoms: C_8  and  C_10
REMARK    5  A    between atoms: C_16  and  C_17
REMARK                            x       y       z     vdW  Elec       q    Type
REMARK                         _______ _______ _______ _____ _____    ______ ____
ROOT
ATOM      1  C   UNL     1       0.439   3.274  19.833  0.00  0.00    +0.000 C 
ATOM      2  N   UNL     1       1.859   3.498  19.685  0.00  0.00    +0.000 N 
ATOM      3  C   UNL     1       2.836   2.731  20.266  0.00  0.00    +0.000 C 
ATOM      4  O   UNL     1       2.746   1.891  21.142  0.00  0.00    +0.000 OA
ATOM      5  C   UNL     1       4.094   3.042  19.555  0.00  0.00    +0.000 C 
ATOM      6  C   UNL     1       3.814   3.929  18.584  0.00  0.00    +0.000 C 
ATOM      7  C   UNL     1       2.402   4.416  18.699  0.00  0.00    +0.000 C 
ENDROOT
BRANCH   7   8
ATOM      8  C   UNL     1       2.237   5.848  19.194  0.00  0.00    +0.000 A 
ATOM      9  C   UNL     1       1.887   6.126  20.529  0.00  0.00    +0.000 A 
ATOM     10  C   UNL     1       1.593   7.428  20.941  0.00  0.00    +0.000 A 
ATOM     11  C   UNL     1       1.659   8.478  20.028  0.00  0.00    +0.000 A 
ATOM     12  C   UNL     1       2.044   8.223  18.715  0.00  0.00    +0.000 A 
ATOM     13 CL   UNL     1       2.127   9.519  17.586  0.00  0.00    +0.000 Cl
ATOM     14  C   UNL     1       2.331   6.923  18.295  0.00  0.00    +0.000 A 
ENDBRANCH   7   8
BRANCH   5  15
ATOM     15  O   UNL     1       5.264   2.409  19.860  0.00  0.00    +0.000 OA
ATOM     16  H   UNL     1       5.180   2.129  20.792  0.00  0.00    +0.000 HD
ENDBRANCH   5  15
BRANCH   6  17
ATOM     17  C   UNL     1       4.811   4.318  17.551  0.00  0.00    +0.000 C 
ATOM     18  O   UNL     1       4.784   3.816  16.426  0.00  0.00    +0.000 OA
BRANCH  17  19
ATOM     19  C   UNL     1       5.889   5.319  17.810  0.00  0.00    +0.000 A 
ATOM     20  C   UNL     1       5.869   6.494  17.041  0.00  0.00    +0.000 A 
ATOM     21  C   UNL     1       6.842   7.483  17.212  0.00  0.00    +0.000 A 
ATOM     22  C   UNL     1       7.859   7.302  18.143  0.00  0.00    +0.000 A 
ATOM     23  C   UNL     1       7.867   6.165  18.945  0.00  0.00    +0.000 A 
ATOM     24  C   UNL     1       6.860   5.203  18.810  0.00  0.00    +0.000 A 
ENDBRANCH  17  19
ENDBRANCH   6  17
TORSDOF 4
ENDMDL
MODEL 5
REMARK VINA RESULT:      -7.5      2.894      5.384
REMARK  Name = 
REMARK  5 active torsions:
REMARK  status: ('A' for Active; 'I' for Inactive)
REMARK    1  A    between atoms: C_1  and  N_2
REMARK    2  A    between atoms: C_5  and  O_6
REMARK    3  A    between atoms: C_7  and  C_8
REMARK    4  A    between atoms: C_8  and  C_10
REMARK    5  A    between atoms: C_16  and  C_17
REMARK                            x       y       z     vdW  Elec       q    Type
REMARK                         _______ _______ _______ _____ _____    ______ ____
ROOT
ATOM      1  C   UNL     1       4.070   2.332  20.118  0.00  0.00    +0.000 C 
ATOM      2  N   UNL     1       3.532   3.284  19.174  0.00  0.00    +0.000 N 
ATOM      3  C   UNL     1       2.334   3.147  18.523  0.00  0.00    +0.000 C 
ATOM      4  O   UNL     1       1.608   2.175  18.428  0.00  0.00    +0.000 OA
ATOM      5  C   UNL     1       1.991   4.482  17.987  0.00  0.00    +0.000 C 
ATOM      6  C   UNL     1       2.954   5.340  18.363  0.00  0.00    +0.000 C 
ATOM      7  C   UNL     1       4.096   4.612  19.004  0.00  0.00    +0.000 C 
ENDROOT
BRANCH   7   8
ATOM      8  C   UNL     1       5.369   4.519  18.171  0.00  0.00    +0.000 A 
ATOM      9  C   UNL     1       6.623   4.869  18.709  0.00  0.00    +0.000 A 
ATOM     10  C   UNL     1       7.763   4.925  17.903  0.00  0.00    +0.000 A 
ATOM     11  C   UNL     1       7.673   4.617  16.548  0.00  0.00    +0.000 A 
ATOM     12  C   UNL     1       6.447   4.230  16.013  0.00  0.00    +0.000 A 
ATOM     13 CL   UNL     1       6.333   3.848  14.338  0.00  0.00    +0.000 Cl
ATOM     14  C   UNL     1       5.303   4.180  16.810  0.00  0.00    +0.000 A 
ENDBRANCH   7   8
BRANCH   5  15
ATOM     15  O   UNL     1       0.823   4.705  17.317  0.00  0.00    +0.000 OA
ATOM     16  H   UNL     1       0.116   4.344  17.885  0.00  0.00    +0.000 HD
ENDBRANCH   5  15
BRANCH   6  17
ATOM     17  C   UNL     1       2.835   6.809  18.159  0.00  0.00    +0.000 C 
ATOM     18  O   UNL     1       3.363   7.358  17.191  0.00  0.00    +0.000 OA
BRANCH  17  19
ATOM     19  C   UNL     1       2.085   7.693  19.100  0.00  0.00    +0.000 A 
ATOM     20  C   UNL     1       1.594   8.905  18.587  0.00  0.00    +0.000 A 
ATOM     21  C   UNL     1       0.885   9.796  19.398  0.00  0.00    +0.000 A 
ATOM     22  C   UNL     1       0.674   9.496  20.739  0.00  0.00    +0.000 A 
ATOM     23  C   UNL     1       1.113   8.279  21.252  0.00  0.00    +0.000 A 
ATOM     24  C   UNL     1       1.773   7.364  20.424  0.00  0.00    +0.000 A 
ENDBRANCH  17  19
ENDBRANCH   6  17
TORSDOF 4
ENDMDL
MODEL 6
REMARK VINA RESULT:      -7.5      2.086      4.954
REMARK  Name = 
REMARK  5 active torsions:
REMARK  status: ('A' for Active; 'I' for Inactive)
REMARK    1  A    between atoms: C_1  and  N_2
REMARK    2  A    between atoms: C_5  and  O_6
REMARK    3  A    between atoms: C_7  and  C_8
REMARK    4  A    between atoms: C_8  and  C_10
REMARK    5  A    between atoms: C_16  and  C_17
REMARK                            x       y       z     vdW  Elec       q    Type
REMARK                         _______ _______ _______ _____ _____    ______ ____
ROOT
ATOM      1  C   UNL     1       0.475   3.357  19.959  0.00  0.00    +0.000 C 
ATOM      2  N   UNL     1       1.889   3.584  19.764  0.00  0.00    +0.000 N 
ATOM      3  C   UNL     1       2.887   2.835  20.333  0.00  0.00    +0.000 C 
ATOM      4  O   UNL     1       2.826   2.014  21.229  0.00  0.00    +0.000 OA
ATOM      5  C   UNL     1       4.122   3.137  19.578  0.00  0.00    +0.000 C 
ATOM      6  C   UNL     1       3.808   4.000  18.596  0.00  0.00    +0.000 C 
ATOM      7  C   UNL     1       2.398   4.483  18.743  0.00  0.00    +0.000 C 
ENDROOT
BRANCH   7   8
ATOM      8  C   UNL     1       2.240   5.925  19.210  0.00  0.00    +0.000 A 
ATOM      9  C   UNL     1       1.904   6.230  20.544  0.00  0.00    +0.000 A 
ATOM     10  C   UNL     1       1.615   7.540  20.933  0.00  0.00    +0.000 A 
ATOM     11  C   UNL     1       1.673   8.572  19.999  0.00  0.00    +0.000 A 
ATOM     12  C   UNL     1       2.044   8.290  18.687  0.00  0.00    +0.000 A 
ATOM     13 CL   UNL     1       2.117   9.563  17.531  0.00  0.00    +0.000 Cl
ATOM     14  C   UNL     1       2.325   6.982  18.289  0.00  0.00    +0.000 A 
ENDBRANCH   7   8
BRANCH   5  15
ATOM     15  O   UNL     1       5.303   2.516  19.863  0.00  0.00    +0.000 OA
ATOM     16  H   UNL     1       5.140   1.561  19.736  0.00  0.00    +0.000 HD
ENDBRANCH   5  15
BRANCH   6  17
ATOM     17  C   UNL     1       4.772   4.371  17.526  0.00  0.00    +0.000 C 
ATOM     18  O   UNL     1       4.745   3.811  16.429  0.00  0.00    +0.000 OA
BRANCH  17  19
ATOM     19  C   UNL     1       5.816   5.423  17.713  0.00  0.00    +0.000 A 
ATOM     20  C   UNL     1       6.861   5.137  18.607  0.00  0.00    +0.000 A 
ATOM     21  C   UNL     1       7.877   6.065  18.848  0.00  0.00    +0.000 A 
ATOM     22  C   UNL     1       7.853   7.302  18.212  0.00  0.00    +0.000 A 
ATOM     23  C   UNL     1       6.850   7.583  17.289  0.00  0.00    +0.000 A 
ATOM     24  C   UNL     1       5.865   6.630  17.008  0.00  0.00    +0.000 A 
ENDBRANCH  17  19
ENDBRANCH   6  17
TORSDOF 4
ENDMDL
MODEL 7
REMARK VINA RESULT:      -7.5      2.904      5.446
REMARK  Name = 
REMARK  5 active torsions:
REMARK  status: ('A' for Active; 'I' for Inactive)
REMARK    1  A    between atoms: C_1  and  N_2
REMARK    2  A    between atoms: C_5  and  O_6
REMARK    3  A    between atoms: C_7  and  C_8
REMARK    4  A    between atoms: C_8  and  C_10
REMARK    5  A    between atoms: C_16  and  C_17
REMARK                            x       y       z     vdW  Elec       q    Type
REMARK                         _______ _______ _______ _____ _____    ______ ____
ROOT
ATOM      1  C   UNL     1       4.094   2.345  20.048  0.00  0.00    +0.000 C 
ATOM      2  N   UNL     1       3.545   3.288  19.101  0.00  0.00    +0.000 N 
ATOM      3  C   UNL     1       2.323   3.162  18.491  0.00  0.00    +0.000 C 
ATOM      4  O   UNL     1       1.576   2.204  18.440  0.00  0.00    +0.000 OA
ATOM      5  C   UNL     1       1.990   4.492  17.937  0.00  0.00    +0.000 C 
ATOM      6  C   UNL     1       2.983   5.338  18.263  0.00  0.00    +0.000 C 
ATOM      7  C   UNL     1       4.129   4.600  18.884  0.00  0.00    +0.000 C 
ENDROOT
BRANCH   7   8
ATOM      8  C   UNL     1       5.373   4.463  18.013  0.00  0.00    +0.000 A 
ATOM      9  C   UNL     1       6.659   4.726  18.526  0.00  0.00    +0.000 A 
ATOM     10  C   UNL     1       7.778   4.745  17.691  0.00  0.00    +0.000 A 
ATOM     11  C   UNL     1       7.635   4.485  16.330  0.00  0.00    +0.000 A 
ATOM     12  C   UNL     1       6.376   4.182  15.818  0.00  0.00    +0.000 A 
ATOM     13 CL   UNL     1       6.197   3.860  14.137  0.00  0.00    +0.000 Cl
ATOM     14  C   UNL     1       5.252   4.171  16.645  0.00  0.00    +0.000 A 
ENDBRANCH   7   8
BRANCH   5  15
ATOM     15  O   UNL     1       0.807   4.725  17.299  0.00  0.00    +0.000 OA
ATOM     16  H   UNL     1       0.879   5.623  16.923  0.00  0.00    +0.000 HD
ENDBRANCH   5  15
BRANCH   6  17
ATOM     17  C   UNL     1       2.886   6.804  18.032  0.00  0.00    +0.000 C 
ATOM     18  O   UNL     1       3.472   7.334  17.086  0.00  0.00    +0.000 OA
BRANCH  17  19
ATOM     19  C   UNL     1       2.092   7.707  18.917  0.00  0.00    +0.000 A 
ATOM     20  C   UNL     1       1.945   7.321  20.260  0.00  0.00    +0.000 A 
ATOM     21  C   UNL     1       1.213   8.103  21.158  0.00  0.00    +0.000 A 
ATOM     22  C   UNL     1       0.602   9.273  20.721  0.00  0.00    +0.000 A 
ATOM     23  C   UNL     1       0.775   9.693  19.406  0.00  0.00    +0.000 A 
ATOM     24  C   UNL     1       1.555   8.937  18.523  0.00  0.00    +0.000 A 
ENDBRANCH  17  19
ENDBRANCH   6  17
TORSDOF 4
ENDMDL
MODEL 8
REMARK VINA RESULT:      -7.4      1.864      4.758
REMARK  Name = 
REMARK  5 active torsions:
REMARK  status: ('A' for Active; 'I' for Inactive)
REMARK    1  A    between atoms: C_1  and  N_2
REMARK    2  A    between atoms: C_5  and  O_6
REMARK    3  A    between atoms: C_7  and  C_8
REMARK    4  A    between atoms: C_8  and  C_10
REMARK    5  A    between atoms: C_16  and  C_17
REMARK                            x       y       z     vdW  Elec       q    Type
REMARK                         _______ _______ _______ _____ _____    ______ ____
ROOT
ATOM      1  C   UNL     1       0.490   3.330  19.345  0.00  0.00    +0.000 C 
ATOM      2  N   UNL     1       1.908   3.603  19.327  0.00  0.00    +0.000 N 
ATOM      3  C   UNL     1       2.836   2.971  20.115  0.00  0.00    +0.000 C 
ATOM      4  O   UNL     1       2.672   2.252  21.082  0.00  0.00    +0.000 OA
ATOM      5  C   UNL     1       4.158   3.246  19.513  0.00  0.00    +0.000 C 
ATOM      6  C   UNL     1       3.964   3.979  18.402  0.00  0.00    +0.000 C 
ATOM      7  C   UNL     1       2.532   4.406  18.291  0.00  0.00    +0.000 C 
ENDROOT
BRANCH   7   8
ATOM      8  C   UNL     1       2.261   5.882  18.560  0.00  0.00    +0.000 A 
ATOM      9  C   UNL     1       2.431   6.854  17.555  0.00  0.00    +0.000 A 
ATOM     10  C   UNL     1       2.326   8.216  17.844  0.00  0.00    +0.000 A 
ATOM     11  C   UNL     1       2.034   8.631  19.141  0.00  0.00    +0.000 A 
ATOM     12  C   UNL     1       1.822   7.680  20.135  0.00  0.00    +0.000 A 
ATOM     13 CL   UNL     1       1.460   8.191  21.738  0.00  0.00    +0.000 Cl
ATOM     14  C   UNL     1       1.934   6.317  19.855  0.00  0.00    +0.000 A 
ENDBRANCH   7   8
BRANCH   5  15
ATOM     15  O   UNL     1       5.304   2.718  20.031  0.00  0.00    +0.000 OA
ATOM     16  H   UNL     1       5.029   2.194  20.808  0.00  0.00    +0.000 HD
ENDBRANCH   5  15
BRANCH   6  17
ATOM     17  C   UNL     1       5.061   4.276  17.444  0.00  0.00    +0.000 C 
ATOM     18  O   UNL     1       5.208   3.602  16.423  0.00  0.00    +0.000 OA
BRANCH  17  19
ATOM     19  C   UNL     1       6.037   5.386  17.657  0.00  0.00    +0.000 A 
ATOM     20  C   UNL     1       7.043   5.179  18.617  0.00  0.00    +0.000 A 
ATOM     21  C   UNL     1       7.995   6.165  18.886  0.00  0.00    +0.000 A 
ATOM     22  C   UNL     1       7.945   7.381  18.213  0.00  0.00    +0.000 A 
ATOM     23  C   UNL     1       6.984   7.585  17.227  0.00  0.00    +0.000 A 
ATOM     24  C   UNL     1       6.066   6.574  16.920  0.00  0.00    +0.000 A 
ENDBRANCH  17  19
ENDBRANCH   6  17
TORSDOF 4
ENDMDL
MODEL 9
REMARK VINA RESULT:      -7.3      1.876      4.675
REMARK  Name = 
REMARK  5 active torsions:
REMARK  status: ('A' for Active; 'I' for Inactive)
REMARK    1  A    between atoms: C_1  and  N_2
REMARK    2  A    between atoms: C_5  and  O_6
REMARK    3  A    between atoms: C_7  and  C_8
REMARK    4  A    between atoms: C_8  and  C_10
REMARK    5  A    between atoms: C_16  and  C_17
REMARK                            x       y       z     vdW  Elec       q    Type
REMARK                         _______ _______ _______ _____ _____    ______ ____
ROOT
ATOM      1  C   UNL     1       0.469   3.308  19.356  0.00  0.00    +0.000 C 
ATOM      2  N   UNL     1       1.887   3.584  19.352  0.00  0.00    +0.000 N 
ATOM      3  C   UNL     1       2.808   2.955  20.151  0.00  0.00    +0.000 C 
ATOM      4  O   UNL     1       2.636   2.238  21.118  0.00  0.00    +0.000 OA
ATOM      5  C   UNL     1       4.135   3.233  19.562  0.00  0.00    +0.000 C 
ATOM      6  C   UNL     1       3.951   3.964  18.448  0.00  0.00    +0.000 C 
ATOM      7  C   UNL     1       2.520   4.387  18.321  0.00  0.00    +0.000 C 
ENDROOT
BRANCH   7   8
ATOM      8  C   UNL     1       2.243   5.862  18.584  0.00  0.00    +0.000 A 
ATOM      9  C   UNL     1       2.390   6.828  17.570  0.00  0.00    +0.000 A 
ATOM     10  C   UNL     1       2.280   8.192  17.852  0.00  0.00    +0.000 A 
ATOM     11  C   UNL     1       2.004   8.614  19.150  0.00  0.00    +0.000 A 
ATOM     12  C   UNL     1       1.814   7.668  20.154  0.00  0.00    +0.000 A 
ATOM     13 CL   UNL     1       1.473   8.187  21.759  0.00  0.00    +0.000 Cl
ATOM     14  C   UNL     1       1.932   6.304  19.881  0.00  0.00    +0.000 A 
ENDBRANCH   7   8
BRANCH   5  15
ATOM     15  O   UNL     1       5.277   2.709  20.093  0.00  0.00    +0.000 OA
ATOM     16  H   UNL     1       4.989   1.996  20.696  0.00  0.00    +0.000 HD
ENDBRANCH   5  15
BRANCH   6  17
ATOM     17  C   UNL     1       5.058   4.261  17.500  0.00  0.00    +0.000 C 
ATOM     18  O   UNL     1       5.178   3.628  16.450  0.00  0.00    +0.000 OA
BRANCH  17  19
ATOM     19  C   UNL     1       6.075   5.323  17.760  0.00  0.00    +0.000 A 
ATOM     20  C   UNL     1       5.973   6.506  17.007  0.00  0.00    +0.000 A 
ATOM     21  C   UNL     1       6.885   7.550  17.180  0.00  0.00    +0.000 A 
ATOM     22  C   UNL     1       7.925   7.419  18.095  0.00  0.00    +0.000 A 
ATOM     23  C   UNL     1       8.013   6.274  18.880  0.00  0.00    +0.000 A 
ATOM     24  C   UNL     1       7.065   5.253  18.745  0.00  0.00    +0.000 A 
ENDBRANCH  17  19
ENDBRANCH   6  17
TORSDOF 4
ENDMDL
