MODEL 1
REMARK VINA RESULT:      -7.5      0.000      0.000
REMARK  Name = 
REMARK  6 active torsions:
REMARK  status: ('A' for Active; 'I' for Inactive)
REMARK    1  A    between atoms: N_1  and  S_2
REMARK    2  A    between atoms: S_2  and  C_5
REMARK    3  A    between atoms: C_9  and  N_10
REMARK    4  A    between atoms: N_10  and  C_11
REMARK    5  A    between atoms: C_16  and  S_17
REMARK    6  A    between atoms: S_17  and  N_18
REMARK                            x       y       z     vdW  Elec       q    Type
REMARK                         _______ _______ _______ _____ _____    ______ ____
ROOT
ATOM      1  N   UNL     1       2.805   3.335  17.856  0.00  0.00    +0.000 N 
ATOM      2  H   UNL     1       2.956   2.422  17.437  0.00  0.00    +0.000 HD
ENDROOT
BRANCH   1   7
ATOM      3  C   UNL     1       5.416   5.187  15.971  0.00  0.00    +0.000 A 
ATOM      4  C   UNL     1       5.185   6.503  16.368  0.00  0.00    +0.000 A 
ATOM      5  C   UNL     1       4.126   6.769  17.234  0.00  0.00    +0.000 A 
ATOM      6  C   UNL     1       3.325   5.722  17.715  0.00  0.00    +0.000 A 
ATOM      7  C   UNL     1       3.542   4.399  17.302  0.00  0.00    +0.000 A 
ATOM      8  C   UNL     1       4.578   4.153  16.395  0.00  0.00    +0.000 A 
BRANCH   3   9
ATOM      9  S   UNL     1       6.865   4.778  15.053  0.00  0.00    +0.000 S 
ATOM     10  O   UNL     1       7.918   4.398  15.965  0.00  0.00    +0.000 OA
ATOM     11  O   UNL     1       7.064   5.726  13.986  0.00  0.00    +0.000 OA
BRANCH   9  12
ATOM     12  N   UNL     1       6.361   3.363  14.292  0.00  0.00    +0.000 NA
ATOM     13  H   UNL     1       6.153   3.553  13.311  0.00  0.00    +0.000 HD
ATOM     14  H   UNL     1       5.594   2.936  14.810  0.00  0.00    +0.000 HD
ENDBRANCH   9  12
ENDBRANCH   3   9
ENDBRANCH   1   7
BRANCH   1  15
ATOM     15  C   UNL     1       2.324   3.254  19.172  0.00  0.00    +0.000 A 
ATOM     16  N   UNL     1       1.069   3.725  19.393  0.00  0.00    +0.000 NA
ATOM     17  C   UNL     1       0.534   3.626  20.626  0.00  0.00    +0.000 A 
ATOM     18  C   UNL     1       1.181   3.038  21.692  0.00  0.00    +0.000 A 
ATOM     19  C   UNL     1       2.466   2.559  21.481  0.00  0.00    +0.000 A 
ATOM     20  C   UNL     1       3.052   2.682  20.212  0.00  0.00    +0.000 A 
BRANCH  20  21
ATOM     21  S   UNL     1       4.705   2.141  20.000  0.00  0.00    +0.000 S 
ATOM     22  O   UNL     1       5.493   3.189  19.399  0.00  0.00    +0.000 OA
ATOM     23  O   UNL     1       5.139   1.476  21.211  0.00  0.00    +0.000 OA
BRANCH  21  24
ATOM     24  N   UNL     1       4.576   0.911  18.860  0.00  0.00    +0.000 NA
ATOM     25  H   UNL     1       5.207   1.092  18.079  0.00  0.00    +0.000 HD
ATOM     26  H   UNL     1       4.725   0.004  19.305  0.00  0.00    +0.000 HD
ENDBRANCH  21  24
ENDBRANCH  20  21
ENDBRANCH   1  15
TORSDOF 6
ENDMDL
MODEL 2
REMARK VINA RESULT:      -7.4      4.303      6.409
REMARK  Name = 
REMARK  6 active torsions:
REMARK  status: ('A' for Active; 'I' for Inactive)
REMARK    1  A    between atoms: N_1  and  S_2
REMARK    2  A    between atoms: S_2  and  C_5
REMARK    3  A    between atoms: C_9  and  N_10
REMARK    4  A    between atoms: N_10  and  C_11
REMARK    5  A    between atoms: C_16  and  S_17
REMARK    6  A    between atoms: S_17  and  N_18
REMARK                            x       y       z     vdW  Elec       q    Type
REMARK                         _______ _______ _______ _____ _____    ______ ____
ROOT
ATOM      1  N   UNL     1       1.917   6.736  20.848  0.00  0.00    +0.000 N 
ATOM      2  H   UNL     1       2.360   7.038  21.711  0.00  0.00    +0.000 HD
ENDROOT
BRANCH   1   7
ATOM      3  C   UNL     1       3.106   3.305  20.064  0.00  0.00    +0.000 A 
ATOM      4  C   UNL     1       1.908   2.613  19.891  0.00  0.00    +0.000 A 
ATOM      5  C   UNL     1       0.705   3.292  20.080  0.00  0.00    +0.000 A 
ATOM      6  C   UNL     1       0.707   4.654  20.414  0.00  0.00    +0.000 A 
ATOM      7  C   UNL     1       1.910   5.348  20.609  0.00  0.00    +0.000 A 
ATOM      8  C   UNL     1       3.109   4.643  20.463  0.00  0.00    +0.000 A 
BRANCH   3   9
ATOM      9  S   UNL     1       4.639   2.549  19.630  0.00  0.00    +0.000 S 
ATOM     10  O   UNL     1       5.073   1.693  20.709  0.00  0.00    +0.000 OA
ATOM     11  O   UNL     1       5.509   3.509  18.999  0.00  0.00    +0.000 OA
BRANCH   9  12
ATOM     12  N   UNL     1       4.139   1.528  18.386  0.00  0.00    +0.000 NA
ATOM     13  H   UNL     1       3.270   1.062  18.649  0.00  0.00    +0.000 HD
ATOM     14  H   UNL     1       4.894   0.896  18.122  0.00  0.00    +0.000 HD
ENDBRANCH   9  12
ENDBRANCH   3   9
ENDBRANCH   1   7
BRANCH   1  15
ATOM     15  C   UNL     1       1.883   7.747  19.875  0.00  0.00    +0.000 A 
ATOM     16  N   UNL     1       2.501   7.479  18.695  0.00  0.00    +0.000 NA
ATOM     17  C   UNL     1       2.456   8.391  17.704  0.00  0.00    +0.000 A 
ATOM     18  C   UNL     1       1.784   9.591  17.803  0.00  0.00    +0.000 A 
ATOM     19  C   UNL     1       1.155   9.880  19.006  0.00  0.00    +0.000 A 
ATOM     20  C   UNL     1       1.218   8.956  20.060  0.00  0.00    +0.000 A 
BRANCH  20  21
ATOM     21  S   UNL     1       0.482   9.385  21.591  0.00  0.00    +0.000 S 
ATOM     22  O   UNL     1       0.118  10.781  21.588  0.00  0.00    +0.000 OA
ATOM     23  O   UNL     1      -0.475   8.361  21.955  0.00  0.00    +0.000 OA
BRANCH  21  24
ATOM     24  N   UNL     1       1.736   9.211  22.697  0.00  0.00    +0.000 NA
ATOM     25  H   UNL     1       1.744   9.999  23.344  0.00  0.00    +0.000 HD
ATOM     26  H   UNL     1       1.672   8.302  23.159  0.00  0.00    +0.000 HD
ENDBRANCH  21  24
ENDBRANCH  20  21
ENDBRANCH   1  15
TORSDOF 6
ENDMDL
MODEL 3
REMARK VINA RESULT:      -7.3      4.489      6.089
REMARK  Name = 
REMARK  6 active torsions:
REMARK  status: ('A' for Active; 'I' for Inactive)
REMARK    1  A    between atoms: N_1  and  S_2
REMARK    2  A    between atoms: S_2  and  C_5
REMARK    3  A    between atoms: C_9  and  N_10
REMARK    4  A    between atoms: N_10  and  C_11
REMARK    5  A    between atoms: C_16  and  S_17
REMARK    6  A    between atoms: S_17  and  N_18
REMARK                            x       y       z     vdW  Elec       q    Type
REMARK                         _______ _______ _______ _____ _____    ______ ____
ROOT
ATOM      1  N   UNL     1       3.269   6.042  19.567  0.00  0.00    +0.000 N 
ATOM      2  H   UNL     1       3.832   5.973  20.409  0.00  0.00    +0.000 HD
ENDROOT
BRANCH   1   7
ATOM      3  C   UNL     1       1.015   8.916  20.244  0.00  0.00    +0.000 A 
ATOM      4  C   UNL     1       0.942   9.530  18.995  0.00  0.00    +0.000 A 
ATOM      5  C   UNL     1       1.684   9.001  17.940  0.00  0.00    +0.000 A 
ATOM      6  C   UNL     1       2.469   7.855  18.133  0.00  0.00    +0.000 A 
ATOM      7  C   UNL     1       2.561   7.246  19.392  0.00  0.00    +0.000 A 
ATOM      8  C   UNL     1       1.849   7.815  20.453  0.00  0.00    +0.000 A 
BRANCH   3   9
ATOM      9  S   UNL     1      -0.064   9.418  21.544  0.00  0.00    +0.000 S 
ATOM     10  O   UNL     1      -0.825   8.280  22.002  0.00  0.00    +0.000 OA
ATOM     11  O   UNL     1      -0.674  10.685  21.226  0.00  0.00    +0.000 OA
BRANCH   9  12
ATOM     12  N   UNL     1       1.052   9.763  22.758  0.00  0.00    +0.000 NA
ATOM     13  H   UNL     1       1.966   9.950  22.344  0.00  0.00    +0.000 HD
ATOM     14  H   UNL     1       1.051   9.023  23.460  0.00  0.00    +0.000 HD
ENDBRANCH   9  12
ENDBRANCH   3   9
ENDBRANCH   1   7
BRANCH   1  15
ATOM     15  C   UNL     1       2.911   4.785  19.052  0.00  0.00    +0.000 A 
ATOM     16  N   UNL     1       1.702   4.293  19.429  0.00  0.00    +0.000 NA
ATOM     17  C   UNL     1       1.282   3.115  18.926  0.00  0.00    +0.000 A 
ATOM     18  C   UNL     1       2.003   2.378  18.012  0.00  0.00    +0.000 A 
ATOM     19  C   UNL     1       3.244   2.866  17.625  0.00  0.00    +0.000 A 
ATOM     20  C   UNL     1       3.711   4.074  18.162  0.00  0.00    +0.000 A 
BRANCH  20  21
ATOM     21  S   UNL     1       5.314   4.622  17.714  0.00  0.00    +0.000 S 
ATOM     22  O   UNL     1       5.230   5.899  17.049  0.00  0.00    +0.000 OA
ATOM     23  O   UNL     1       6.209   4.416  18.834  0.00  0.00    +0.000 OA
BRANCH  21  24
ATOM     24  N   UNL     1       5.807   3.502  16.561  0.00  0.00    +0.000 NA
ATOM     25  H   UNL     1       6.825   3.423  16.564  0.00  0.00    +0.000 HD
ATOM     26  H   UNL     1       5.327   2.613  16.709  0.00  0.00    +0.000 HD
ENDBRANCH  21  24
ENDBRANCH  20  21
ENDBRANCH   1  15
TORSDOF 6
ENDMDL
MODEL 4
REMARK VINA RESULT:      -7.3      4.550      6.137
REMARK  Name = 
REMARK  6 active torsions:
REMARK  status: ('A' for Active; 'I' for Inactive)
REMARK    1  A    between atoms: N_1  and  S_2
REMARK    2  A    between atoms: S_2  and  C_5
REMARK    3  A    between atoms: C_9  and  N_10
REMARK    4  A    between atoms: N_10  and  C_11
REMARK    5  A    between atoms: C_16  and  S_17
REMARK    6  A    between atoms: S_17  and  N_18
REMARK                            x       y       z     vdW  Elec       q    Type
REMARK                         _______ _______ _______ _____ _____    ______ ____
ROOT
ATOM      1  N   UNL     1       2.955   5.863  19.932  0.00  0.00    +0.000 N 
ATOM      2  H   UNL     1       3.005   5.669  20.928  0.00  0.00    +0.000 HD
ENDROOT
BRANCH   1   7
ATOM      3  C   UNL     1       1.077   9.062  20.123  0.00  0.00    +0.000 A 
ATOM      4  C   UNL     1       1.143   9.518  18.807  0.00  0.00    +0.000 A 
ATOM      5  C   UNL     1       1.854   8.770  17.869  0.00  0.00    +0.000 A 
ATOM      6  C   UNL     1       2.469   7.567  18.245  0.00  0.00    +0.000 A 
ATOM      7  C   UNL     1       2.423   7.116  19.572  0.00  0.00    +0.000 A 
ATOM      8  C   UNL     1       1.747   7.900  20.512  0.00  0.00    +0.000 A 
BRANCH   3   9
ATOM      9  S   UNL     1       0.018   9.858  21.286  0.00  0.00    +0.000 S 
ATOM     10  O   UNL     1      -1.001  10.596  20.578  0.00  0.00    +0.000 OA
ATOM     11  O   UNL     1       0.793  10.432  22.356  0.00  0.00    +0.000 OA
BRANCH   9  12
ATOM     12  N   UNL     1      -0.750   8.524  21.969  0.00  0.00    +0.000 NA
ATOM     13  H   UNL     1      -1.474   8.836  22.617  0.00  0.00    +0.000 HD
ATOM     14  H   UNL     1      -0.064   7.890  22.378  0.00  0.00    +0.000 HD
ENDBRANCH   9  12
ENDBRANCH   3   9
ENDBRANCH   1   7
BRANCH   1  15
ATOM     15  C   UNL     1       2.932   4.695  19.154  0.00  0.00    +0.000 A 
ATOM     16  N   UNL     1       1.780   3.974  19.170  0.00  0.00    +0.000 NA
ATOM     17  C   UNL     1       1.679   2.871  18.402  0.00  0.00    +0.000 A 
ATOM     18  C   UNL     1       2.682   2.435  17.562  0.00  0.00    +0.000 A 
ATOM     19  C   UNL     1       3.866   3.159  17.541  0.00  0.00    +0.000 A 
ATOM     20  C   UNL     1       4.000   4.291  18.358  0.00  0.00    +0.000 A 
BRANCH  20  21
ATOM     21  S   UNL     1       5.536   5.135  18.369  0.00  0.00    +0.000 S 
ATOM     22  O   UNL     1       5.540   6.164  17.358  0.00  0.00    +0.000 OA
ATOM     23  O   UNL     1       5.899   5.427  19.740  0.00  0.00    +0.000 OA
BRANCH  21  24
ATOM     24  N   UNL     1       6.636   3.962  17.877  0.00  0.00    +0.000 NA
ATOM     25  H   UNL     1       6.551   3.134  18.467  0.00  0.00    +0.000 HD
ATOM     26  H   UNL     1       6.518   3.768  16.881  0.00  0.00    +0.000 HD
ENDBRANCH  21  24
ENDBRANCH  20  21
ENDBRANCH   1  15
TORSDOF 6
ENDMDL
MODEL 5
REMARK VINA RESULT:      -7.2      4.529      5.956
REMARK  Name = 
REMARK  6 active torsions:
REMARK  status: ('A' for Active; 'I' for Inactive)
REMARK    1  A    between atoms: N_1  and  S_2
REMARK    2  A    between atoms: S_2  and  C_5
REMARK    3  A    between atoms: C_9  and  N_10
REMARK    4  A    between atoms: N_10  and  C_11
REMARK    5  A    between atoms: C_16  and  S_17
REMARK    6  A    between atoms: S_17  and  N_18
REMARK                            x       y       z     vdW  Elec       q    Type
REMARK                         _______ _______ _______ _____ _____    ______ ____
ROOT
ATOM      1  N   UNL     1       2.899   6.011  19.995  0.00  0.00    +0.000 N 
ATOM      2  H   UNL     1       3.348   6.016  20.906  0.00  0.00    +0.000 HD
ENDROOT
BRANCH   1   7
ATOM      3  C   UNL     1       1.072   9.245  19.990  0.00  0.00    +0.000 A 
ATOM      4  C   UNL     1       1.116   9.603  18.644  0.00  0.00    +0.000 A 
ATOM      5  C   UNL     1       1.795   8.778  17.749  0.00  0.00    +0.000 A 
ATOM      6  C   UNL     1       2.402   7.595  18.199  0.00  0.00    +0.000 A 
ATOM      7  C   UNL     1       2.377   7.242  19.556  0.00  0.00    +0.000 A 
ATOM      8  C   UNL     1       1.733   8.103  20.450  0.00  0.00    +0.000 A 
BRANCH   3   9
ATOM      9  S   UNL     1       0.049  10.140  21.114  0.00  0.00    +0.000 S 
ATOM     10  O   UNL     1      -1.079  10.689  20.400  0.00  0.00    +0.000 OA
ATOM     11  O   UNL     1       0.860  10.924  22.011  0.00  0.00    +0.000 OA
BRANCH   9  12
ATOM     12  N   UNL     1      -0.552   8.880  22.057  0.00  0.00    +0.000 NA
ATOM     13  H   UNL     1      -0.823   8.099  21.458  0.00  0.00    +0.000 HD
ATOM     14  H   UNL     1      -1.293   9.219  22.669  0.00  0.00    +0.000 HD
ENDBRANCH   9  12
ENDBRANCH   3   9
ENDBRANCH   1   7
BRANCH   1  15
ATOM     15  C   UNL     1       2.445   4.735  19.624  0.00  0.00    +0.000 A 
ATOM     16  N   UNL     1       1.214   4.372  20.070  0.00  0.00    +0.000 NA
ATOM     17  C   UNL     1       0.702   3.181  19.702  0.00  0.00    +0.000 A 
ATOM     18  C   UNL     1       1.350   2.301  18.861  0.00  0.00    +0.000 A 
ATOM     19  C   UNL     1       2.612   2.657  18.404  0.00  0.00    +0.000 A 
ATOM     20  C   UNL     1       3.173   3.880  18.802  0.00  0.00    +0.000 A 
BRANCH  20  21
ATOM     21  S   UNL     1       4.799   4.262  18.273  0.00  0.00    +0.000 S 
ATOM     22  O   UNL     1       4.825   5.572  17.669  0.00  0.00    +0.000 OA
ATOM     23  O   UNL     1       5.730   3.901  19.321  0.00  0.00    +0.000 OA
BRANCH  21  24
ATOM     24  N   UNL     1       5.088   3.152  17.044  0.00  0.00    +0.000 NA
ATOM     25  H   UNL     1       4.817   2.216  17.348  0.00  0.00    +0.000 HD
ATOM     26  H   UNL     1       4.626   3.453  16.184  0.00  0.00    +0.000 HD
ENDBRANCH  21  24
ENDBRANCH  20  21
ENDBRANCH   1  15
TORSDOF 6
ENDMDL
MODEL 6
REMARK VINA RESULT:      -7.2      4.627      6.632
REMARK  Name = 
REMARK  6 active torsions:
REMARK  status: ('A' for Active; 'I' for Inactive)
REMARK    1  A    between atoms: N_1  and  S_2
REMARK    2  A    between atoms: S_2  and  C_5
REMARK    3  A    between atoms: C_9  and  N_10
REMARK    4  A    between atoms: N_10  and  C_11
REMARK    5  A    between atoms: C_16  and  S_17
REMARK    6  A    between atoms: S_17  and  N_18
REMARK                            x       y       z     vdW  Elec       q    Type
REMARK                         _______ _______ _______ _____ _____    ______ ____
ROOT
ATOM      1  N   UNL     1       3.208   6.106  19.170  0.00  0.00    +0.000 N 
ATOM      2  H   UNL     1       2.816   5.394  19.779  0.00  0.00    +0.000 HD
ENDROOT
BRANCH   1   7
ATOM      3  C   UNL     1       1.032   8.946  20.170  0.00  0.00    +0.000 A 
ATOM      4  C   UNL     1       0.924   9.663  18.980  0.00  0.00    +0.000 A 
ATOM      5  C   UNL     1       1.616   9.214  17.857  0.00  0.00    +0.000 A 
ATOM      6  C   UNL     1       2.387   8.044  17.923  0.00  0.00    +0.000 A 
ATOM      7  C   UNL     1       2.516   7.331  19.123  0.00  0.00    +0.000 A 
ATOM      8  C   UNL     1       1.854   7.820  20.255  0.00  0.00    +0.000 A 
BRANCH   3   9
ATOM      9  S   UNL     1       0.012   9.354  21.549  0.00  0.00    +0.000 S 
ATOM     10  O   UNL     1      -0.771   8.199  21.923  0.00  0.00    +0.000 OA
ATOM     11  O   UNL     1      -0.566  10.662  21.373  0.00  0.00    +0.000 OA
BRANCH   9  12
ATOM     12  N   UNL     1       1.177   9.548  22.750  0.00  0.00    +0.000 NA
ATOM     13  H   UNL     1       1.106   8.786  23.426  0.00  0.00    +0.000 HD
ATOM     14  H   UNL     1       1.113  10.480  23.158  0.00  0.00    +0.000 HD
ENDBRANCH   9  12
ENDBRANCH   3   9
ENDBRANCH   1   7
BRANCH   1  15
ATOM     15  C   UNL     1       4.009   5.564  18.152  0.00  0.00    +0.000 A 
ATOM     16  N   UNL     1       5.156   6.231  17.859  0.00  0.00    +0.000 NA
ATOM     17  C   UNL     1       5.991   5.731  16.927  0.00  0.00    +0.000 A 
ATOM     18  C   UNL     1       5.765   4.546  16.260  0.00  0.00    +0.000 A 
ATOM     19  C   UNL     1       4.593   3.858  16.545  0.00  0.00    +0.000 A 
ATOM     20  C   UNL     1       3.697   4.381  17.490  0.00  0.00    +0.000 A 
BRANCH  20  21
ATOM     21  S   UNL     1       2.190   3.531  17.768  0.00  0.00    +0.000 S 
ATOM     22  O   UNL     1       1.077   4.361  17.377  0.00  0.00    +0.000 OA
ATOM     23  O   UNL     1       2.321   2.174  17.282  0.00  0.00    +0.000 OA
BRANCH  21  24
ATOM     24  N   UNL     1       2.123   3.380  19.441  0.00  0.00    +0.000 NA
ATOM     25  H   UNL     1       1.199   3.054  19.726  0.00  0.00    +0.000 HD
ATOM     26  H   UNL     1       2.886   2.787  19.771  0.00  0.00    +0.000 HD
ENDBRANCH  21  24
ENDBRANCH  20  21
ENDBRANCH   1  15
TORSDOF 6
ENDMDL
MODEL 7
REMARK VINA RESULT:      -7.2      4.565      6.201
REMARK  Name = 
REMARK  6 active torsions:
REMARK  status: ('A' for Active; 'I' for Inactive)
REMARK    1  A    between atoms: N_1  and  S_2
REMARK    2  A    between atoms: S_2  and  C_5
REMARK    3  A    between atoms: C_9  and  N_10
REMARK    4  A    between atoms: N_10  and  C_11
REMARK    5  A    between atoms: C_16  and  S_17
REMARK    6  A    between atoms: S_17  and  N_18
REMARK                            x       y       z     vdW  Elec       q    Type
REMARK                         _______ _______ _______ _____ _____    ______ ____
ROOT
ATOM      1  N   UNL     1       2.993   5.940  19.838  0.00  0.00    +0.000 N 
ATOM      2  H   UNL     1       3.662   5.856  20.597  0.00  0.00    +0.000 HD
ENDROOT
BRANCH   1   7
ATOM      3  C   UNL     1       1.071   9.022  20.613  0.00  0.00    +0.000 A 
ATOM      4  C   UNL     1       0.948   9.613  19.356  0.00  0.00    +0.000 A 
ATOM      5  C   UNL     1       1.547   8.996  18.260  0.00  0.00    +0.000 A 
ATOM      6  C   UNL     1       2.240   7.787  18.421  0.00  0.00    +0.000 A 
ATOM      7  C   UNL     1       2.384   7.200  19.686  0.00  0.00    +0.000 A 
ATOM      8  C   UNL     1       1.818   7.855  20.785  0.00  0.00    +0.000 A 
BRANCH   3   9
ATOM      9  S   UNL     1       0.155   9.650  21.983  0.00  0.00    +0.000 S 
ATOM     10  O   UNL     1      -0.740  10.687  21.525  0.00  0.00    +0.000 OA
ATOM     11  O   UNL     1       1.016   9.814  23.126  0.00  0.00    +0.000 OA
BRANCH   9  12
ATOM     12  N   UNL     1      -0.809   8.318  22.348  0.00  0.00    +0.000 NA
ATOM     13  H   UNL     1      -1.769   8.621  22.511  0.00  0.00    +0.000 HD
ATOM     14  H   UNL     1      -0.399   7.784  23.114  0.00  0.00    +0.000 HD
ENDBRANCH   9  12
ENDBRANCH   3   9
ENDBRANCH   1   7
BRANCH   1  15
ATOM     15  C   UNL     1       2.449   4.702  19.457  0.00  0.00    +0.000 A 
ATOM     16  N   UNL     1       1.301   4.324  20.078  0.00  0.00    +0.000 NA
ATOM     17  C   UNL     1       0.704   3.171  19.717  0.00  0.00    +0.000 A 
ATOM     18  C   UNL     1       1.179   2.348  18.718  0.00  0.00    +0.000 A 
ATOM     19  C   UNL     1       2.355   2.720  18.082  0.00  0.00    +0.000 A 
ATOM     20  C   UNL     1       3.007   3.901  18.466  0.00  0.00    +0.000 A 
BRANCH  20  21
ATOM     21  S   UNL     1       4.532   4.299  17.699  0.00  0.00    +0.000 S 
ATOM     22  O   UNL     1       4.815   3.355  16.647  0.00  0.00    +0.000 OA
ATOM     23  O   UNL     1       4.576   5.726  17.459  0.00  0.00    +0.000 OA
BRANCH  21  24
ATOM     24  N   UNL     1       5.666   4.034  18.911  0.00  0.00    +0.000 NA
ATOM     25  H   UNL     1       5.576   3.085  19.273  0.00  0.00    +0.000 HD
ATOM     26  H   UNL     1       6.603   4.255  18.569  0.00  0.00    +0.000 HD
ENDBRANCH  21  24
ENDBRANCH  20  21
ENDBRANCH   1  15
TORSDOF 6
ENDMDL
MODEL 8
REMARK VINA RESULT:      -7.2      4.513      6.430
REMARK  Name = 
REMARK  6 active torsions:
REMARK  status: ('A' for Active; 'I' for Inactive)
REMARK    1  A    between atoms: N_1  and  S_2
REMARK    2  A    between atoms: S_2  and  C_5
REMARK    3  A    between atoms: C_9  and  N_10
REMARK    4  A    between atoms: N_10  and  C_11
REMARK    5  A    between atoms: C_16  and  S_17
REMARK    6  A    between atoms: S_17  and  N_18
REMARK                            x       y       z     vdW  Elec       q    Type
REMARK                         _______ _______ _______ _____ _____    ______ ____
ROOT
ATOM      1  N   UNL     1       1.919   6.937  20.895  0.00  0.00    +0.000 N 
ATOM      2  H   UNL     1       2.417   7.197  21.741  0.00  0.00    +0.000 HD
ENDROOT
BRANCH   1   7
ATOM      3  C   UNL     1       3.180   3.691  19.602  0.00  0.00    +0.000 A 
ATOM      4  C   UNL     1       2.027   2.907  19.606  0.00  0.00    +0.000 A 
ATOM      5  C   UNL     1       0.839   3.459  20.082  0.00  0.00    +0.000 A 
ATOM      6  C   UNL     1       0.806   4.790  20.526  0.00  0.00    +0.000 A 
ATOM      7  C   UNL     1       1.968   5.574  20.543  0.00  0.00    +0.000 A 
ATOM      8  C   UNL     1       3.163   4.993  20.107  0.00  0.00    +0.000 A 
BRANCH   3   9
ATOM      9  S   UNL     1       4.646   3.108  18.815  0.00  0.00    +0.000 S 
ATOM     10  O   UNL     1       5.728   4.028  19.077  0.00  0.00    +0.000 OA
ATOM     11  O   UNL     1       4.343   2.618  17.494  0.00  0.00    +0.000 OA
BRANCH   9  12
ATOM     12  N   UNL     1       4.963   1.730  19.731  0.00  0.00    +0.000 NA
ATOM     13  H   UNL     1       4.090   1.241  19.932  0.00  0.00    +0.000 HD
ATOM     14  H   UNL     1       5.512   1.971  20.555  0.00  0.00    +0.000 HD
ENDBRANCH   9  12
ENDBRANCH   3   9
ENDBRANCH   1   7
BRANCH   1  15
ATOM     15  C   UNL     1       1.746   8.017  20.015  0.00  0.00    +0.000 A 
ATOM     16  N   UNL     1       2.197   7.846  18.744  0.00  0.00    +0.000 NA
ATOM     17  C   UNL     1       2.012   8.829  17.840  0.00  0.00    +0.000 A 
ATOM     18  C   UNL     1       1.355  10.008  18.121  0.00  0.00    +0.000 A 
ATOM     19  C   UNL     1       0.897  10.197  19.418  0.00  0.00    +0.000 A 
ATOM     20  C   UNL     1       1.108   9.199  20.380  0.00  0.00    +0.000 A 
BRANCH  20  21
ATOM     21  S   UNL     1       0.589   9.503  22.026  0.00  0.00    +0.000 S 
ATOM     22  O   UNL     1      -0.606   8.749  22.312  0.00  0.00    +0.000 OA
ATOM     23  O   UNL     1       1.743   9.441  22.899  0.00  0.00    +0.000 OA
BRANCH  21  24
ATOM     24  N   UNL     1       0.151  11.126  22.010  0.00  0.00    +0.000 NA
ATOM     25  H   UNL     1       0.377  11.540  21.105  0.00  0.00    +0.000 HD
ATOM     26  H   UNL     1      -0.830  11.227  22.273  0.00  0.00    +0.000 HD
ENDBRANCH  21  24
ENDBRANCH  20  21
ENDBRANCH   1  15
TORSDOF 6
ENDMDL
MODEL 9
REMARK VINA RESULT:      -7.1      4.563      6.423
REMARK  Name = 
REMARK  6 active torsions:
REMARK  status: ('A' for Active; 'I' for Inactive)
REMARK    1  A    between atoms: N_1  and  S_2
REMARK    2  A    between atoms: S_2  and  C_5
REMARK    3  A    between atoms: C_9  and  N_10
REMARK    4  A    between atoms: N_10  and  C_11
REMARK    5  A    between atoms: C_16  and  S_17
REMARK    6  A    between atoms: S_17  and  N_18
REMARK                            x       y       z     vdW  Elec       q    Type
REMARK                         _______ _______ _______ _____ _____    ______ ____
ROOT
ATOM      1  N   UNL     1       1.889   7.095  20.897  0.00  0.00    +0.000 N 
ATOM      2  H   UNL     1       2.405   7.374  21.726  0.00  0.00    +0.000 HD
ENDROOT
BRANCH   1   7
ATOM      3  C   UNL     1       3.218   3.872  19.615  0.00  0.00    +0.000 A 
ATOM      4  C   UNL     1       2.081   3.065  19.620  0.00  0.00    +0.000 A 
ATOM      5  C   UNL     1       0.882   3.594  20.094  0.00  0.00    +0.000 A 
ATOM      6  C   UNL     1       0.821   4.924  20.533  0.00  0.00    +0.000 A 
ATOM      7  C   UNL     1       1.966   5.733  20.550  0.00  0.00    +0.000 A 
ATOM      8  C   UNL     1       3.173   5.175  20.116  0.00  0.00    +0.000 A 
BRANCH   3   9
ATOM      9  S   UNL     1       4.697   3.317  18.831  0.00  0.00    +0.000 S 
ATOM     10  O   UNL     1       5.789   4.186  19.202  0.00  0.00    +0.000 OA
ATOM     11  O   UNL     1       4.429   2.943  17.466  0.00  0.00    +0.000 OA
BRANCH   9  12
ATOM     12  N   UNL     1       4.950   1.862  19.641  0.00  0.00    +0.000 NA
ATOM     13  H   UNL     1       5.419   2.039  20.531  0.00  0.00    +0.000 HD
ATOM     14  H   UNL     1       5.433   1.199  19.035  0.00  0.00    +0.000 HD
ENDBRANCH   9  12
ENDBRANCH   3   9
ENDBRANCH   1   7
BRANCH   1  15
ATOM     15  C   UNL     1       1.658   8.165  20.019  0.00  0.00    +0.000 A 
ATOM     16  N   UNL     1       2.126   8.026  18.751  0.00  0.00    +0.000 NA
ATOM     17  C   UNL     1       1.889   8.998  17.848  0.00  0.00    +0.000 A 
ATOM     18  C   UNL     1       1.162  10.135  18.128  0.00  0.00    +0.000 A 
ATOM     19  C   UNL     1       0.685  10.294  19.422  0.00  0.00    +0.000 A 
ATOM     20  C   UNL     1       0.949   9.306  20.383  0.00  0.00    +0.000 A 
BRANCH  20  21
ATOM     21  S   UNL     1       0.403   9.575  22.026  0.00  0.00    +0.000 S 
ATOM     22  O   UNL     1       1.501   9.402  22.944  0.00  0.00    +0.000 OA
ATOM     23  O   UNL     1      -0.422  10.764  22.057  0.00  0.00    +0.000 OA
BRANCH  21  24
ATOM     24  N   UNL     1      -0.666   8.306  22.300  0.00  0.00    +0.000 NA
ATOM     25  H   UNL     1      -1.300   8.543  23.064  0.00  0.00    +0.000 HD
ATOM     26  H   UNL     1      -1.145   8.058  21.433  0.00  0.00    +0.000 HD
ENDBRANCH  21  24
ENDBRANCH  20  21
ENDBRANCH   1  15
TORSDOF 6
ENDMDL
