MODEL 1
REMARK VINA RESULT:      -7.3      0.000      0.000
REMARK  Name = 
REMARK  8 active torsions:
REMARK  status: ('A' for Active; 'I' for Inactive)
REMARK    1  A    between atoms: C_1  and  C_2
REMARK    2  A    between atoms: C_2  and  C_3
REMARK    3  A    between atoms: C_2  and  C_4
REMARK    4  A    between atoms: C_4  and  O_6
REMARK    5  A    between atoms: O_6  and  C_7
REMARK    6  A    between atoms: C_12  and  C_13
REMARK    7  A    between atoms: C_14  and  S_15
REMARK    8  A    between atoms: S_15  and  C_16
REMARK                            x       y       z     vdW  Elec       q    Type
REMARK                         _______ _______ _______ _____ _____    ______ ____
ROOT
ATOM      1  C   UNL     1       4.353   4.269  18.058  0.00  0.00    +0.000 A 
ATOM      2  C   UNL     1       3.961   5.156  17.053  0.00  0.00    +0.000 A 
ATOM      3  C   UNL     1       4.738   6.297  16.795  0.00  0.00    +0.000 A 
ATOM      4  C   UNL     1       5.897   6.534  17.544  0.00  0.00    +0.000 A 
ATOM      5  O   UNL     1       6.643   7.644  17.243  0.00  0.00    +0.000 OA
ATOM      6  C   UNL     1       7.805   7.882  17.972  0.00  0.00    +0.000 A 
ATOM      7  C   UNL     1       8.238   7.101  18.973  0.00  0.00    +0.000 A 
ATOM      8  C   UNL     1       7.480   5.896  19.323  0.00  0.00    +0.000 A 
ATOM      9  O   UNL     1       7.855   5.151  20.220  0.00  0.00    +0.000 OA
ATOM     10  C   UNL     1       6.267   5.639  18.543  0.00  0.00    +0.000 A 
ATOM     11  C   UNL     1       5.514   4.497  18.790  0.00  0.00    +0.000 A 
ENDROOT
BRANCH   6  12
ATOM     12  C   UNL     1       8.535   9.078  17.590  0.00  0.00    +0.000 C 
ATOM     13  C   UNL     1       8.971  10.010  18.452  0.00  0.00    +0.000 C 
BRANCH  13  14
ATOM     14  S   UNL     1       9.911  11.398  17.824  0.00  0.00    +0.000 S 
ATOM     15  C   UNL     1       8.705  12.680  18.250  0.00  0.00    +0.000 C 
ATOM     16  O   UNL     1      11.144  11.556  18.782  0.00  0.00    +0.000 OA
ENDBRANCH  13  14
ENDBRANCH   6  12
BRANCH   1  17
ATOM     17  O   UNL     1       3.635   3.069  18.219  0.00  0.00    +0.000 OA
BRANCH  17  18
ATOM     18  C   UNL     1       2.310   3.189  18.655  0.00  0.00    +0.000 C 
ATOM     19  O   UNL     1       1.317   3.066  17.951  0.00  0.00    +0.000 OA
BRANCH  18  21
ATOM     20  C   UNL     1       1.728   4.993  20.291  0.00  0.00    +0.000 C 
ATOM     21  C   UNL     1       2.293   3.582  20.123  0.00  0.00    +0.000 C 
ATOM     22  C   UNL     1       1.496   2.583  20.948  0.00  0.00    +0.000 C 
ENDBRANCH  18  21
ENDBRANCH  17  18
ENDBRANCH   1  17
TORSDOF 5
ENDMDL
MODEL 2
REMARK VINA RESULT:      -7.3      0.804      1.207
REMARK  Name = 
REMARK  8 active torsions:
REMARK  status: ('A' for Active; 'I' for Inactive)
REMARK    1  A    between atoms: C_1  and  C_2
REMARK    2  A    between atoms: C_2  and  C_3
REMARK    3  A    between atoms: C_2  and  C_4
REMARK    4  A    between atoms: C_4  and  O_6
REMARK    5  A    between atoms: O_6  and  C_7
REMARK    6  A    between atoms: C_12  and  C_13
REMARK    7  A    between atoms: C_14  and  S_15
REMARK    8  A    between atoms: S_15  and  C_16
REMARK                            x       y       z     vdW  Elec       q    Type
REMARK                         _______ _______ _______ _____ _____    ______ ____
ROOT
ATOM      1  C   UNL     1       4.671   4.110  17.881  0.00  0.00    +0.000 A 
ATOM      2  C   UNL     1       4.245   4.983  16.878  0.00  0.00    +0.000 A 
ATOM      3  C   UNL     1       4.938   6.185  16.667  0.00  0.00    +0.000 A 
ATOM      4  C   UNL     1       6.050   6.497  17.459  0.00  0.00    +0.000 A 
ATOM      5  O   UNL     1       6.716   7.667  17.203  0.00  0.00    +0.000 OA
ATOM      6  C   UNL     1       7.830   7.981  17.976  0.00  0.00    +0.000 A 
ATOM      7  C   UNL     1       8.290   7.216  18.978  0.00  0.00    +0.000 A 
ATOM      8  C   UNL     1       7.617   5.950  19.282  0.00  0.00    +0.000 A 
ATOM      9  O   UNL     1       8.019   5.219  20.178  0.00  0.00    +0.000 OA
ATOM     10  C   UNL     1       6.454   5.614  18.455  0.00  0.00    +0.000 A 
ATOM     11  C   UNL     1       5.785   4.413  18.657  0.00  0.00    +0.000 A 
ENDROOT
BRANCH   6  12
ATOM     12  C   UNL     1       8.477   9.237  17.639  0.00  0.00    +0.000 C 
ATOM     13  C   UNL     1       9.109  10.026  18.522  0.00  0.00    +0.000 C 
BRANCH  13  14
ATOM     14  S   UNL     1       9.909  11.516  17.934  0.00  0.00    +0.000 S 
ATOM     15  C   UNL     1       8.940  12.682  18.925  0.00  0.00    +0.000 C 
ATOM     16  O   UNL     1      11.367  11.483  18.513  0.00  0.00    +0.000 OA
ENDBRANCH  13  14
ENDBRANCH   6  12
BRANCH   1  17
ATOM     17  O   UNL     1       4.044   2.855  17.997  0.00  0.00    +0.000 OA
BRANCH  17  18
ATOM     18  C   UNL     1       3.860   2.367  19.295  0.00  0.00    +0.000 C 
ATOM     19  O   UNL     1       4.729   1.864  19.995  0.00  0.00    +0.000 OA
BRANCH  18  21
ATOM     20  C   UNL     1       2.158   3.702  20.558  0.00  0.00    +0.000 C 
ATOM     21  C   UNL     1       2.392   2.476  19.675  0.00  0.00    +0.000 C 
ATOM     22  C   UNL     1       1.510   2.529  18.437  0.00  0.00    +0.000 C 
ENDBRANCH  18  21
ENDBRANCH  17  18
ENDBRANCH   1  17
TORSDOF 5
ENDMDL
MODEL 3
REMARK VINA RESULT:      -7.2      1.228      1.387
REMARK  Name = 
REMARK  8 active torsions:
REMARK  status: ('A' for Active; 'I' for Inactive)
REMARK    1  A    between atoms: C_1  and  C_2
REMARK    2  A    between atoms: C_2  and  C_3
REMARK    3  A    between atoms: C_2  and  C_4
REMARK    4  A    between atoms: C_4  and  O_6
REMARK    5  A    between atoms: O_6  and  C_7
REMARK    6  A    between atoms: C_12  and  C_13
REMARK    7  A    between atoms: C_14  and  S_15
REMARK    8  A    between atoms: S_15  and  C_16
REMARK                            x       y       z     vdW  Elec       q    Type
REMARK                         _______ _______ _______ _____ _____    ______ ____
ROOT
ATOM      1  C   UNL     1       5.040   4.348  17.099  0.00  0.00    +0.000 A 
ATOM      2  C   UNL     1       4.630   5.352  16.219  0.00  0.00    +0.000 A 
ATOM      3  C   UNL     1       5.265   6.604  16.254  0.00  0.00    +0.000 A 
ATOM      4  C   UNL     1       6.304   6.834  17.164  0.00  0.00    +0.000 A 
ATOM      5  O   UNL     1       6.917   8.059  17.147  0.00  0.00    +0.000 OA
ATOM      6  C   UNL     1       7.960   8.293  18.039  0.00  0.00    +0.000 A 
ATOM      7  C   UNL     1       8.397   7.398  18.937  0.00  0.00    +0.000 A 
ATOM      8  C   UNL     1       7.780   6.069  18.985  0.00  0.00    +0.000 A 
ATOM      9  O   UNL     1       8.165   5.221  19.780  0.00  0.00    +0.000 OA
ATOM     10  C   UNL     1       6.694   5.819  18.034  0.00  0.00    +0.000 A 
ATOM     11  C   UNL     1       6.083   4.571  17.991  0.00  0.00    +0.000 A 
ENDROOT
BRANCH   6  12
ATOM     12  C   UNL     1       8.554   9.616  17.956  0.00  0.00    +0.000 C 
ATOM     13  C   UNL     1       9.302  10.175  18.919  0.00  0.00    +0.000 C 
BRANCH  13  14
ATOM     14  S   UNL     1      10.014  11.793  18.634  0.00  0.00    +0.000 S 
ATOM     15  C   UNL     1      10.539  12.097  20.341  0.00  0.00    +0.000 C 
ATOM     16  O   UNL     1      11.299  11.556  17.768  0.00  0.00    +0.000 OA
ENDBRANCH  13  14
ENDBRANCH   6  12
BRANCH   1  17
ATOM     17  O   UNL     1       4.479   3.064  16.967  0.00  0.00    +0.000 OA
BRANCH  17  18
ATOM     18  C   UNL     1       3.578   2.671  17.962  0.00  0.00    +0.000 C 
ATOM     19  O   UNL     1       3.351   1.517  18.299  0.00  0.00    +0.000 OA
BRANCH  18  21
ATOM     20  C   UNL     1       1.421   3.942  17.978  0.00  0.00    +0.000 C 
ATOM     21  C   UNL     1       2.856   3.894  18.504  0.00  0.00    +0.000 C 
ATOM     22  C   UNL     1       2.872   3.909  20.025  0.00  0.00    +0.000 C 
ENDBRANCH  18  21
ENDBRANCH  17  18
ENDBRANCH   1  17
TORSDOF 5
ENDMDL
MODEL 4
REMARK VINA RESULT:      -6.9      4.241      6.726
REMARK  Name = 
REMARK  8 active torsions:
REMARK  status: ('A' for Active; 'I' for Inactive)
REMARK    1  A    between atoms: C_1  and  C_2
REMARK    2  A    between atoms: C_2  and  C_3
REMARK    3  A    between atoms: C_2  and  C_4
REMARK    4  A    between atoms: C_4  and  O_6
REMARK    5  A    between atoms: O_6  and  C_7
REMARK    6  A    between atoms: C_12  and  C_13
REMARK    7  A    between atoms: C_14  and  S_15
REMARK    8  A    between atoms: S_15  and  C_16
REMARK                            x       y       z     vdW  Elec       q    Type
REMARK                         _______ _______ _______ _____ _____    ______ ____
ROOT
ATOM      1  C   UNL     1       5.266   4.455  16.022  0.00  0.00    +0.000 A 
ATOM      2  C   UNL     1       5.389   5.842  15.929  0.00  0.00    +0.000 A 
ATOM      3  C   UNL     1       4.693   6.661  16.832  0.00  0.00    +0.000 A 
ATOM      4  C   UNL     1       3.886   6.081  17.819  0.00  0.00    +0.000 A 
ATOM      5  O   UNL     1       3.246   6.914  18.699  0.00  0.00    +0.000 OA
ATOM      6  C   UNL     1       2.452   6.347  19.692  0.00  0.00    +0.000 A 
ATOM      7  C   UNL     1       2.253   5.028  19.836  0.00  0.00    +0.000 A 
ATOM      8  C   UNL     1       2.927   4.097  18.926  0.00  0.00    +0.000 A 
ATOM      9  O   UNL     1       2.782   2.887  19.037  0.00  0.00    +0.000 OA
ATOM     10  C   UNL     1       3.776   4.696  17.891  0.00  0.00    +0.000 A 
ATOM     11  C   UNL     1       4.477   3.878  17.013  0.00  0.00    +0.000 A 
ENDROOT
BRANCH   6  12
ATOM     12  C   UNL     1       1.809   7.299  20.582  0.00  0.00    +0.000 C 
ATOM     13  C   UNL     1       1.576   8.585  20.278  0.00  0.00    +0.000 C 
BRANCH  13  14
ATOM     14  S   UNL     1       0.716   9.614  21.464  0.00  0.00    +0.000 S 
ATOM     15  C   UNL     1      -0.687   8.500  21.733  0.00  0.00    +0.000 C 
ATOM     16  O   UNL     1       1.596   9.605  22.763  0.00  0.00    +0.000 OA
ENDBRANCH  13  14
ENDBRANCH   6  12
BRANCH   1  17
ATOM     17  O   UNL     1       6.066   3.647  15.191  0.00  0.00    +0.000 OA
BRANCH  17  18
ATOM     18  C   UNL     1       6.818   4.309  14.214  0.00  0.00    +0.000 C 
ATOM     19  O   UNL     1       7.551   5.269  14.412  0.00  0.00    +0.000 OA
BRANCH  18  21
ATOM     20  C   UNL     1       5.018   3.786  12.553  0.00  0.00    +0.000 C 
ATOM     21  C   UNL     1       6.516   3.711  12.850  0.00  0.00    +0.000 C 
ATOM     22  C   UNL     1       7.316   4.408  11.759  0.00  0.00    +0.000 C 
ENDBRANCH  18  21
ENDBRANCH  17  18
ENDBRANCH   1  17
TORSDOF 5
ENDMDL
MODEL 5
REMARK VINA RESULT:      -6.9      4.326      6.882
REMARK  Name = 
REMARK  8 active torsions:
REMARK  status: ('A' for Active; 'I' for Inactive)
REMARK    1  A    between atoms: C_1  and  C_2
REMARK    2  A    between atoms: C_2  and  C_3
REMARK    3  A    between atoms: C_2  and  C_4
REMARK    4  A    between atoms: C_4  and  O_6
REMARK    5  A    between atoms: O_6  and  C_7
REMARK    6  A    between atoms: C_12  and  C_13
REMARK    7  A    between atoms: C_14  and  S_15
REMARK    8  A    between atoms: S_15  and  C_16
REMARK                            x       y       z     vdW  Elec       q    Type
REMARK                         _______ _______ _______ _____ _____    ______ ____
ROOT
ATOM      1  C   UNL     1       5.126   4.548  16.119  0.00  0.00    +0.000 A 
ATOM      2  C   UNL     1       5.108   5.943  16.054  0.00  0.00    +0.000 A 
ATOM      3  C   UNL     1       4.352   6.669  16.988  0.00  0.00    +0.000 A 
ATOM      4  C   UNL     1       3.628   5.991  17.976  0.00  0.00    +0.000 A 
ATOM      5  O   UNL     1       2.925   6.737  18.886  0.00  0.00    +0.000 OA
ATOM      6  C   UNL     1       2.212   6.074  19.880  0.00  0.00    +0.000 A 
ATOM      7  C   UNL     1       2.149   4.739  19.998  0.00  0.00    +0.000 A 
ATOM      8  C   UNL     1       2.894   3.899  19.055  0.00  0.00    +0.000 A 
ATOM      9  O   UNL     1       2.873   2.678  19.142  0.00  0.00    +0.000 OA
ATOM     10  C   UNL     1       3.658   4.601  18.019  0.00  0.00    +0.000 A 
ATOM     11  C   UNL     1       4.420   3.876  17.110  0.00  0.00    +0.000 A 
ENDROOT
BRANCH   6  12
ATOM     12  C   UNL     1       1.496   6.938  20.802  0.00  0.00    +0.000 C 
ATOM     13  C   UNL     1       1.478   8.278  20.730  0.00  0.00    +0.000 C 
BRANCH  13  14
ATOM     14  S   UNL     1       0.494   9.197  21.909  0.00  0.00    +0.000 S 
ATOM     15  C   UNL     1      -0.047  10.496  20.768  0.00  0.00    +0.000 C 
ATOM     16  O   UNL     1      -0.746   8.294  22.237  0.00  0.00    +0.000 OA
ENDBRANCH  13  14
ENDBRANCH   6  12
BRANCH   1  17
ATOM     17  O   UNL     1       5.986   3.842  15.255  0.00  0.00    +0.000 OA
BRANCH  17  18
ATOM     18  C   UNL     1       6.836   4.612  14.454  0.00  0.00    +0.000 C 
ATOM     19  O   UNL     1       7.750   5.318  14.861  0.00  0.00    +0.000 OA
BRANCH  18  21
ATOM     20  C   UNL     1       7.536   4.918  12.069  0.00  0.00    +0.000 C 
ATOM     21  C   UNL     1       6.396   4.510  13.003  0.00  0.00    +0.000 C 
ATOM     22  C   UNL     1       5.909   3.106  12.677  0.00  0.00    +0.000 C 
ENDBRANCH  18  21
ENDBRANCH  17  18
ENDBRANCH   1  17
TORSDOF 5
ENDMDL
MODEL 6
REMARK VINA RESULT:      -6.9      1.236      1.461
REMARK  Name = 
REMARK  8 active torsions:
REMARK  status: ('A' for Active; 'I' for Inactive)
REMARK    1  A    between atoms: C_1  and  C_2
REMARK    2  A    between atoms: C_2  and  C_3
REMARK    3  A    between atoms: C_2  and  C_4
REMARK    4  A    between atoms: C_4  and  O_6
REMARK    5  A    between atoms: O_6  and  C_7
REMARK    6  A    between atoms: C_12  and  C_13
REMARK    7  A    between atoms: C_14  and  S_15
REMARK    8  A    between atoms: S_15  and  C_16
REMARK                            x       y       z     vdW  Elec       q    Type
REMARK                         _______ _______ _______ _____ _____    ______ ____
ROOT
ATOM      1  C   UNL     1       4.838   4.473  17.100  0.00  0.00    +0.000 A 
ATOM      2  C   UNL     1       4.495   5.509  16.229  0.00  0.00    +0.000 A 
ATOM      3  C   UNL     1       5.219   6.711  16.265  0.00  0.00    +0.000 A 
ATOM      4  C   UNL     1       6.278   6.860  17.168  0.00  0.00    +0.000 A 
ATOM      5  O   UNL     1       6.978   8.039  17.152  0.00  0.00    +0.000 OA
ATOM      6  C   UNL     1       8.041   8.192  18.038  0.00  0.00    +0.000 A 
ATOM      7  C   UNL     1       8.420   7.262  18.928  0.00  0.00    +0.000 A 
ATOM      8  C   UNL     1       7.709   5.981  18.974  0.00  0.00    +0.000 A 
ATOM      9  O   UNL     1       8.037   5.104  19.762  0.00  0.00    +0.000 OA
ATOM     10  C   UNL     1       6.600   5.816  18.030  0.00  0.00    +0.000 A 
ATOM     11  C   UNL     1       5.901   4.616  17.986  0.00  0.00    +0.000 A 
ENDROOT
BRANCH   6  12
ATOM     12  C   UNL     1       8.729   9.469  17.956  0.00  0.00    +0.000 C 
ATOM     13  C   UNL     1       8.746  10.387  18.936  0.00  0.00    +0.000 C 
BRANCH  13  14
ATOM     14  S   UNL     1       9.693  11.888  18.700  0.00  0.00    +0.000 S 
ATOM     15  C   UNL     1      10.803  11.662  20.113  0.00  0.00    +0.000 C 
ATOM     16  O   UNL     1      10.527  11.673  17.389  0.00  0.00    +0.000 OA
ENDBRANCH  13  14
ENDBRANCH   6  12
BRANCH   1  17
ATOM     17  O   UNL     1       4.185   3.233  16.966  0.00  0.00    +0.000 OA
BRANCH  17  18
ATOM     18  C   UNL     1       2.896   3.146  17.502  0.00  0.00    +0.000 C 
ATOM     19  O   UNL     1       1.880   3.595  16.987  0.00  0.00    +0.000 OA
BRANCH  18  21
ATOM     20  C   UNL     1       1.548   2.229  19.404  0.00  0.00    +0.000 C 
ATOM     21  C   UNL     1       2.958   2.483  18.869  0.00  0.00    +0.000 C 
ATOM     22  C   UNL     1       3.752   1.187  18.812  0.00  0.00    +0.000 C 
ENDBRANCH  18  21
ENDBRANCH  17  18
ENDBRANCH   1  17
TORSDOF 5
ENDMDL
MODEL 7
REMARK VINA RESULT:      -6.9      4.245      6.632
REMARK  Name = 
REMARK  8 active torsions:
REMARK  status: ('A' for Active; 'I' for Inactive)
REMARK    1  A    between atoms: C_1  and  C_2
REMARK    2  A    between atoms: C_2  and  C_3
REMARK    3  A    between atoms: C_2  and  C_4
REMARK    4  A    between atoms: C_4  and  O_6
REMARK    5  A    between atoms: O_6  and  C_7
REMARK    6  A    between atoms: C_12  and  C_13
REMARK    7  A    between atoms: C_14  and  S_15
REMARK    8  A    between atoms: S_15  and  C_16
REMARK                            x       y       z     vdW  Elec       q    Type
REMARK                         _______ _______ _______ _____ _____    ______ ____
ROOT
ATOM      1  C   UNL     1       4.936   4.810  16.579  0.00  0.00    +0.000 A 
ATOM      2  C   UNL     1       4.932   6.176  16.288  0.00  0.00    +0.000 A 
ATOM      3  C   UNL     1       4.183   7.051  17.090  0.00  0.00    +0.000 A 
ATOM      4  C   UNL     1       3.452   6.550  18.174  0.00  0.00    +0.000 A 
ATOM      5  O   UNL     1       2.756   7.441  18.950  0.00  0.00    +0.000 OA
ATOM      6  C   UNL     1       2.037   6.955  20.038  0.00  0.00    +0.000 A 
ATOM      7  C   UNL     1       1.961   5.658  20.371  0.00  0.00    +0.000 A 
ATOM      8  C   UNL     1       2.698   4.669  19.578  0.00  0.00    +0.000 A 
ATOM      9  O   UNL     1       2.666   3.479  19.863  0.00  0.00    +0.000 OA
ATOM     10  C   UNL     1       3.468   5.185  18.443  0.00  0.00    +0.000 A 
ATOM     11  C   UNL     1       4.223   4.315  17.666  0.00  0.00    +0.000 A 
ENDROOT
BRANCH   6  12
ATOM     12  C   UNL     1       1.328   7.965  20.805  0.00  0.00    +0.000 C 
ATOM     13  C   UNL     1       1.008   9.184  20.344  0.00  0.00    +0.000 C 
BRANCH  13  14
ATOM     14  S   UNL     1       0.078  10.292  21.399  0.00  0.00    +0.000 S 
ATOM     15  C   UNL     1       0.286   9.350  22.932  0.00  0.00    +0.000 C 
ATOM     16  O   UNL     1       0.934  11.601  21.515  0.00  0.00    +0.000 OA
ENDBRANCH  13  14
ENDBRANCH   6  12
BRANCH   1  17
ATOM     17  O   UNL     1       5.789   3.965  15.844  0.00  0.00    +0.000 OA
BRANCH  17  18
ATOM     18  C   UNL     1       6.802   4.589  15.106  0.00  0.00    +0.000 C 
ATOM     19  O   UNL     1       7.547   5.466  15.524  0.00  0.00    +0.000 OA
BRANCH  18  21
ATOM     20  C   UNL     1       5.339   3.878  13.203  0.00  0.00    +0.000 C 
ATOM     21  C   UNL     1       6.779   4.074  13.677  0.00  0.00    +0.000 C 
ATOM     22  C   UNL     1       7.529   5.015  12.745  0.00  0.00    +0.000 C 
ENDBRANCH  18  21
ENDBRANCH  17  18
ENDBRANCH   1  17
TORSDOF 5
ENDMDL
MODEL 8
REMARK VINA RESULT:      -6.8      5.419      7.604
REMARK  Name = 
REMARK  8 active torsions:
REMARK  status: ('A' for Active; 'I' for Inactive)
REMARK    1  A    between atoms: C_1  and  C_2
REMARK    2  A    between atoms: C_2  and  C_3
REMARK    3  A    between atoms: C_2  and  C_4
REMARK    4  A    between atoms: C_4  and  O_6
REMARK    5  A    between atoms: O_6  and  C_7
REMARK    6  A    between atoms: C_12  and  C_13
REMARK    7  A    between atoms: C_14  and  S_15
REMARK    8  A    between atoms: S_15  and  C_16
REMARK                            x       y       z     vdW  Elec       q    Type
REMARK                         _______ _______ _______ _____ _____    ______ ____
ROOT
ATOM      1  C   UNL     1       3.474   6.353  18.116  0.00  0.00    +0.000 A 
ATOM      2  C   UNL     1       3.096   5.738  19.311  0.00  0.00    +0.000 A 
ATOM      3  C   UNL     1       2.261   6.423  20.208  0.00  0.00    +0.000 A 
ATOM      4  C   UNL     1       1.811   7.712  19.895  0.00  0.00    +0.000 A 
ATOM      5  O   UNL     1       0.974   8.335  20.784  0.00  0.00    +0.000 OA
ATOM      6  C   UNL     1       0.511   9.611  20.477  0.00  0.00    +0.000 A 
ATOM      7  C   UNL     1       0.847  10.288  19.368  0.00  0.00    +0.000 A 
ATOM      8  C   UNL     1       1.730   9.657  18.382  0.00  0.00    +0.000 A 
ATOM      9  O   UNL     1       2.044  10.237  17.352  0.00  0.00    +0.000 OA
ATOM     10  C   UNL     1       2.203   8.306  18.700  0.00  0.00    +0.000 A 
ATOM     11  C   UNL     1       3.014   7.627  17.799  0.00  0.00    +0.000 A 
ENDROOT
BRANCH   6  12
ATOM     12  C   UNL     1      -0.370  10.200  21.471  0.00  0.00    +0.000 C 
ATOM     13  C   UNL     1      -0.455  11.515  21.727  0.00  0.00    +0.000 C 
BRANCH  13  14
ATOM     14  S   UNL     1      -1.638  12.085  22.944  0.00  0.00    +0.000 S 
ATOM     15  C   UNL     1      -0.959  13.754  23.133  0.00  0.00    +0.000 C 
ATOM     16  O   UNL     1      -3.010  12.204  22.193  0.00  0.00    +0.000 OA
ENDBRANCH  13  14
ENDBRANCH   6  12
BRANCH   1  17
ATOM     17  O   UNL     1       4.208   5.607  17.174  0.00  0.00    +0.000 OA
BRANCH  17  18
ATOM     18  C   UNL     1       5.365   6.209  16.667  0.00  0.00    +0.000 C 
ATOM     19  O   UNL     1       5.514   6.606  15.519  0.00  0.00    +0.000 OA
BRANCH  18  21
ATOM     20  C   UNL     1       7.156   4.861  17.783  0.00  0.00    +0.000 C 
ATOM     21  C   UNL     1       6.445   6.213  17.737  0.00  0.00    +0.000 C 
ATOM     22  C   UNL     1       7.443   7.338  17.501  0.00  0.00    +0.000 C 
ENDBRANCH  18  21
ENDBRANCH  17  18
ENDBRANCH   1  17
TORSDOF 5
ENDMDL
MODEL 9
REMARK VINA RESULT:      -6.7      5.068      7.240
REMARK  Name = 
REMARK  8 active torsions:
REMARK  status: ('A' for Active; 'I' for Inactive)
REMARK    1  A    between atoms: C_1  and  C_2
REMARK    2  A    between atoms: C_2  and  C_3
REMARK    3  A    between atoms: C_2  and  C_4
REMARK    4  A    between atoms: C_4  and  O_6
REMARK    5  A    between atoms: O_6  and  C_7
REMARK    6  A    between atoms: C_12  and  C_13
REMARK    7  A    between atoms: C_14  and  S_15
REMARK    8  A    between atoms: S_15  and  C_16
REMARK                            x       y       z     vdW  Elec       q    Type
REMARK                         _______ _______ _______ _____ _____    ______ ____
ROOT
ATOM      1  C   UNL     1       3.284   5.352  18.680  0.00  0.00    +0.000 A 
ATOM      2  C   UNL     1       2.851   4.971  19.951  0.00  0.00    +0.000 A 
ATOM      3  C   UNL     1       2.104   5.872  20.727  0.00  0.00    +0.000 A 
ATOM      4  C   UNL     1       1.797   7.141  20.219  0.00  0.00    +0.000 A 
ATOM      5  O   UNL     1       1.042   7.980  20.995  0.00  0.00    +0.000 OA
ATOM      6  C   UNL     1       0.719   9.238  20.495  0.00  0.00    +0.000 A 
ATOM      7  C   UNL     1       1.118   9.697  19.298  0.00  0.00    +0.000 A 
ATOM      8  C   UNL     1       1.917   8.830  18.427  0.00  0.00    +0.000 A 
ATOM      9  O   UNL     1       2.284   9.209  17.323  0.00  0.00    +0.000 OA
ATOM     10  C   UNL     1       2.241   7.500  18.950  0.00  0.00    +0.000 A 
ATOM     11  C   UNL     1       2.964   6.606  18.169  0.00  0.00    +0.000 A 
ENDROOT
BRANCH   6  12
ATOM     12  C   UNL     1      -0.082  10.065  21.381  0.00  0.00    +0.000 C 
ATOM     13  C   UNL     1      -0.019  11.404  21.434  0.00  0.00    +0.000 C 
BRANCH  13  14
ATOM     14  S   UNL     1      -1.121  12.280  22.540  0.00  0.00    +0.000 S 
ATOM     15  C   UNL     1      -2.242  12.913  21.266  0.00  0.00    +0.000 C 
ATOM     16  O   UNL     1      -1.886  11.178  23.353  0.00  0.00    +0.000 OA
ENDBRANCH  13  14
ENDBRANCH   6  12
BRANCH   1  17
ATOM     17  O   UNL     1       3.922   4.395  17.868  0.00  0.00    +0.000 OA
BRANCH  17  18
ATOM     18  C   UNL     1       5.319   4.454  17.815  0.00  0.00    +0.000 C 
ATOM     19  O   UNL     1       6.077   4.182  18.737  0.00  0.00    +0.000 OA
BRANCH  18  21
ATOM     20  C   UNL     1       7.029   5.826  16.606  0.00  0.00    +0.000 C 
ATOM     21  C   UNL     1       5.754   4.995  16.463  0.00  0.00    +0.000 C 
ATOM     22  C   UNL     1       5.957   3.867  15.463  0.00  0.00    +0.000 C 
ENDBRANCH  18  21
ENDBRANCH  17  18
ENDBRANCH   1  17
TORSDOF 5
ENDMDL
