MODEL 1
REMARK VINA RESULT:      -8.7      0.000      0.000
REMARK  Name = 
REMARK  10 active torsions:
REMARK  status: ('A' for Active; 'I' for Inactive)
REMARK    1  A    between atoms: C_1  and  O_2
REMARK    2  A    between atoms: O_2  and  C_3
REMARK    3  A    between atoms: C_6  and  C_7
REMARK    4  A    between atoms: N_9  and  C_10
REMARK    5  A    between atoms: C_10  and  C_11
REMARK    6  A    between atoms: C_19  and  O_20
REMARK    7  A    between atoms: O_20  and  C_21
REMARK    8  A    between atoms: C_21  and  C_22
REMARK    9  A    between atoms: C_22  and  O_24
REMARK   10  A    between atoms: C_29  and  C_30
REMARK                            x       y       z     vdW  Elec       q    Type
REMARK                         _______ _______ _______ _____ _____    ______ ____
ROOT
ATOM      1  C   UNL     1       2.304   7.199  19.584  0.00  0.00    +0.000 A 
ATOM      2  N   UNL     1       1.960   8.467  19.547  0.00  0.00    +0.000 NA
ATOM      3  N   UNL     1       0.907   8.913  20.364  0.00  0.00    +0.000 N 
ATOM      4  C   UNL     1       0.224   8.061  21.231  0.00  0.00    +0.000 A 
ATOM      5  O   UNL     1      -0.697   8.398  21.978  0.00  0.00    +0.000 OA
ATOM      6  C   UNL     1       0.605   6.645  21.205  0.00  0.00    +0.000 A 
ATOM      7  C   UNL     1       1.574   6.171  20.415  0.00  0.00    +0.000 A 
ENDROOT
BRANCH   1  11
ATOM      8  C   UNL     1       5.395   5.648  16.926  0.00  0.00    +0.000 A 
ATOM      9  C   UNL     1       5.258   5.137  18.210  0.00  0.00    +0.000 A 
ATOM     10  C   UNL     1       4.326   5.688  19.098  0.00  0.00    +0.000 A 
ATOM     11  C   UNL     1       3.451   6.712  18.709  0.00  0.00    +0.000 A 
ATOM     12  C   UNL     1       3.652   7.274  17.443  0.00  0.00    +0.000 A 
ATOM     13  C   UNL     1       4.621   6.749  16.559  0.00  0.00    +0.000 A 
BRANCH   8  15
ATOM     14  C   UNL     1       5.989   3.778  15.598  0.00  0.00    +0.000 C 
ATOM     15  O   UNL     1       6.346   5.035  16.161  0.00  0.00    +0.000 OA
ENDBRANCH   8  15
ENDBRANCH   1  11
BRANCH   7  16
ATOM     16  C   UNL     1       1.739   4.701  20.385  0.00  0.00    +0.000 A 
ATOM     17  C   UNL     1       1.290   3.935  19.302  0.00  0.00    +0.000 A 
ATOM     18  C   UNL     1       1.417   2.542  19.309  0.00  0.00    +0.000 A 
ATOM     19  C   UNL     1       2.011   1.896  20.394  0.00  0.00    +0.000 A 
ATOM     20  C   UNL     1       2.458   2.641  21.482  0.00  0.00    +0.000 A 
ATOM     21  C   UNL     1       2.297   4.029  21.491  0.00  0.00    +0.000 A 
ENDBRANCH   7  16
BRANCH   3  22
ATOM     22  C   UNL     1       0.392  10.306  20.173  0.00  0.00    +0.000 C 
BRANCH  22  23
ATOM     23  C   UNL     1       0.269  10.821  18.705  0.00  0.00    +0.000 C 
ATOM     24  C   UNL     1      -0.263  12.282  18.754  0.00  0.00    +0.000 C 
ATOM     25  C   UNL     1      -1.304  12.574  17.702  0.00  0.00    +0.000 C 
ATOM     26  C   UNL     1      -2.344  11.473  17.868  0.00  0.00    +0.000 A 
ATOM     27  C   UNL     1      -1.876  10.357  17.226  0.00  0.00    +0.000 A 
ATOM     28  C   UNL     1      -2.578  10.031  16.056  0.00  0.00    +0.000 A 
ATOM     29  C   UNL     1      -3.795  10.695  15.752  0.00  0.00    +0.000 A 
ATOM     30  C   UNL     1      -4.400  11.508  16.713  0.00  0.00    +0.000 A 
ATOM     31  C   UNL     1      -3.712  11.741  17.890  0.00  0.00    +0.000 A 
ATOM     32  C   UNL     1      -0.547   9.829  17.735  0.00  0.00    +0.000 C 
BRANCH  31  33
ATOM     33  O   UNL     1      -4.331  11.149  19.013  0.00  0.00    +0.000 OA
BRANCH  33  34
ATOM     34  C   UNL     1      -5.460  11.884  19.471  0.00  0.00    +0.000 C 
BRANCH  34  35
ATOM     35  C   UNL     1      -6.616  10.940  19.756  0.00  0.00    +0.000 C 
ATOM     36  O   UNL     1      -7.031  10.682  20.875  0.00  0.00    +0.000 OA
BRANCH  35  37
ATOM     37  O   UNL     1      -7.125  10.361  18.639  0.00  0.00    +0.000 OA
ATOM     38  H   UNL     1      -7.926   9.835  18.858  0.00  0.00    +0.000 HD
ENDBRANCH  35  37
ENDBRANCH  34  35
ENDBRANCH  33  34
ENDBRANCH  31  33
ENDBRANCH  22  23
ENDBRANCH   3  22
TORSDOF 9
ENDMDL
MODEL 2
REMARK VINA RESULT:      -8.5      0.797      1.367
REMARK  Name = 
REMARK  10 active torsions:
REMARK  status: ('A' for Active; 'I' for Inactive)
REMARK    1  A    between atoms: C_1  and  O_2
REMARK    2  A    between atoms: O_2  and  C_3
REMARK    3  A    between atoms: C_6  and  C_7
REMARK    4  A    between atoms: N_9  and  C_10
REMARK    5  A    between atoms: C_10  and  C_11
REMARK    6  A    between atoms: C_19  and  O_20
REMARK    7  A    between atoms: O_20  and  C_21
REMARK    8  A    between atoms: C_21  and  C_22
REMARK    9  A    between atoms: C_22  and  O_24
REMARK   10  A    between atoms: C_29  and  C_30
REMARK                            x       y       z     vdW  Elec       q    Type
REMARK                         _______ _______ _______ _____ _____    ______ ____
ROOT
ATOM      1  C   UNL     1       2.428   7.180  19.539  0.00  0.00    +0.000 A 
ATOM      2  N   UNL     1       2.160   8.465  19.491  0.00  0.00    +0.000 NA
ATOM      3  N   UNL     1       1.150   8.984  20.320  0.00  0.00    +0.000 N 
ATOM      4  C   UNL     1       0.433   8.185  21.208  0.00  0.00    +0.000 A 
ATOM      5  O   UNL     1      -0.454   8.586  21.966  0.00  0.00    +0.000 OA
ATOM      6  C   UNL     1       0.727   6.748  21.194  0.00  0.00    +0.000 A 
ATOM      7  C   UNL     1       1.653   6.207  20.395  0.00  0.00    +0.000 A 
ENDROOT
BRANCH   1  11
ATOM      8  C   UNL     1       5.763   5.743  17.121  0.00  0.00    +0.000 A 
ATOM      9  C   UNL     1       4.810   6.587  16.565  0.00  0.00    +0.000 A 
ATOM     10  C   UNL     1       3.691   6.983  17.309  0.00  0.00    +0.000 A 
ATOM     11  C   UNL     1       3.529   6.613  18.651  0.00  0.00    +0.000 A 
ATOM     12  C   UNL     1       4.449   5.699  19.176  0.00  0.00    +0.000 A 
ATOM     13  C   UNL     1       5.556   5.263  18.415  0.00  0.00    +0.000 A 
BRANCH   8  15
ATOM     14  C   UNL     1       6.573   4.344  15.390  0.00  0.00    +0.000 C 
ATOM     15  O   UNL     1       6.800   5.419  16.292  0.00  0.00    +0.000 OA
ENDBRANCH   8  15
ENDBRANCH   1  11
BRANCH   7  16
ATOM     16  C   UNL     1       1.729   4.729  20.382  0.00  0.00    +0.000 A 
ATOM     17  C   UNL     1       1.241   3.981  19.304  0.00  0.00    +0.000 A 
ATOM     18  C   UNL     1       1.284   2.582  19.326  0.00  0.00    +0.000 A 
ATOM     19  C   UNL     1       1.831   1.914  20.422  0.00  0.00    +0.000 A 
ATOM     20  C   UNL     1       2.316   2.642  21.505  0.00  0.00    +0.000 A 
ATOM     21  C   UNL     1       2.238   4.037  21.499  0.00  0.00    +0.000 A 
ENDBRANCH   7  16
BRANCH   3  22
ATOM     22  C   UNL     1       0.716  10.402  20.119  0.00  0.00    +0.000 C 
BRANCH  22  23
ATOM     23  C   UNL     1       0.492  10.874  18.648  0.00  0.00    +0.000 C 
ATOM     24  C   UNL     1      -0.001  12.348  18.688  0.00  0.00    +0.000 C 
ATOM     25  C   UNL     1      -1.113  12.634  17.710  0.00  0.00    +0.000 C 
ATOM     26  C   UNL     1      -2.162  11.564  17.990  0.00  0.00    +0.000 A 
ATOM     27  C   UNL     1      -1.770  10.418  17.352  0.00  0.00    +0.000 A 
ATOM     28  C   UNL     1      -2.566  10.072  16.251  0.00  0.00    +0.000 A 
ATOM     29  C   UNL     1      -3.788  10.757  16.018  0.00  0.00    +0.000 A 
ATOM     30  C   UNL     1      -4.299  11.615  16.995  0.00  0.00    +0.000 A 
ATOM     31  C   UNL     1      -3.517  11.868  18.108  0.00  0.00    +0.000 A 
ATOM     32  C   UNL     1      -0.418   9.873  17.776  0.00  0.00    +0.000 C 
BRANCH  31  33
ATOM     33  O   UNL     1      -4.061  11.327  19.294  0.00  0.00    +0.000 OA
BRANCH  33  34
ATOM     34  C   UNL     1      -5.181  12.063  19.771  0.00  0.00    +0.000 C 
BRANCH  34  35
ATOM     35  C   UNL     1      -4.858  12.693  21.115  0.00  0.00    +0.000 C 
ATOM     36  O   UNL     1      -3.930  13.464  21.306  0.00  0.00    +0.000 OA
BRANCH  35  37
ATOM     37  O   UNL     1      -5.678  12.279  22.114  0.00  0.00    +0.000 OA
ATOM     38  H   UNL     1      -6.031  13.049  22.612  0.00  0.00    +0.000 HD
ENDBRANCH  35  37
ENDBRANCH  34  35
ENDBRANCH  33  34
ENDBRANCH  31  33
ENDBRANCH  22  23
ENDBRANCH   3  22
TORSDOF 9
ENDMDL
MODEL 3
REMARK VINA RESULT:      -8.4      0.717      1.400
REMARK  Name = 
REMARK  10 active torsions:
REMARK  status: ('A' for Active; 'I' for Inactive)
REMARK    1  A    between atoms: C_1  and  O_2
REMARK    2  A    between atoms: O_2  and  C_3
REMARK    3  A    between atoms: C_6  and  C_7
REMARK    4  A    between atoms: N_9  and  C_10
REMARK    5  A    between atoms: C_10  and  C_11
REMARK    6  A    between atoms: C_19  and  O_20
REMARK    7  A    between atoms: O_20  and  C_21
REMARK    8  A    between atoms: C_21  and  C_22
REMARK    9  A    between atoms: C_22  and  O_24
REMARK   10  A    between atoms: C_29  and  C_30
REMARK                            x       y       z     vdW  Elec       q    Type
REMARK                         _______ _______ _______ _____ _____    ______ ____
ROOT
ATOM      1  C   UNL     1       2.455   7.119  19.569  0.00  0.00    +0.000 A 
ATOM      2  N   UNL     1       2.227   8.412  19.505  0.00  0.00    +0.000 NA
ATOM      3  N   UNL     1       1.219   8.969  20.310  0.00  0.00    +0.000 N 
ATOM      4  C   UNL     1       0.462   8.200  21.193  0.00  0.00    +0.000 A 
ATOM      5  O   UNL     1      -0.425   8.636  21.932  0.00  0.00    +0.000 OA
ATOM      6  C   UNL     1       0.713   6.756  21.198  0.00  0.00    +0.000 A 
ATOM      7  C   UNL     1       1.635   6.179  20.419  0.00  0.00    +0.000 A 
ENDROOT
BRANCH   1  11
ATOM      8  C   UNL     1       5.781   5.575  17.206  0.00  0.00    +0.000 A 
ATOM      9  C   UNL     1       4.805   6.362  16.607  0.00  0.00    +0.000 A 
ATOM     10  C   UNL     1       3.690   6.789  17.338  0.00  0.00    +0.000 A 
ATOM     11  C   UNL     1       3.553   6.511  18.706  0.00  0.00    +0.000 A 
ATOM     12  C   UNL     1       4.497   5.651  19.278  0.00  0.00    +0.000 A 
ATOM     13  C   UNL     1       5.601   5.182  18.532  0.00  0.00    +0.000 A 
BRANCH   8  15
ATOM     14  C   UNL     1       6.450   4.681  15.117  0.00  0.00    +0.000 C 
ATOM     15  O   UNL     1       6.811   5.212  16.385  0.00  0.00    +0.000 OA
ENDBRANCH   8  15
ENDBRANCH   1  11
BRANCH   7  16
ATOM     16  C   UNL     1       1.666   4.700  20.421  0.00  0.00    +0.000 A 
ATOM     17  C   UNL     1       2.192   3.979  21.502  0.00  0.00    +0.000 A 
ATOM     18  C   UNL     1       2.250   2.582  21.469  0.00  0.00    +0.000 A 
ATOM     19  C   UNL     1       1.769   1.885  20.359  0.00  0.00    +0.000 A 
ATOM     20  C   UNL     1       1.250   2.584  19.275  0.00  0.00    +0.000 A 
ATOM     21  C   UNL     1       1.225   3.982  19.292  0.00  0.00    +0.000 A 
ENDBRANCH   7  16
BRANCH   3  22
ATOM     22  C   UNL     1       0.832  10.398  20.089  0.00  0.00    +0.000 C 
BRANCH  22  23
ATOM     23  C   UNL     1       0.538  10.834  18.619  0.00  0.00    +0.000 C 
ATOM     24  C   UNL     1       0.101  12.326  18.641  0.00  0.00    +0.000 C 
ATOM     25  C   UNL     1      -1.056  12.623  17.721  0.00  0.00    +0.000 C 
ATOM     26  C   UNL     1      -2.124  11.603  18.096  0.00  0.00    +0.000 A 
ATOM     27  C   UNL     1      -1.812  10.424  17.473  0.00  0.00    +0.000 A 
ATOM     28  C   UNL     1      -2.684  10.076  16.432  0.00  0.00    +0.000 A 
ATOM     29  C   UNL     1      -3.892  10.798  16.249  0.00  0.00    +0.000 A 
ATOM     30  C   UNL     1      -4.314  11.704  17.225  0.00  0.00    +0.000 A 
ATOM     31  C   UNL     1      -3.458  11.960  18.283  0.00  0.00    +0.000 A 
ATOM     32  C   UNL     1      -0.457   9.842  17.835  0.00  0.00    +0.000 C 
BRANCH  31  33
ATOM     33  O   UNL     1      -3.950  11.476  19.515  0.00  0.00    +0.000 OA
BRANCH  33  34
ATOM     34  C   UNL     1      -4.486  12.506  20.337  0.00  0.00    +0.000 C 
BRANCH  34  35
ATOM     35  C   UNL     1      -5.996  12.370  20.425  0.00  0.00    +0.000 C 
ATOM     36  O   UNL     1      -6.780  12.920  19.666  0.00  0.00    +0.000 OA
BRANCH  35  37
ATOM     37  O   UNL     1      -6.408  11.608  21.470  0.00  0.00    +0.000 OA
ATOM     38  H   UNL     1      -7.344  11.334  21.350  0.00  0.00    +0.000 HD
ENDBRANCH  35  37
ENDBRANCH  34  35
ENDBRANCH  33  34
ENDBRANCH  31  33
ENDBRANCH  22  23
ENDBRANCH   3  22
TORSDOF 9
ENDMDL
MODEL 4
REMARK VINA RESULT:      -8.4      1.526      2.232
REMARK  Name = 
REMARK  10 active torsions:
REMARK  status: ('A' for Active; 'I' for Inactive)
REMARK    1  A    between atoms: C_1  and  O_2
REMARK    2  A    between atoms: O_2  and  C_3
REMARK    3  A    between atoms: C_6  and  C_7
REMARK    4  A    between atoms: N_9  and  C_10
REMARK    5  A    between atoms: C_10  and  C_11
REMARK    6  A    between atoms: C_19  and  O_20
REMARK    7  A    between atoms: O_20  and  C_21
REMARK    8  A    between atoms: C_21  and  C_22
REMARK    9  A    between atoms: C_22  and  O_24
REMARK   10  A    between atoms: C_29  and  C_30
REMARK                            x       y       z     vdW  Elec       q    Type
REMARK                         _______ _______ _______ _____ _____    ______ ____
ROOT
ATOM      1  C   UNL     1       2.524   7.095  19.519  0.00  0.00    +0.000 A 
ATOM      2  N   UNL     1       2.346   8.395  19.450  0.00  0.00    +0.000 NA
ATOM      3  N   UNL     1       1.363   8.994  20.256  0.00  0.00    +0.000 N 
ATOM      4  C   UNL     1       0.580   8.259  21.145  0.00  0.00    +0.000 A 
ATOM      5  O   UNL     1      -0.287   8.731  21.884  0.00  0.00    +0.000 OA
ATOM      6  C   UNL     1       0.775   6.806  21.155  0.00  0.00    +0.000 A 
ATOM      7  C   UNL     1       1.672   6.191  20.377  0.00  0.00    +0.000 A 
ENDROOT
BRANCH   1  11
ATOM      8  C   UNL     1       5.776   5.426  17.137  0.00  0.00    +0.000 A 
ATOM      9  C   UNL     1       4.777   6.176  16.527  0.00  0.00    +0.000 A 
ATOM     10  C   UNL     1       3.685   6.642  17.270  0.00  0.00    +0.000 A 
ATOM     11  C   UNL     1       3.595   6.441  18.655  0.00  0.00    +0.000 A 
ATOM     12  C   UNL     1       4.561   5.617  19.243  0.00  0.00    +0.000 A 
ATOM     13  C   UNL     1       5.641   5.109  18.489  0.00  0.00    +0.000 A 
BRANCH   8  15
ATOM     14  C   UNL     1       6.514   5.102  14.909  0.00  0.00    +0.000 C 
ATOM     15  O   UNL     1       6.779   5.019  16.304  0.00  0.00    +0.000 OA
ENDBRANCH   8  15
ENDBRANCH   1  11
BRANCH   7  16
ATOM     16  C   UNL     1       1.646   4.711  20.385  0.00  0.00    +0.000 A 
ATOM     17  C   UNL     1       2.138   3.976  21.471  0.00  0.00    +0.000 A 
ATOM     18  C   UNL     1       2.143   2.577  21.445  0.00  0.00    +0.000 A 
ATOM     19  C   UNL     1       1.641   1.894  20.336  0.00  0.00    +0.000 A 
ATOM     20  C   UNL     1       1.155   2.608  19.245  0.00  0.00    +0.000 A 
ATOM     21  C   UNL     1       1.184   4.005  19.256  0.00  0.00    +0.000 A 
ENDBRANCH   7  16
BRANCH   3  22
ATOM     22  C   UNL     1       1.031  10.435  20.029  0.00  0.00    +0.000 C 
BRANCH  22  23
ATOM     23  C   UNL     1       0.379  10.807  18.661  0.00  0.00    +0.000 C 
ATOM     24  C   UNL     1       0.062  12.329  18.678  0.00  0.00    +0.000 C 
ATOM     25  C   UNL     1      -1.279  12.668  18.078  0.00  0.00    +0.000 C 
ATOM     26  C   UNL     1      -2.269  11.765  18.803  0.00  0.00    +0.000 A 
ATOM     27  C   UNL     1      -2.215  10.529  18.216  0.00  0.00    +0.000 A 
ATOM     28  C   UNL     1      -3.358  10.194  17.475  0.00  0.00    +0.000 A 
ATOM     29  C   UNL     1      -4.520  11.004  17.562  0.00  0.00    +0.000 A 
ATOM     30  C   UNL     1      -4.602  11.998  18.541  0.00  0.00    +0.000 A 
ATOM     31  C   UNL     1      -3.477  12.244  19.309  0.00  0.00    +0.000 A 
ATOM     32  C   UNL     1      -0.854   9.857  18.251  0.00  0.00    +0.000 C 
BRANCH  31  33
ATOM     33  O   UNL     1      -3.647  11.877  20.662  0.00  0.00    +0.000 OA
BRANCH  33  34
ATOM     34  C   UNL     1      -3.165  12.865  21.565  0.00  0.00    +0.000 C 
BRANCH  34  35
ATOM     35  C   UNL     1      -2.684  12.209  22.848  0.00  0.00    +0.000 C 
ATOM     36  O   UNL     1      -3.400  11.977  23.809  0.00  0.00    +0.000 OA
BRANCH  35  37
ATOM     37  O   UNL     1      -1.353  11.941  22.849  0.00  0.00    +0.000 OA
ATOM     38  H   UNL     1      -1.096  11.473  23.674  0.00  0.00    +0.000 HD
ENDBRANCH  35  37
ENDBRANCH  34  35
ENDBRANCH  33  34
ENDBRANCH  31  33
ENDBRANCH  22  23
ENDBRANCH   3  22
TORSDOF 9
ENDMDL
MODEL 5
REMARK VINA RESULT:      -8.3      2.344      9.648
REMARK  Name = 
REMARK  10 active torsions:
REMARK  status: ('A' for Active; 'I' for Inactive)
REMARK    1  A    between atoms: C_1  and  O_2
REMARK    2  A    between atoms: O_2  and  C_3
REMARK    3  A    between atoms: C_6  and  C_7
REMARK    4  A    between atoms: N_9  and  C_10
REMARK    5  A    between atoms: C_10  and  C_11
REMARK    6  A    between atoms: C_19  and  O_20
REMARK    7  A    between atoms: O_20  and  C_21
REMARK    8  A    between atoms: C_21  and  C_22
REMARK    9  A    between atoms: C_22  and  O_24
REMARK   10  A    between atoms: C_29  and  C_30
REMARK                            x       y       z     vdW  Elec       q    Type
REMARK                         _______ _______ _______ _____ _____    ______ ____
ROOT
ATOM      1  C   UNL     1      -0.702  10.235  19.704  0.00  0.00    +0.000 A 
ATOM      2  N   UNL     1       0.168   9.252  19.655  0.00  0.00    +0.000 NA
ATOM      3  N   UNL     1       0.968   8.991  20.780  0.00  0.00    +0.000 N 
ATOM      4  C   UNL     1       0.859   9.727  21.959  0.00  0.00    +0.000 A 
ATOM      5  O   UNL     1       1.524   9.536  22.980  0.00  0.00    +0.000 OA
ATOM      6  C   UNL     1      -0.088  10.847  21.955  0.00  0.00    +0.000 A 
ATOM      7  C   UNL     1      -0.841  11.155  20.893  0.00  0.00    +0.000 A 
ENDROOT
BRANCH   1  11
ATOM      8  C   UNL     1      -3.057  10.848  16.083  0.00  0.00    +0.000 A 
ATOM      9  C   UNL     1      -2.107  11.787  16.465  0.00  0.00    +0.000 A 
ATOM     10  C   UNL     1      -1.408  11.641  17.670  0.00  0.00    +0.000 A 
ATOM     11  C   UNL     1      -1.579  10.517  18.491  0.00  0.00    +0.000 A 
ATOM     12  C   UNL     1      -2.596   9.621  18.140  0.00  0.00    +0.000 A 
ATOM     13  C   UNL     1      -3.333   9.788  16.947  0.00  0.00    +0.000 A 
BRANCH   8  15
ATOM     14  C   UNL     1      -3.729  10.038  13.961  0.00  0.00    +0.000 C 
ATOM     15  O   UNL     1      -3.679  11.109  14.895  0.00  0.00    +0.000 OA
ENDBRANCH   8  15
ENDBRANCH   1  11
BRANCH   7  16
ATOM     16  C   UNL     1      -1.632  12.402  20.987  0.00  0.00    +0.000 A 
ATOM     17  C   UNL     1      -3.000  12.380  21.285  0.00  0.00    +0.000 A 
ATOM     18  C   UNL     1      -3.742  13.566  21.329  0.00  0.00    +0.000 A 
ATOM     19  C   UNL     1      -3.120  14.792  21.090  0.00  0.00    +0.000 A 
ATOM     20  C   UNL     1      -1.762  14.832  20.786  0.00  0.00    +0.000 A 
ATOM     21  C   UNL     1      -1.030  13.644  20.705  0.00  0.00    +0.000 A 
ENDBRANCH   7  16
BRANCH   3  22
ATOM     22  C   UNL     1       2.087   8.006  20.651  0.00  0.00    +0.000 C 
BRANCH  22  23
ATOM     23  C   UNL     1       1.833   6.757  19.749  0.00  0.00    +0.000 C 
ATOM     24  C   UNL     1       2.200   5.490  20.572  0.00  0.00    +0.000 C 
ATOM     25  C   UNL     1       2.951   4.454  19.773  0.00  0.00    +0.000 C 
ATOM     26  C   UNL     1       4.116   5.214  19.149  0.00  0.00    +0.000 A 
ATOM     27  C   UNL     1       3.644   5.863  18.039  0.00  0.00    +0.000 A 
ATOM     28  C   UNL     1       4.107   5.336  16.825  0.00  0.00    +0.000 A 
ATOM     29  C   UNL     1       5.150   4.373  16.823  0.00  0.00    +0.000 A 
ATOM     30  C   UNL     1       5.857   4.113  18.000  0.00  0.00    +0.000 A 
ATOM     31  C   UNL     1       5.418   4.717  19.165  0.00  0.00    +0.000 A 
ATOM     32  C   UNL     1       2.523   6.853  18.298  0.00  0.00    +0.000 C 
BRANCH  31  33
ATOM     33  O   UNL     1       6.326   5.680  19.658  0.00  0.00    +0.000 OA
BRANCH  33  34
ATOM     34  C   UNL     1       7.580   5.650  18.986  0.00  0.00    +0.000 C 
BRANCH  34  35
ATOM     35  C   UNL     1       7.819   6.967  18.268  0.00  0.00    +0.000 C 
ATOM     36  O   UNL     1       7.370   7.239  17.166  0.00  0.00    +0.000 OA
BRANCH  35  37
ATOM     37  O   UNL     1       8.631   7.812  18.953  0.00  0.00    +0.000 OA
ATOM     38  H   UNL     1       9.568   7.524  18.881  0.00  0.00    +0.000 HD
ENDBRANCH  35  37
ENDBRANCH  34  35
ENDBRANCH  33  34
ENDBRANCH  31  33
ENDBRANCH  22  23
ENDBRANCH   3  22
TORSDOF 9
ENDMDL
MODEL 6
REMARK VINA RESULT:      -8.3      1.423      1.713
REMARK  Name = 
REMARK  10 active torsions:
REMARK  status: ('A' for Active; 'I' for Inactive)
REMARK    1  A    between atoms: C_1  and  O_2
REMARK    2  A    between atoms: O_2  and  C_3
REMARK    3  A    between atoms: C_6  and  C_7
REMARK    4  A    between atoms: N_9  and  C_10
REMARK    5  A    between atoms: C_10  and  C_11
REMARK    6  A    between atoms: C_19  and  O_20
REMARK    7  A    between atoms: O_20  and  C_21
REMARK    8  A    between atoms: C_21  and  C_22
REMARK    9  A    between atoms: C_22  and  O_24
REMARK   10  A    between atoms: C_29  and  C_30
REMARK                            x       y       z     vdW  Elec       q    Type
REMARK                         _______ _______ _______ _____ _____    ______ ____
ROOT
ATOM      1  C   UNL     1       2.597   7.077  19.492  0.00  0.00    +0.000 A 
ATOM      2  N   UNL     1       2.399   8.374  19.433  0.00  0.00    +0.000 NA
ATOM      3  N   UNL     1       1.382   8.946  20.216  0.00  0.00    +0.000 N 
ATOM      4  C   UNL     1       0.584   8.187  21.071  0.00  0.00    +0.000 A 
ATOM      5  O   UNL     1      -0.313   8.635  21.789  0.00  0.00    +0.000 OA
ATOM      6  C   UNL     1       0.804   6.737  21.069  0.00  0.00    +0.000 A 
ATOM      7  C   UNL     1       1.735   6.147  20.311  0.00  0.00    +0.000 A 
ENDROOT
BRANCH   1  11
ATOM      8  C   UNL     1       5.571   5.114  16.975  0.00  0.00    +0.000 A 
ATOM      9  C   UNL     1       5.490   4.808  18.327  0.00  0.00    +0.000 A 
ATOM     10  C   UNL     1       4.597   5.496  19.159  0.00  0.00    +0.000 A 
ATOM     11  C   UNL     1       3.705   6.452  18.654  0.00  0.00    +0.000 A 
ATOM     12  C   UNL     1       3.851   6.811  17.309  0.00  0.00    +0.000 A 
ATOM     13  C   UNL     1       4.781   6.150  16.476  0.00  0.00    +0.000 A 
BRANCH   8  15
ATOM     14  C   UNL     1       6.106   3.982  14.964  0.00  0.00    +0.000 C 
ATOM     15  O   UNL     1       6.488   4.384  16.273  0.00  0.00    +0.000 OA
ENDBRANCH   8  15
ENDBRANCH   1  11
BRANCH   7  16
ATOM     16  C   UNL     1       1.734   4.667  20.300  0.00  0.00    +0.000 A 
ATOM     17  C   UNL     1       1.283   3.944  19.189  0.00  0.00    +0.000 A 
ATOM     18  C   UNL     1       1.252   2.545  19.212  0.00  0.00    +0.000 A 
ATOM     19  C   UNL     1       1.686   1.850  20.342  0.00  0.00    +0.000 A 
ATOM     20  C   UNL     1       2.132   2.554  21.457  0.00  0.00    +0.000 A 
ATOM     21  C   UNL     1       2.128   3.951  21.448  0.00  0.00    +0.000 A 
ENDBRANCH   7  16
BRANCH   3  22
ATOM     22  C   UNL     1       1.032  10.385  19.997  0.00  0.00    +0.000 C 
BRANCH  22  23
ATOM     23  C   UNL     1       0.357  10.752  18.638  0.00  0.00    +0.000 C 
ATOM     24  C   UNL     1       0.097  12.285  18.632  0.00  0.00    +0.000 C 
ATOM     25  C   UNL     1      -1.247  12.662  18.060  0.00  0.00    +0.000 C 
ATOM     26  C   UNL     1      -2.249  11.811  18.830  0.00  0.00    +0.000 A 
ATOM     27  C   UNL     1      -2.257  10.563  18.268  0.00  0.00    +0.000 A 
ATOM     28  C   UNL     1      -3.430  10.256  17.564  0.00  0.00    +0.000 A 
ATOM     29  C   UNL     1      -4.559  11.110  17.665  0.00  0.00    +0.000 A 
ATOM     30  C   UNL     1      -4.578  12.126  18.623  0.00  0.00    +0.000 A 
ATOM     31  C   UNL     1      -3.425  12.345  19.356  0.00  0.00    +0.000 A 
ATOM     32  C   UNL     1      -0.921   9.841  18.281  0.00  0.00    +0.000 C 
BRANCH  31  33
ATOM     33  O   UNL     1      -3.571  12.012  20.721  0.00  0.00    +0.000 OA
BRANCH  33  34
ATOM     34  C   UNL     1      -4.691  12.649  21.325  0.00  0.00    +0.000 C 
BRANCH  34  35
ATOM     35  C   UNL     1      -4.377  12.994  22.771  0.00  0.00    +0.000 C 
ATOM     36  O   UNL     1      -3.478  13.744  23.117  0.00  0.00    +0.000 OA
BRANCH  35  37
ATOM     37  O   UNL     1      -5.169  12.345  23.663  0.00  0.00    +0.000 OA
ATOM     38  H   UNL     1      -6.109  12.380  23.378  0.00  0.00    +0.000 HD
ENDBRANCH  35  37
ENDBRANCH  34  35
ENDBRANCH  33  34
ENDBRANCH  31  33
ENDBRANCH  22  23
ENDBRANCH   3  22
TORSDOF 9
ENDMDL
MODEL 7
REMARK VINA RESULT:      -8.2      1.598      2.269
REMARK  Name = 
REMARK  10 active torsions:
REMARK  status: ('A' for Active; 'I' for Inactive)
REMARK    1  A    between atoms: C_1  and  O_2
REMARK    2  A    between atoms: O_2  and  C_3
REMARK    3  A    between atoms: C_6  and  C_7
REMARK    4  A    between atoms: N_9  and  C_10
REMARK    5  A    between atoms: C_10  and  C_11
REMARK    6  A    between atoms: C_19  and  O_20
REMARK    7  A    between atoms: O_20  and  C_21
REMARK    8  A    between atoms: C_21  and  C_22
REMARK    9  A    between atoms: C_22  and  O_24
REMARK   10  A    between atoms: C_29  and  C_30
REMARK                            x       y       z     vdW  Elec       q    Type
REMARK                         _______ _______ _______ _____ _____    ______ ____
ROOT
ATOM      1  C   UNL     1       2.606   7.043  19.071  0.00  0.00    +0.000 A 
ATOM      2  N   UNL     1       2.370   8.335  19.031  0.00  0.00    +0.000 NA
ATOM      3  N   UNL     1       1.532   8.907  20.004  0.00  0.00    +0.000 N 
ATOM      4  C   UNL     1       0.954   8.154  21.025  0.00  0.00    +0.000 A 
ATOM      5  O   UNL     1       0.222   8.602  21.911  0.00  0.00    +0.000 OA
ATOM      6  C   UNL     1       1.201   6.709  21.004  0.00  0.00    +0.000 A 
ATOM      7  C   UNL     1       1.961   6.118  20.075  0.00  0.00    +0.000 A 
ENDROOT
BRANCH   1  11
ATOM      8  C   UNL     1       5.351   5.102  16.291  0.00  0.00    +0.000 A 
ATOM      9  C   UNL     1       5.575   6.413  16.692  0.00  0.00    +0.000 A 
ATOM     10  C   UNL     1       4.653   7.071  17.516  0.00  0.00    +0.000 A 
ATOM     11  C   UNL     1       3.521   6.419  18.026  0.00  0.00    +0.000 A 
ATOM     12  C   UNL     1       3.263   5.127  17.551  0.00  0.00    +0.000 A 
ATOM     13  C   UNL     1       4.168   4.475  16.686  0.00  0.00    +0.000 A 
BRANCH   8  15
ATOM     14  C   UNL     1       5.860   3.922  14.301  0.00  0.00    +0.000 C 
ATOM     15  O   UNL     1       6.315   4.576  15.479  0.00  0.00    +0.000 OA
ENDBRANCH   8  15
ENDBRANCH   1  11
BRANCH   7  16
ATOM     16  C   UNL     1       1.991   4.638  20.093  0.00  0.00    +0.000 A 
ATOM     17  C   UNL     1       0.992   3.878  19.473  0.00  0.00    +0.000 A 
ATOM     18  C   UNL     1       1.015   2.480  19.534  0.00  0.00    +0.000 A 
ATOM     19  C   UNL     1       2.048   1.823  20.206  0.00  0.00    +0.000 A 
ATOM     20  C   UNL     1       3.045   2.564  20.833  0.00  0.00    +0.000 A 
ATOM     21  C   UNL     1       3.002   3.960  20.803  0.00  0.00    +0.000 A 
ENDBRANCH   7  16
BRANCH   3  22
ATOM     22  C   UNL     1       1.111  10.333  19.837  0.00  0.00    +0.000 C 
BRANCH  22  23
ATOM     23  C   UNL     1       0.322  10.694  18.540  0.00  0.00    +0.000 C 
ATOM     24  C   UNL     1       0.113  12.234  18.519  0.00  0.00    +0.000 C 
ATOM     25  C   UNL     1      -1.266  12.645  18.066  0.00  0.00    +0.000 C 
ATOM     26  C   UNL     1      -2.218  11.848  18.949  0.00  0.00    +0.000 A 
ATOM     27  C   UNL     1      -2.320  10.588  18.423  0.00  0.00    +0.000 A 
ATOM     28  C   UNL     1      -3.565  10.307  17.842  0.00  0.00    +0.000 A 
ATOM     29  C   UNL     1      -4.650  11.202  18.027  0.00  0.00    +0.000 A 
ATOM     30  C   UNL     1      -4.544  12.240  18.956  0.00  0.00    +0.000 A 
ATOM     31  C   UNL     1      -3.319  12.435  19.571  0.00  0.00    +0.000 A 
ATOM     32  C   UNL     1      -1.013   9.821  18.328  0.00  0.00    +0.000 C 
BRANCH  31  33
ATOM     33  O   UNL     1      -3.346  12.138  20.951  0.00  0.00    +0.000 OA
BRANCH  33  34
ATOM     34  C   UNL     1      -2.149  12.516  21.619  0.00  0.00    +0.000 C 
BRANCH  34  35
ATOM     35  C   UNL     1      -2.055  11.812  22.962  0.00  0.00    +0.000 C 
ATOM     36  O   UNL     1      -1.045  11.271  23.384  0.00  0.00    +0.000 OA
BRANCH  35  37
ATOM     37  O   UNL     1      -3.229  11.795  23.643  0.00  0.00    +0.000 OA
ATOM     38  H   UNL     1      -3.761  12.595  23.434  0.00  0.00    +0.000 HD
ENDBRANCH  35  37
ENDBRANCH  34  35
ENDBRANCH  33  34
ENDBRANCH  31  33
ENDBRANCH  22  23
ENDBRANCH   3  22
TORSDOF 9
ENDMDL
MODEL 8
REMARK VINA RESULT:      -8.2      1.449      2.036
REMARK  Name = 
REMARK  10 active torsions:
REMARK  status: ('A' for Active; 'I' for Inactive)
REMARK    1  A    between atoms: C_1  and  O_2
REMARK    2  A    between atoms: O_2  and  C_3
REMARK    3  A    between atoms: C_6  and  C_7
REMARK    4  A    between atoms: N_9  and  C_10
REMARK    5  A    between atoms: C_10  and  C_11
REMARK    6  A    between atoms: C_19  and  O_20
REMARK    7  A    between atoms: O_20  and  C_21
REMARK    8  A    between atoms: C_21  and  C_22
REMARK    9  A    between atoms: C_22  and  O_24
REMARK   10  A    between atoms: C_29  and  C_30
REMARK                            x       y       z     vdW  Elec       q    Type
REMARK                         _______ _______ _______ _____ _____    ______ ____
ROOT
ATOM      1  C   UNL     1       2.486   7.216  19.555  0.00  0.00    +0.000 A 
ATOM      2  N   UNL     1       2.253   8.509  19.537  0.00  0.00    +0.000 NA
ATOM      3  N   UNL     1       1.231   9.031  20.347  0.00  0.00    +0.000 N 
ATOM      4  C   UNL     1       0.463   8.227  21.188  0.00  0.00    +0.000 A 
ATOM      5  O   UNL     1      -0.437   8.630  21.929  0.00  0.00    +0.000 OA
ATOM      6  C   UNL     1       0.720   6.784  21.142  0.00  0.00    +0.000 A 
ATOM      7  C   UNL     1       1.657   6.241  20.357  0.00  0.00    +0.000 A 
ENDROOT
BRANCH   1  11
ATOM      8  C   UNL     1       5.476   5.417  16.938  0.00  0.00    +0.000 A 
ATOM      9  C   UNL     1       5.381   5.019  18.265  0.00  0.00    +0.000 A 
ATOM     10  C   UNL     1       4.482   5.652  19.134  0.00  0.00    +0.000 A 
ATOM     11  C   UNL     1       3.599   6.646  18.687  0.00  0.00    +0.000 A 
ATOM     12  C   UNL     1       3.760   7.095  17.371  0.00  0.00    +0.000 A 
ATOM     13  C   UNL     1       4.695   6.489  16.504  0.00  0.00    +0.000 A 
BRANCH   8  15
ATOM     14  C   UNL     1       5.921   3.589  15.498  0.00  0.00    +0.000 C 
ATOM     15  O   UNL     1       6.397   4.733  16.197  0.00  0.00    +0.000 OA
ENDBRANCH   8  15
ENDBRANCH   1  11
BRANCH   7  16
ATOM     16  C   UNL     1       1.695   4.763  20.302  0.00  0.00    +0.000 A 
ATOM     17  C   UNL     1       2.210   4.004  21.361  0.00  0.00    +0.000 A 
ATOM     18  C   UNL     1       2.274   2.609  21.276  0.00  0.00    +0.000 A 
ATOM     19  C   UNL     1       1.811   1.952  20.135  0.00  0.00    +0.000 A 
ATOM     20  C   UNL     1       1.302   2.691  19.071  0.00  0.00    +0.000 A 
ATOM     21  C   UNL     1       1.271   4.087  19.141  0.00  0.00    +0.000 A 
ENDBRANCH   7  16
BRANCH   3  22
ATOM     22  C   UNL     1       0.841  10.466  20.174  0.00  0.00    +0.000 C 
BRANCH  22  23
ATOM     23  C   UNL     1       0.261  10.882  18.786  0.00  0.00    +0.000 C 
ATOM     24  C   UNL     1      -0.065  12.401  18.839  0.00  0.00    +0.000 C 
ATOM     25  C   UNL     1      -1.374  12.755  18.179  0.00  0.00    +0.000 C 
ATOM     26  C   UNL     1      -2.396  11.824  18.818  0.00  0.00    +0.000 A 
ATOM     27  C   UNL     1      -2.303  10.609  18.192  0.00  0.00    +0.000 A 
ATOM     28  C   UNL     1      -3.402  10.295  17.379  0.00  0.00    +0.000 A 
ATOM     29  C   UNL     1      -4.572  11.096  17.432  0.00  0.00    +0.000 A 
ATOM     30  C   UNL     1      -4.713  12.056  18.437  0.00  0.00    +0.000 A 
ATOM     31  C   UNL     1      -3.633  12.280  19.273  0.00  0.00    +0.000 A 
ATOM     32  C   UNL     1      -0.942   9.942  18.277  0.00  0.00    +0.000 C 
BRANCH  31  33
ATOM     33  O   UNL     1      -3.873  11.865  20.602  0.00  0.00    +0.000 OA
BRANCH  33  34
ATOM     34  C   UNL     1      -3.553  12.868  21.558  0.00  0.00    +0.000 C 
BRANCH  34  35
ATOM     35  C   UNL     1      -2.837  12.248  22.745  0.00  0.00    +0.000 C 
ATOM     36  O   UNL     1      -1.802  11.605  22.662  0.00  0.00    +0.000 OA
BRANCH  35  37
ATOM     37  O   UNL     1      -3.485  12.436  23.923  0.00  0.00    +0.000 OA
ATOM     38  H   UNL     1      -2.944  12.986  24.531  0.00  0.00    +0.000 HD
ENDBRANCH  35  37
ENDBRANCH  34  35
ENDBRANCH  33  34
ENDBRANCH  31  33
ENDBRANCH  22  23
ENDBRANCH   3  22
TORSDOF 9
ENDMDL
MODEL 9
REMARK VINA RESULT:      -7.9      1.694      2.723
REMARK  Name = 
REMARK  10 active torsions:
REMARK  status: ('A' for Active; 'I' for Inactive)
REMARK    1  A    between atoms: C_1  and  O_2
REMARK    2  A    between atoms: O_2  and  C_3
REMARK    3  A    between atoms: C_6  and  C_7
REMARK    4  A    between atoms: N_9  and  C_10
REMARK    5  A    between atoms: C_10  and  C_11
REMARK    6  A    between atoms: C_19  and  O_20
REMARK    7  A    between atoms: O_20  and  C_21
REMARK    8  A    between atoms: C_21  and  C_22
REMARK    9  A    between atoms: C_22  and  O_24
REMARK   10  A    between atoms: C_29  and  C_30
REMARK                            x       y       z     vdW  Elec       q    Type
REMARK                         _______ _______ _______ _____ _____    ______ ____
ROOT
ATOM      1  C   UNL     1       2.841   6.933  18.822  0.00  0.00    +0.000 A 
ATOM      2  N   UNL     1       2.648   8.232  18.854  0.00  0.00    +0.000 NA
ATOM      3  N   UNL     1       1.804   8.774  19.838  0.00  0.00    +0.000 N 
ATOM      4  C   UNL     1       1.176   7.982  20.798  0.00  0.00    +0.000 A 
ATOM      5  O   UNL     1       0.436   8.402  21.691  0.00  0.00    +0.000 OA
ATOM      6  C   UNL     1       1.377   6.533  20.697  0.00  0.00    +0.000 A 
ATOM      7  C   UNL     1       2.141   5.973  19.753  0.00  0.00    +0.000 A 
ENDROOT
BRANCH   1  11
ATOM      8  C   UNL     1       5.613   5.089  16.002  0.00  0.00    +0.000 A 
ATOM      9  C   UNL     1       5.797   6.407  16.401  0.00  0.00    +0.000 A 
ATOM     10  C   UNL     1       4.864   7.033  17.238  0.00  0.00    +0.000 A 
ATOM     11  C   UNL     1       3.763   6.341  17.764  0.00  0.00    +0.000 A 
ATOM     12  C   UNL     1       3.543   5.042  17.291  0.00  0.00    +0.000 A 
ATOM     13  C   UNL     1       4.458   4.422  16.413  0.00  0.00    +0.000 A 
BRANCH   8  15
ATOM     14  C   UNL     1       6.135   3.899  14.022  0.00  0.00    +0.000 C 
ATOM     15  O   UNL     1       6.583   4.597  15.176  0.00  0.00    +0.000 OA
ENDBRANCH   8  15
ENDBRANCH   1  11
BRANCH   7  16
ATOM     16  C   UNL     1       2.124   4.494  19.683  0.00  0.00    +0.000 A 
ATOM     17  C   UNL     1       3.156   3.723  20.232  0.00  0.00    +0.000 A 
ATOM     18  C   UNL     1       3.143   2.328  20.122  0.00  0.00    +0.000 A 
ATOM     19  C   UNL     1       2.088   1.685  19.472  0.00  0.00    +0.000 A 
ATOM     20  C   UNL     1       1.058   2.436  18.915  0.00  0.00    +0.000 A 
ATOM     21  C   UNL     1       1.089   3.831  18.993  0.00  0.00    +0.000 A 
ENDBRANCH   7  16
BRANCH   3  22
ATOM     22  C   UNL     1       1.433  10.221  19.747  0.00  0.00    +0.000 C 
BRANCH  22  23
ATOM     23  C   UNL     1       0.603  10.664  18.502  0.00  0.00    +0.000 C 
ATOM     24  C   UNL     1       0.441  12.209  18.560  0.00  0.00    +0.000 C 
ATOM     25  C   UNL     1      -0.943  12.680  18.187  0.00  0.00    +0.000 C 
ATOM     26  C   UNL     1      -1.881  11.871  19.072  0.00  0.00    +0.000 A 
ATOM     27  C   UNL     1      -2.044  10.640  18.494  0.00  0.00    +0.000 A 
ATOM     28  C   UNL     1      -3.320  10.423  17.955  0.00  0.00    +0.000 A 
ATOM     29  C   UNL     1      -4.368  11.339  18.226  0.00  0.00    +0.000 A 
ATOM     30  C   UNL     1      -4.192  12.329  19.197  0.00  0.00    +0.000 A 
ATOM     31  C   UNL     1      -2.937  12.459  19.766  0.00  0.00    +0.000 A 
ATOM     32  C   UNL     1      -0.766   9.841  18.309  0.00  0.00    +0.000 C 
BRANCH  31  33
ATOM     33  O   UNL     1      -2.916  12.099  21.132  0.00  0.00    +0.000 OA
BRANCH  33  34
ATOM     34  C   UNL     1      -2.192  13.024  21.934  0.00  0.00    +0.000 C 
BRANCH  34  35
ATOM     35  C   UNL     1      -0.883  12.405  22.392  0.00  0.00    +0.000 C 
ATOM     36  O   UNL     1       0.216  12.745  21.985  0.00  0.00    +0.000 OA
BRANCH  35  37
ATOM     37  O   UNL     1      -1.049  11.389  23.277  0.00  0.00    +0.000 OA
ATOM     38  H   UNL     1      -1.028  10.522  22.814  0.00  0.00    +0.000 HD
ENDBRANCH  35  37
ENDBRANCH  34  35
ENDBRANCH  33  34
ENDBRANCH  31  33
ENDBRANCH  22  23
ENDBRANCH   3  22
TORSDOF 9
ENDMDL
