MODEL 1
REMARK VINA RESULT:      -7.9      0.000      0.000
REMARK  Name = 
REMARK  4 active torsions:
REMARK  status: ('A' for Active; 'I' for Inactive)
REMARK    1  A    between atoms: C_1  and  C_2
REMARK    2  A    between atoms: C_6  and  C_7
REMARK    3  A    between atoms: C_15  and  C_16
REMARK    4  A    between atoms: C_16  and  C_18
REMARK                            x       y       z     vdW  Elec       q    Type
REMARK                         _______ _______ _______ _____ _____    ______ ____
ROOT
ATOM      1  C   UNL     1       5.641   4.041  15.569  0.00  0.00    +0.000 C 
ATOM      2  C   UNL     1       5.004   4.972  16.298  0.00  0.00    +0.000 C 
ATOM      3  C   UNL     1       4.894   6.445  15.968  0.00  0.00    +0.000 C 
ATOM      4  O   UNL     1       5.222   7.032  14.957  0.00  0.00    +0.000 OA
ATOM      5  N   UNL     1       4.261   7.008  17.062  0.00  0.00    +0.000 N 
ATOM      6  C   UNL     1       3.933   6.052  18.011  0.00  0.00    +0.000 A 
ATOM      7  C   UNL     1       3.294   6.289  19.209  0.00  0.00    +0.000 A 
ATOM      8  C   UNL     1       3.060   5.190  20.033  0.00  0.00    +0.000 A 
ATOM      9  C   UNL     1       3.458   3.889  19.644  0.00  0.00    +0.000 A 
ATOM     10  C   UNL     1       4.114   3.676  18.416  0.00  0.00    +0.000 A 
ATOM     11  C   UNL     1       4.345   4.777  17.603  0.00  0.00    +0.000 A 
ATOM     12  H   UNL     1       4.057   7.995  17.114  0.00  0.00    +0.000 HD
ENDROOT
BRANCH   1  18
ATOM     13  C   UNL     1       5.379   3.158  12.401  0.00  0.00    +0.000 C 
ATOM     14  C   UNL     1       6.339   4.048  13.089  0.00  0.00    +0.000 A 
ATOM     15  N   UNL     1       7.367   4.642  12.393  0.00  0.00    +0.000 NA
ATOM     16  C   UNL     1       8.077   5.279  13.295  0.00  0.00    +0.000 A 
ATOM     17  N   UNL     1       7.524   5.168  14.541  0.00  0.00    +0.000 N 
ATOM     18  C   UNL     1       6.407   4.379  14.430  0.00  0.00    +0.000 A 
ATOM     19  H   UNL     1       7.914   5.550  15.390  0.00  0.00    +0.000 HD
ENDBRANCH   1  18
BRANCH   9  20
ATOM     20  C   UNL     1       3.162   2.781  20.602  0.00  0.00    +0.000 C 
ATOM     21  O   UNL     1       4.102   2.136  21.066  0.00  0.00    +0.000 OA
BRANCH  20  22
ATOM     22  C   UNL     1       1.736   2.459  20.969  0.00  0.00    +0.000 C 
ATOM     23 CL   UNL     1       0.681   2.661  19.558  0.00  0.00    +0.000 Cl
ENDBRANCH  20  22
ENDBRANCH   9  20
TORSDOF 3
ENDMDL
MODEL 2
REMARK VINA RESULT:      -7.8      3.017      6.864
REMARK  Name = 
REMARK  4 active torsions:
REMARK  status: ('A' for Active; 'I' for Inactive)
REMARK    1  A    between atoms: C_1  and  C_2
REMARK    2  A    between atoms: C_6  and  C_7
REMARK    3  A    between atoms: C_15  and  C_16
REMARK    4  A    between atoms: C_16  and  C_18
REMARK                            x       y       z     vdW  Elec       q    Type
REMARK                         _______ _______ _______ _____ _____    ______ ____
ROOT
ATOM      1  C   UNL     1       4.302   4.152  16.808  0.00  0.00    +0.000 C 
ATOM      2  C   UNL     1       5.398   4.606  16.178  0.00  0.00    +0.000 C 
ATOM      3  C   UNL     1       6.368   5.640  16.705  0.00  0.00    +0.000 C 
ATOM      4  O   UNL     1       6.429   6.143  17.809  0.00  0.00    +0.000 OA
ATOM      5  N   UNL     1       7.250   5.865  15.664  0.00  0.00    +0.000 N 
ATOM      6  C   UNL     1       6.962   5.066  14.568  0.00  0.00    +0.000 A 
ATOM      7  C   UNL     1       7.654   5.048  13.377  0.00  0.00    +0.000 A 
ATOM      8  C   UNL     1       7.201   4.173  12.391  0.00  0.00    +0.000 A 
ATOM      9  C   UNL     1       6.082   3.337  12.617  0.00  0.00    +0.000 A 
ATOM     10  C   UNL     1       5.389   3.380  13.843  0.00  0.00    +0.000 A 
ATOM     11  C   UNL     1       5.847   4.255  14.818  0.00  0.00    +0.000 A 
ATOM     12  H   UNL     1       8.013   6.522  15.739  0.00  0.00    +0.000 HD
ENDROOT
BRANCH   1  18
ATOM     13  C   UNL     1       4.174   2.913  19.862  0.00  0.00    +0.000 C 
ATOM     14  C   UNL     1       3.792   4.239  19.332  0.00  0.00    +0.000 A 
ATOM     15  N   UNL     1       3.244   5.194  20.158  0.00  0.00    +0.000 NA
ATOM     16  C   UNL     1       2.936   6.200  19.372  0.00  0.00    +0.000 A 
ATOM     17  N   UNL     1       3.310   5.961  18.079  0.00  0.00    +0.000 N 
ATOM     18  C   UNL     1       3.860   4.705  18.031  0.00  0.00    +0.000 A 
ATOM     19  H   UNL     1       3.146   6.580  17.299  0.00  0.00    +0.000 HD
ENDBRANCH   1  18
BRANCH   9  20
ATOM     20  C   UNL     1       5.676   2.439  11.493  0.00  0.00    +0.000 C 
ATOM     21  O   UNL     1       4.534   2.532  11.047  0.00  0.00    +0.000 OA
BRANCH  20  22
ATOM     22  C   UNL     1       6.653   1.432  10.941  0.00  0.00    +0.000 C 
ATOM     23 CL   UNL     1       6.075  -0.215  11.253  0.00  0.00    +0.000 Cl
ENDBRANCH  20  22
ENDBRANCH   9  20
TORSDOF 3
ENDMDL
MODEL 3
REMARK VINA RESULT:      -7.4      3.266      6.926
REMARK  Name = 
REMARK  4 active torsions:
REMARK  status: ('A' for Active; 'I' for Inactive)
REMARK    1  A    between atoms: C_1  and  C_2
REMARK    2  A    between atoms: C_6  and  C_7
REMARK    3  A    between atoms: C_15  and  C_16
REMARK    4  A    between atoms: C_16  and  C_18
REMARK                            x       y       z     vdW  Elec       q    Type
REMARK                         _______ _______ _______ _____ _____    ______ ____
ROOT
ATOM      1  C   UNL     1       3.749   3.520  17.940  0.00  0.00    +0.000 C 
ATOM      2  C   UNL     1       4.943   4.041  17.613  0.00  0.00    +0.000 C 
ATOM      3  C   UNL     1       5.898   4.748  18.551  0.00  0.00    +0.000 C 
ATOM      4  O   UNL     1       5.844   4.859  19.759  0.00  0.00    +0.000 OA
ATOM      5  N   UNL     1       6.920   5.206  17.739  0.00  0.00    +0.000 N 
ATOM      6  C   UNL     1       6.729   4.835  16.417  0.00  0.00    +0.000 A 
ATOM      7  C   UNL     1       7.568   5.132  15.365  0.00  0.00    +0.000 A 
ATOM      8  C   UNL     1       7.194   4.671  14.104  0.00  0.00    +0.000 A 
ATOM      9  C   UNL     1       6.006   3.924  13.923  0.00  0.00    +0.000 A 
ATOM     10  C   UNL     1       5.164   3.639  15.015  0.00  0.00    +0.000 A 
ATOM     11  C   UNL     1       5.543   4.103  16.267  0.00  0.00    +0.000 A 
ATOM     12  H   UNL     1       7.705   5.724  18.106  0.00  0.00    +0.000 HD
ENDROOT
BRANCH   1  18
ATOM     13  C   UNL     1       2.321   6.119  19.386  0.00  0.00    +0.000 C 
ATOM     14  C   UNL     1       2.571   4.746  19.876  0.00  0.00    +0.000 A 
ATOM     15  N   UNL     1       2.221   4.384  21.157  0.00  0.00    +0.000 NA
ATOM     16  C   UNL     1       2.657   3.154  21.303  0.00  0.00    +0.000 A 
ATOM     17  N   UNL     1       3.229   2.683  20.154  0.00  0.00    +0.000 N 
ATOM     18  C   UNL     1       3.186   3.692  19.225  0.00  0.00    +0.000 A 
ATOM     19  H   UNL     1       3.658   1.776  20.044  0.00  0.00    +0.000 HD
ENDBRANCH   1  18
BRANCH   9  20
ATOM     20  C   UNL     1       5.697   3.481  12.530  0.00  0.00    +0.000 C 
ATOM     21  O   UNL     1       4.536   3.556  12.131  0.00  0.00    +0.000 OA
BRANCH  20  22
ATOM     22  C   UNL     1       6.793   2.936  11.649  0.00  0.00    +0.000 C 
ATOM     23 CL   UNL     1       6.398   1.288  11.130  0.00  0.00    +0.000 Cl
ENDBRANCH  20  22
ENDBRANCH   9  20
TORSDOF 3
ENDMDL
MODEL 4
REMARK VINA RESULT:      -7.4      3.205      6.882
REMARK  Name = 
REMARK  4 active torsions:
REMARK  status: ('A' for Active; 'I' for Inactive)
REMARK    1  A    between atoms: C_1  and  C_2
REMARK    2  A    between atoms: C_6  and  C_7
REMARK    3  A    between atoms: C_15  and  C_16
REMARK    4  A    between atoms: C_16  and  C_18
REMARK                            x       y       z     vdW  Elec       q    Type
REMARK                         _______ _______ _______ _____ _____    ______ ____
ROOT
ATOM      1  C   UNL     1       3.290   4.154  17.693  0.00  0.00    +0.000 C 
ATOM      2  C   UNL     1       4.567   4.499  17.456  0.00  0.00    +0.000 C 
ATOM      3  C   UNL     1       5.515   5.150  18.440  0.00  0.00    +0.000 C 
ATOM      4  O   UNL     1       5.365   5.355  19.628  0.00  0.00    +0.000 OA
ATOM      5  N   UNL     1       6.657   5.419  17.709  0.00  0.00    +0.000 N 
ATOM      6  C   UNL     1       6.542   4.979  16.399  0.00  0.00    +0.000 A 
ATOM      7  C   UNL     1       7.506   5.094  15.421  0.00  0.00    +0.000 A 
ATOM      8  C   UNL     1       7.193   4.592  14.158  0.00  0.00    +0.000 A 
ATOM      9  C   UNL     1       5.941   3.984  13.905  0.00  0.00    +0.000 A 
ATOM     10  C   UNL     1       4.972   3.885  14.923  0.00  0.00    +0.000 A 
ATOM     11  C   UNL     1       5.291   4.389  16.176  0.00  0.00    +0.000 A 
ATOM     12  H   UNL     1       7.466   5.862  18.121  0.00  0.00    +0.000 HD
ENDROOT
BRANCH   1  18
ATOM     13  C   UNL     1       1.784   2.293  19.961  0.00  0.00    +0.000 C 
ATOM     14  C   UNL     1       2.002   3.753  19.887  0.00  0.00    +0.000 A 
ATOM     15  N   UNL     1       1.505   4.587  20.863  0.00  0.00    +0.000 NA
ATOM     16  C   UNL     1       1.785   5.804  20.458  0.00  0.00    +0.000 A 
ATOM     17  N   UNL     1       2.490   5.795  19.286  0.00  0.00    +0.000 N 
ATOM     18  C   UNL     1       2.639   4.486  18.901  0.00  0.00    +0.000 A 
ATOM     19  H   UNL     1       2.786   6.613  18.776  0.00  0.00    +0.000 HD
ENDBRANCH   1  18
BRANCH   9  20
ATOM     20  C   UNL     1       5.706   3.483  12.517  0.00  0.00    +0.000 C 
ATOM     21  O   UNL     1       4.563   3.512  12.065  0.00  0.00    +0.000 OA
BRANCH  20  22
ATOM     22  C   UNL     1       6.855   2.937  11.707  0.00  0.00    +0.000 C 
ATOM     23 CL   UNL     1       6.453   1.326  11.086  0.00  0.00    +0.000 Cl
ENDBRANCH  20  22
ENDBRANCH   9  20
TORSDOF 3
ENDMDL
MODEL 5
REMARK VINA RESULT:      -7.3      2.970      6.775
REMARK  Name = 
REMARK  4 active torsions:
REMARK  status: ('A' for Active; 'I' for Inactive)
REMARK    1  A    between atoms: C_1  and  C_2
REMARK    2  A    between atoms: C_6  and  C_7
REMARK    3  A    between atoms: C_15  and  C_16
REMARK    4  A    between atoms: C_16  and  C_18
REMARK                            x       y       z     vdW  Elec       q    Type
REMARK                         _______ _______ _______ _____ _____    ______ ____
ROOT
ATOM      1  C   UNL     1       4.253   4.148  16.766  0.00  0.00    +0.000 C 
ATOM      2  C   UNL     1       5.341   4.583  16.110  0.00  0.00    +0.000 C 
ATOM      3  C   UNL     1       6.340   5.602  16.614  0.00  0.00    +0.000 C 
ATOM      4  O   UNL     1       6.435   6.104  17.715  0.00  0.00    +0.000 OA
ATOM      5  N   UNL     1       7.201   5.811  15.552  0.00  0.00    +0.000 N 
ATOM      6  C   UNL     1       6.875   5.015  14.464  0.00  0.00    +0.000 A 
ATOM      7  C   UNL     1       7.539   4.985  13.257  0.00  0.00    +0.000 A 
ATOM      8  C   UNL     1       7.048   4.117  12.283  0.00  0.00    +0.000 A 
ATOM      9  C   UNL     1       5.921   3.299  12.536  0.00  0.00    +0.000 A 
ATOM     10  C   UNL     1       5.258   3.355  13.777  0.00  0.00    +0.000 A 
ATOM     11  C   UNL     1       5.753   4.223  14.740  0.00  0.00    +0.000 A 
ATOM     12  H   UNL     1       7.977   6.455  15.608  0.00  0.00    +0.000 HD
ENDROOT
BRANCH   1  18
ATOM     13  C   UNL     1       4.135   2.900  19.817  0.00  0.00    +0.000 C 
ATOM     14  C   UNL     1       3.786   4.240  19.298  0.00  0.00    +0.000 A 
ATOM     15  N   UNL     1       3.282   5.208  20.136  0.00  0.00    +0.000 NA
ATOM     16  C   UNL     1       2.994   6.227  19.360  0.00  0.00    +0.000 A 
ATOM     17  N   UNL     1       3.339   5.982  18.060  0.00  0.00    +0.000 N 
ATOM     18  C   UNL     1       3.848   4.709  17.998  0.00  0.00    +0.000 A 
ATOM     19  H   UNL     1       3.183   6.609  17.285  0.00  0.00    +0.000 HD
ENDBRANCH   1  18
BRANCH   9  20
ATOM     20  C   UNL     1       5.475   2.407  11.423  0.00  0.00    +0.000 C 
ATOM     21  O   UNL     1       6.290   1.631  10.927  0.00  0.00    +0.000 OA
BRANCH  20  22
ATOM     22  C   UNL     1       4.057   2.483  10.917  0.00  0.00    +0.000 C 
ATOM     23 CL   UNL     1       3.656   4.150  10.466  0.00  0.00    +0.000 Cl
ENDBRANCH  20  22
ENDBRANCH   9  20
TORSDOF 3
ENDMDL
MODEL 6
REMARK VINA RESULT:      -7.3      3.148      6.820
REMARK  Name = 
REMARK  4 active torsions:
REMARK  status: ('A' for Active; 'I' for Inactive)
REMARK    1  A    between atoms: C_1  and  C_2
REMARK    2  A    between atoms: C_6  and  C_7
REMARK    3  A    between atoms: C_15  and  C_16
REMARK    4  A    between atoms: C_16  and  C_18
REMARK                            x       y       z     vdW  Elec       q    Type
REMARK                         _______ _______ _______ _____ _____    ______ ____
ROOT
ATOM      1  C   UNL     1       3.312   3.248  17.318  0.00  0.00    +0.000 C 
ATOM      2  C   UNL     1       4.522   3.830  17.281  0.00  0.00    +0.000 C 
ATOM      3  C   UNL     1       5.227   4.503  18.439  0.00  0.00    +0.000 C 
ATOM      4  O   UNL     1       4.919   4.529  19.614  0.00  0.00    +0.000 OA
ATOM      5  N   UNL     1       6.371   5.052  17.890  0.00  0.00    +0.000 N 
ATOM      6  C   UNL     1       6.477   4.766  16.537  0.00  0.00    +0.000 A 
ATOM      7  C   UNL     1       7.500   5.164  15.705  0.00  0.00    +0.000 A 
ATOM      8  C   UNL     1       7.419   4.780  14.368  0.00  0.00    +0.000 A 
ATOM      9  C   UNL     1       6.331   4.006  13.897  0.00  0.00    +0.000 A 
ATOM     10  C   UNL     1       5.296   3.617  14.768  0.00  0.00    +0.000 A 
ATOM     11  C   UNL     1       5.385   4.006  16.098  0.00  0.00    +0.000 A 
ATOM     12  H   UNL     1       7.038   5.569  18.444  0.00  0.00    +0.000 HD
ENDROOT
BRANCH   1  18
ATOM     13  C   UNL     1       1.691   5.752  18.726  0.00  0.00    +0.000 C 
ATOM     14  C   UNL     1       1.781   4.321  19.090  0.00  0.00    +0.000 A 
ATOM     15  N   UNL     1       1.147   3.842  20.214  0.00  0.00    +0.000 NA
ATOM     16  C   UNL     1       1.499   2.581  20.302  0.00  0.00    +0.000 A 
ATOM     17  N   UNL     1       2.293   2.205  19.254  0.00  0.00    +0.000 N 
ATOM     18  C   UNL     1       2.488   3.310  18.464  0.00  0.00    +0.000 A 
ATOM     19  H   UNL     1       2.705   1.292  19.130  0.00  0.00    +0.000 HD
ENDBRANCH   1  18
BRANCH   9  20
ATOM     20  C   UNL     1       6.339   3.650  12.445  0.00  0.00    +0.000 C 
ATOM     21  O   UNL     1       7.149   4.208  11.706  0.00  0.00    +0.000 OA
BRANCH  20  22
ATOM     22  C   UNL     1       5.355   2.641  11.909  0.00  0.00    +0.000 C 
ATOM     23 CL   UNL     1       4.009   3.468  11.104  0.00  0.00    +0.000 Cl
ENDBRANCH  20  22
ENDBRANCH   9  20
TORSDOF 3
ENDMDL
MODEL 7
REMARK VINA RESULT:      -7.2      4.357      7.695
REMARK  Name = 
REMARK  4 active torsions:
REMARK  status: ('A' for Active; 'I' for Inactive)
REMARK    1  A    between atoms: C_1  and  C_2
REMARK    2  A    between atoms: C_6  and  C_7
REMARK    3  A    between atoms: C_15  and  C_16
REMARK    4  A    between atoms: C_16  and  C_18
REMARK                            x       y       z     vdW  Elec       q    Type
REMARK                         _______ _______ _______ _____ _____    ______ ____
ROOT
ATOM      1  C   UNL     1       1.443   9.414  18.488  0.00  0.00    +0.000 C 
ATOM      2  C   UNL     1       1.855   8.282  19.083  0.00  0.00    +0.000 C 
ATOM      3  C   UNL     1       1.423   7.778  20.443  0.00  0.00    +0.000 C 
ATOM      4  O   UNL     1       0.553   8.201  21.177  0.00  0.00    +0.000 OA
ATOM      5  N   UNL     1       2.200   6.656  20.671  0.00  0.00    +0.000 N 
ATOM      6  C   UNL     1       3.034   6.386  19.597  0.00  0.00    +0.000 A 
ATOM      7  C   UNL     1       3.925   5.338  19.511  0.00  0.00    +0.000 A 
ATOM      8  C   UNL     1       4.682   5.242  18.344  0.00  0.00    +0.000 A 
ATOM      9  C   UNL     1       4.528   6.180  17.296  0.00  0.00    +0.000 A 
ATOM     10  C   UNL     1       3.614   7.244  17.413  0.00  0.00    +0.000 A 
ATOM     11  C   UNL     1       2.865   7.333  18.579  0.00  0.00    +0.000 A 
ATOM     12  H   UNL     1       2.122   6.113  21.518  0.00  0.00    +0.000 HD
ENDROOT
BRANCH   1  18
ATOM     13  C   UNL     1      -1.725  10.232  18.074  0.00  0.00    +0.000 C 
ATOM     14  C   UNL     1      -0.708  10.725  19.028  0.00  0.00    +0.000 A 
ATOM     15  N   UNL     1      -1.012  11.724  19.925  0.00  0.00    +0.000 NA
ATOM     16  C   UNL     1       0.113  11.988  20.547  0.00  0.00    +0.000 A 
ATOM     17  N   UNL     1       1.124  11.168  20.130  0.00  0.00    +0.000 N 
ATOM     18  C   UNL     1       0.618  10.349  19.152  0.00  0.00    +0.000 A 
ATOM     19  H   UNL     1       2.081  11.210  20.448  0.00  0.00    +0.000 HD
ENDBRANCH   1  18
BRANCH   9  20
ATOM     20  C   UNL     1       5.391   5.988  16.091  0.00  0.00    +0.000 C 
ATOM     21  O   UNL     1       5.246   6.748  15.135  0.00  0.00    +0.000 OA
BRANCH  20  22
ATOM     22  C   UNL     1       6.401   4.868  16.055  0.00  0.00    +0.000 C 
ATOM     23 CL   UNL     1       6.145   3.860  14.619  0.00  0.00    +0.000 Cl
ENDBRANCH  20  22
ENDBRANCH   9  20
TORSDOF 3
ENDMDL
MODEL 8
REMARK VINA RESULT:      -7.2      3.349      6.755
REMARK  Name = 
REMARK  4 active torsions:
REMARK  status: ('A' for Active; 'I' for Inactive)
REMARK    1  A    between atoms: C_1  and  C_2
REMARK    2  A    between atoms: C_6  and  C_7
REMARK    3  A    between atoms: C_15  and  C_16
REMARK    4  A    between atoms: C_16  and  C_18
REMARK                            x       y       z     vdW  Elec       q    Type
REMARK                         _______ _______ _______ _____ _____    ______ ____
ROOT
ATOM      1  C   UNL     1       3.666   3.345  18.929  0.00  0.00    +0.000 C 
ATOM      2  C   UNL     1       3.758   4.618  18.513  0.00  0.00    +0.000 C 
ATOM      3  C   UNL     1       3.060   5.813  19.126  0.00  0.00    +0.000 C 
ATOM      4  O   UNL     1       2.417   5.881  20.153  0.00  0.00    +0.000 OA
ATOM      5  N   UNL     1       3.361   6.871  18.287  0.00  0.00    +0.000 N 
ATOM      6  C   UNL     1       4.194   6.480  17.250  0.00  0.00    +0.000 A 
ATOM      7  C   UNL     1       4.677   7.296  16.251  0.00  0.00    +0.000 A 
ATOM      8  C   UNL     1       5.499   6.709  15.291  0.00  0.00    +0.000 A 
ATOM      9  C   UNL     1       5.824   5.333  15.353  0.00  0.00    +0.000 A 
ATOM     10  C   UNL     1       5.311   4.520  16.382  0.00  0.00    +0.000 A 
ATOM     11  C   UNL     1       4.492   5.113  17.333  0.00  0.00    +0.000 A 
ATOM     12  H   UNL     1       3.018   7.804  18.457  0.00  0.00    +0.000 HD
ENDROOT
BRANCH   1  18
ATOM     13  C   UNL     1       0.497   2.434  18.861  0.00  0.00    +0.000 C 
ATOM     14  C   UNL     1       1.451   2.560  19.984  0.00  0.00    +0.000 A 
ATOM     15  N   UNL     1       1.050   2.313  21.277  0.00  0.00    +0.000 NA
ATOM     16  C   UNL     1       2.088   2.601  22.026  0.00  0.00    +0.000 A 
ATOM     17  N   UNL     1       3.165   2.975  21.271  0.00  0.00    +0.000 N 
ATOM     18  C   UNL     1       2.776   2.957  19.956  0.00  0.00    +0.000 A 
ATOM     19  H   UNL     1       4.060   3.269  21.634  0.00  0.00    +0.000 HD
ENDBRANCH   1  18
BRANCH   9  20
ATOM     20  C   UNL     1       6.709   4.802  14.273  0.00  0.00    +0.000 C 
ATOM     21  O   UNL     1       7.823   5.303  14.124  0.00  0.00    +0.000 OA
BRANCH  20  22
ATOM     22  C   UNL     1       6.226   3.688  13.378  0.00  0.00    +0.000 C 
ATOM     23 CL   UNL     1       7.038   3.772  11.804  0.00  0.00    +0.000 Cl
ENDBRANCH  20  22
ENDBRANCH   9  20
TORSDOF 3
ENDMDL
MODEL 9
REMARK VINA RESULT:      -7.2      2.033      2.193
REMARK  Name = 
REMARK  4 active torsions:
REMARK  status: ('A' for Active; 'I' for Inactive)
REMARK    1  A    between atoms: C_1  and  C_2
REMARK    2  A    between atoms: C_6  and  C_7
REMARK    3  A    between atoms: C_15  and  C_16
REMARK    4  A    between atoms: C_16  and  C_18
REMARK                            x       y       z     vdW  Elec       q    Type
REMARK                         _______ _______ _______ _____ _____    ______ ____
ROOT
ATOM      1  C   UNL     1       5.153   4.406  14.769  0.00  0.00    +0.000 C 
ATOM      2  C   UNL     1       5.523   4.341  16.058  0.00  0.00    +0.000 C 
ATOM      3  C   UNL     1       6.935   4.463  16.591  0.00  0.00    +0.000 C 
ATOM      4  O   UNL     1       7.952   4.771  16.003  0.00  0.00    +0.000 OA
ATOM      5  N   UNL     1       6.827   4.210  17.946  0.00  0.00    +0.000 N 
ATOM      6  C   UNL     1       5.512   3.982  18.321  0.00  0.00    +0.000 A 
ATOM      7  C   UNL     1       5.072   3.706  19.597  0.00  0.00    +0.000 A 
ATOM      8  C   UNL     1       3.704   3.500  19.768  0.00  0.00    +0.000 A 
ATOM      9  C   UNL     1       2.812   3.581  18.672  0.00  0.00    +0.000 A 
ATOM     10  C   UNL     1       3.290   3.860  17.377  0.00  0.00    +0.000 A 
ATOM     11  C   UNL     1       4.654   4.062  17.217  0.00  0.00    +0.000 A 
ATOM     12  H   UNL     1       7.628   4.223  18.560  0.00  0.00    +0.000 HD
ENDROOT
BRANCH   1  18
ATOM     13  C   UNL     1       5.595   2.567  12.067  0.00  0.00    +0.000 C 
ATOM     14  C   UNL     1       6.325   3.750  12.571  0.00  0.00    +0.000 A 
ATOM     15  N   UNL     1       7.420   4.239  11.895  0.00  0.00    +0.000 NA
ATOM     16  C   UNL     1       7.884   5.213  12.642  0.00  0.00    +0.000 A 
ATOM     17  N   UNL     1       7.106   5.414  13.748  0.00  0.00    +0.000 N 
ATOM     18  C   UNL     1       6.100   4.482  13.723  0.00  0.00    +0.000 A 
ATOM     19  H   UNL     1       7.288   6.088  14.477  0.00  0.00    +0.000 HD
ENDBRANCH   1  18
BRANCH   9  20
ATOM     20  C   UNL     1       1.367   3.340  18.964  0.00  0.00    +0.000 C 
ATOM     21  O   UNL     1       0.687   2.750  18.126  0.00  0.00    +0.000 OA
BRANCH  20  22
ATOM     22  C   UNL     1       0.763   3.834  20.255  0.00  0.00    +0.000 C 
ATOM     23 CL   UNL     1       1.120   2.699  21.569  0.00  0.00    +0.000 Cl
ENDBRANCH  20  22
ENDBRANCH   9  20
TORSDOF 3
ENDMDL
