MODEL 1
REMARK VINA RESULT:      -9.3      0.000      0.000
REMARK  Name = 
REMARK  7 active torsions:
REMARK  status: ('A' for Active; 'I' for Inactive)
REMARK    1  A    between atoms: C_1  and  C_2
REMARK    2  A    between atoms: C_5  and  C_6
REMARK    3  A    between atoms: C_10  and  C_11
REMARK    4  A    between atoms: C_13  and  C_14
REMARK    5  A    between atoms: N_16  and  C_17
REMARK    6  A    between atoms: C_17  and  C_18
REMARK    7  A    between atoms: C_27  and  C_28
REMARK                            x       y       z     vdW  Elec       q    Type
REMARK                         _______ _______ _______ _____ _____    ______ ____
ROOT
ATOM      1  C   UNL     1       1.415   8.697  19.954  0.00  0.00    +0.000 A 
ATOM      2  N   UNL     1       1.875   7.424  20.264  0.00  0.00    +0.000 NA
ATOM      3  C   UNL     1       2.484   6.990  19.174  0.00  0.00    +0.000 A 
ATOM      4  N   UNL     1       2.480   7.955  18.202  0.00  0.00    +0.000 N 
ATOM      5  C   UNL     1       1.797   9.050  18.669  0.00  0.00    +0.000 A 
ATOM      6  C   UNL     1       1.630  10.266  17.839  0.00  0.00    +0.000 C 
ATOM      7  H   UNL     1       2.901   7.840  17.289  0.00  0.00    +0.000 HD
ENDROOT
BRANCH   1  12
ATOM      8  C   UNL     1      -1.050  13.313  22.924  0.00  0.00    +0.000 A 
ATOM      9  C   UNL     1      -0.291  13.104  21.793  0.00  0.00    +0.000 A 
ATOM     10  C   UNL     1      -0.085  11.704  21.656  0.00  0.00    +0.000 A 
ATOM     11  C   UNL     1       0.628  10.904  20.739  0.00  0.00    +0.000 A 
ATOM     12  C   UNL     1       0.646   9.508  20.892  0.00  0.00    +0.000 A 
ATOM     13  C   UNL     1      -0.050   8.935  21.965  0.00  0.00    +0.000 A 
ATOM     14  C   UNL     1      -0.780   9.705  22.881  0.00  0.00    +0.000 A 
ATOM     15  C   UNL     1      -0.767  11.090  22.705  0.00  0.00    +0.000 A 
ATOM     16  N   UNL     1      -1.347  12.085  23.455  0.00  0.00    +0.000 N 
ATOM     17  H   UNL     1      -1.892  11.944  24.298  0.00  0.00    +0.000 HD
BRANCH   8  22
ATOM     18  C   UNL     1      -1.519  17.071  25.962  0.00  0.00    +0.000 C 
ATOM     19  C   UNL     1      -1.711  16.171  24.810  0.00  0.00    +0.000 A 
ATOM     20  N   UNL     1      -2.543  16.462  23.806  0.00  0.00    +0.000 NA
ATOM     21  O   UNL     1      -2.399  15.373  22.948  0.00  0.00    +0.000 OA
ATOM     22  C   UNL     1      -1.485  14.530  23.526  0.00  0.00    +0.000 A 
ATOM     23  N   UNL     1      -1.037  14.981  24.681  0.00  0.00    +0.000 NA
ENDBRANCH   8  22
ENDBRANCH   1  12
BRANCH   3  24
ATOM     24  C   UNL     1       3.055   5.673  18.965  0.00  0.00    +0.000 C 
ATOM     25  O   UNL     1       2.411   4.751  18.469  0.00  0.00    +0.000 OA
ATOM     26  N   UNL     1       4.361   5.520  19.380  0.00  0.00    +0.000 N 
ATOM     27  H   UNL     1       4.880   6.370  19.577  0.00  0.00    +0.000 HD
BRANCH  26  28
ATOM     28  C   UNL     1       5.023   4.254  19.173  0.00  0.00    +0.000 C 
BRANCH  28  29
ATOM     29  C   UNL     1       6.080   4.341  18.142  0.00  0.00    +0.000 A 
ATOM     30  N   UNL     1       7.386   4.450  18.347  0.00  0.00    +0.000 NA
ATOM     31  N   UNL     1       8.026   4.616  17.120  0.00  0.00    +0.000 NA
ATOM     32  C   UNL     1       7.086   4.598  16.217  0.00  0.00    +0.000 A 
ATOM     33  N   UNL     1       5.879   4.423  16.811  0.00  0.00    +0.000 N 
ATOM     34  C   UNL     1       4.783   4.390  15.872  0.00  0.00    +0.000 C 
ATOM     35  C   UNL     1       5.525   4.185  14.533  0.00  0.00    +0.000 C 
ATOM     36  C   UNL     1       6.967   4.714  14.756  0.00  0.00    +0.000 C 
ENDBRANCH  28  29
ENDBRANCH  26  28
ENDBRANCH   3  24
TORSDOF 5
ENDMDL
MODEL 2
REMARK VINA RESULT:      -9.2      2.589     12.066
REMARK  Name = 
REMARK  7 active torsions:
REMARK  status: ('A' for Active; 'I' for Inactive)
REMARK    1  A    between atoms: C_1  and  C_2
REMARK    2  A    between atoms: C_5  and  C_6
REMARK    3  A    between atoms: C_10  and  C_11
REMARK    4  A    between atoms: C_13  and  C_14
REMARK    5  A    between atoms: N_16  and  C_17
REMARK    6  A    between atoms: C_17  and  C_18
REMARK    7  A    between atoms: C_27  and  C_28
REMARK                            x       y       z     vdW  Elec       q    Type
REMARK                         _______ _______ _______ _____ _____    ______ ____
ROOT
ATOM      1  C   UNL     1       0.894   9.102  19.892  0.00  0.00    +0.000 A 
ATOM      2  N   UNL     1       0.783   9.423  21.238  0.00  0.00    +0.000 NA
ATOM      3  C   UNL     1      -0.135  10.372  21.304  0.00  0.00    +0.000 A 
ATOM      4  N   UNL     1      -0.652  10.630  20.062  0.00  0.00    +0.000 N 
ATOM      5  C   UNL     1      -0.008   9.842  19.142  0.00  0.00    +0.000 A 
ATOM      6  C   UNL     1      -0.358   9.892  17.703  0.00  0.00    +0.000 C 
ATOM      7  H   UNL     1      -1.376  11.314  19.882  0.00  0.00    +0.000 HD
ENDROOT
BRANCH   1  12
ATOM      8  C   UNL     1       4.901   6.126  16.531  0.00  0.00    +0.000 A 
ATOM      9  C   UNL     1       4.271   7.352  16.538  0.00  0.00    +0.000 A 
ATOM     10  C   UNL     1       3.440   7.410  17.690  0.00  0.00    +0.000 A 
ATOM     11  C   UNL     1       2.542   8.371  18.203  0.00  0.00    +0.000 A 
ATOM     12  C   UNL     1       1.843   8.112  19.392  0.00  0.00    +0.000 A 
ATOM     13  C   UNL     1       2.051   6.893  20.049  0.00  0.00    +0.000 A 
ATOM     14  C   UNL     1       2.949   5.928  19.572  0.00  0.00    +0.000 A 
ATOM     15  C   UNL     1       3.618   6.213  18.380  0.00  0.00    +0.000 A 
ATOM     16  N   UNL     1       4.512   5.455  17.661  0.00  0.00    +0.000 N 
ATOM     17  H   UNL     1       4.822   4.521  17.906  0.00  0.00    +0.000 HD
BRANCH   8  22
ATOM     18  C   UNL     1       6.669   3.670  12.735  0.00  0.00    +0.000 C 
ATOM     19  C   UNL     1       6.591   4.513  13.942  0.00  0.00    +0.000 A 
ATOM     20  N   UNL     1       7.664   5.108  14.470  0.00  0.00    +0.000 NA
ATOM     21  O   UNL     1       7.140   5.802  15.558  0.00  0.00    +0.000 OA
ATOM     22  C   UNL     1       5.791   5.557  15.574  0.00  0.00    +0.000 A 
ATOM     23  N   UNL     1       5.409   4.760  14.597  0.00  0.00    +0.000 NA
ENDBRANCH   8  22
ENDBRANCH   1  12
BRANCH   3  24
ATOM     24  C   UNL     1      -0.543  11.103  22.488  0.00  0.00    +0.000 C 
ATOM     25  O   UNL     1      -0.375  10.661  23.622  0.00  0.00    +0.000 OA
ATOM     26  N   UNL     1      -1.152  12.318  22.254  0.00  0.00    +0.000 N 
ATOM     27  H   UNL     1      -1.061  12.702  21.318  0.00  0.00    +0.000 HD
BRANCH  26  28
ATOM     28  C   UNL     1      -1.555  13.133  23.374  0.00  0.00    +0.000 C 
BRANCH  28  29
ATOM     29  C   UNL     1      -3.019  13.108  23.583  0.00  0.00    +0.000 A 
ATOM     30  N   UNL     1      -3.779  12.035  23.762  0.00  0.00    +0.000 NA
ATOM     31  N   UNL     1      -5.115  12.429  23.810  0.00  0.00    +0.000 NA
ATOM     32  C   UNL     1      -5.116  13.724  23.662  0.00  0.00    +0.000 A 
ATOM     33  N   UNL     1      -3.842  14.173  23.528  0.00  0.00    +0.000 N 
ATOM     34  C   UNL     1      -3.760  15.605  23.361  0.00  0.00    +0.000 C 
ATOM     35  C   UNL     1      -5.172  16.052  23.798  0.00  0.00    +0.000 C 
ATOM     36  C   UNL     1      -6.094  14.820  23.599  0.00  0.00    +0.000 C 
ENDBRANCH  28  29
ENDBRANCH  26  28
ENDBRANCH   3  24
TORSDOF 5
ENDMDL
MODEL 3
REMARK VINA RESULT:      -9.2      1.447      1.614
REMARK  Name = 
REMARK  7 active torsions:
REMARK  status: ('A' for Active; 'I' for Inactive)
REMARK    1  A    between atoms: C_1  and  C_2
REMARK    2  A    between atoms: C_5  and  C_6
REMARK    3  A    between atoms: C_10  and  C_11
REMARK    4  A    between atoms: C_13  and  C_14
REMARK    5  A    between atoms: N_16  and  C_17
REMARK    6  A    between atoms: C_17  and  C_18
REMARK    7  A    between atoms: C_27  and  C_28
REMARK                            x       y       z     vdW  Elec       q    Type
REMARK                         _______ _______ _______ _____ _____    ______ ____
ROOT
ATOM      1  C   UNL     1       1.239   8.753  20.119  0.00  0.00    +0.000 A 
ATOM      2  N   UNL     1       1.639   7.446  20.365  0.00  0.00    +0.000 NA
ATOM      3  C   UNL     1       2.335   7.081  19.302  0.00  0.00    +0.000 A 
ATOM      4  N   UNL     1       2.441   8.119  18.414  0.00  0.00    +0.000 N 
ATOM      5  C   UNL     1       1.744   9.194  18.905  0.00  0.00    +0.000 A 
ATOM      6  C   UNL     1       1.681  10.476  18.165  0.00  0.00    +0.000 C 
ATOM      7  H   UNL     1       2.941   8.063  17.536  0.00  0.00    +0.000 HD
ENDROOT
BRANCH   1  12
ATOM      8  C   UNL     1      -2.484  12.811  22.543  0.00  0.00    +0.000 A 
ATOM      9  C   UNL     1      -2.018  12.458  21.296  0.00  0.00    +0.000 A 
ATOM     10  C   UNL     1      -1.155  11.339  21.452  0.00  0.00    +0.000 A 
ATOM     11  C   UNL     1      -0.369  10.577  20.562  0.00  0.00    +0.000 A 
ATOM     12  C   UNL     1       0.406   9.511  21.047  0.00  0.00    +0.000 A 
ATOM     13  C   UNL     1       0.383   9.227  22.419  0.00  0.00    +0.000 A 
ATOM     14  C   UNL     1      -0.401   9.956  23.323  0.00  0.00    +0.000 A 
ATOM     15  C   UNL     1      -1.150  11.016  22.808  0.00  0.00    +0.000 A 
ATOM     16  N   UNL     1      -1.966  11.919  23.446  0.00  0.00    +0.000 N 
ATOM     17  H   UNL     1      -2.143  11.949  24.444  0.00  0.00    +0.000 HD
BRANCH   8  22
ATOM     18  C   UNL     1      -6.318  15.750  23.033  0.00  0.00    +0.000 C 
ATOM     19  C   UNL     1      -4.966  15.177  23.176  0.00  0.00    +0.000 A 
ATOM     20  N   UNL     1      -4.048  15.709  23.987  0.00  0.00    +0.000 NA
ATOM     21  O   UNL     1      -2.955  14.857  23.830  0.00  0.00    +0.000 OA
ATOM     22  C   UNL     1      -3.331  13.889  22.936  0.00  0.00    +0.000 A 
ATOM     23  N   UNL     1      -4.565  14.051  22.501  0.00  0.00    +0.000 NA
ENDBRANCH   8  22
ENDBRANCH   1  12
BRANCH   3  24
ATOM     24  C   UNL     1       2.891   5.768  19.039  0.00  0.00    +0.000 C 
ATOM     25  O   UNL     1       2.298   4.927  18.367  0.00  0.00    +0.000 OA
ATOM     26  N   UNL     1       4.121   5.519  19.611  0.00  0.00    +0.000 N 
ATOM     27  H   UNL     1       4.631   6.323  19.964  0.00  0.00    +0.000 HD
BRANCH  26  28
ATOM     28  C   UNL     1       4.769   4.253  19.368  0.00  0.00    +0.000 C 
BRANCH  28  29
ATOM     29  C   UNL     1       5.897   4.379  18.420  0.00  0.00    +0.000 A 
ATOM     30  N   UNL     1       7.176   4.565  18.722  0.00  0.00    +0.000 NA
ATOM     31  N   UNL     1       7.900   4.742  17.545  0.00  0.00    +0.000 NA
ATOM     32  C   UNL     1       7.036   4.653  16.572  0.00  0.00    +0.000 A 
ATOM     33  N   UNL     1       5.797   4.422  17.076  0.00  0.00    +0.000 N 
ATOM     34  C   UNL     1       4.782   4.308  16.056  0.00  0.00    +0.000 C 
ATOM     35  C   UNL     1       5.637   4.119  14.784  0.00  0.00    +0.000 C 
ATOM     36  C   UNL     1       7.026   4.733  15.104  0.00  0.00    +0.000 C 
ENDBRANCH  28  29
ENDBRANCH  26  28
ENDBRANCH   3  24
TORSDOF 5
ENDMDL
MODEL 4
REMARK VINA RESULT:      -9.0      4.381     10.256
REMARK  Name = 
REMARK  7 active torsions:
REMARK  status: ('A' for Active; 'I' for Inactive)
REMARK    1  A    between atoms: C_1  and  C_2
REMARK    2  A    between atoms: C_5  and  C_6
REMARK    3  A    between atoms: C_10  and  C_11
REMARK    4  A    between atoms: C_13  and  C_14
REMARK    5  A    between atoms: N_16  and  C_17
REMARK    6  A    between atoms: C_17  and  C_18
REMARK    7  A    between atoms: C_27  and  C_28
REMARK                            x       y       z     vdW  Elec       q    Type
REMARK                         _______ _______ _______ _____ _____    ______ ____
ROOT
ATOM      1  C   UNL     1      -0.056  11.542  19.357  0.00  0.00    +0.000 A 
ATOM      2  N   UNL     1       0.583  12.751  19.592  0.00  0.00    +0.000 NA
ATOM      3  C   UNL     1      -0.178  13.673  19.028  0.00  0.00    +0.000 A 
ATOM      4  N   UNL     1      -1.305  13.106  18.492  0.00  0.00    +0.000 N 
ATOM      5  C   UNL     1      -1.248  11.749  18.679  0.00  0.00    +0.000 A 
ATOM      6  C   UNL     1      -2.337  10.859  18.210  0.00  0.00    +0.000 C 
ATOM      7  H   UNL     1      -2.031  13.630  18.021  0.00  0.00    +0.000 HD
ENDROOT
BRANCH   1  12
ATOM      8  C   UNL     1       2.747   6.220  19.525  0.00  0.00    +0.000 A 
ATOM      9  C   UNL     1       2.600   7.280  18.656  0.00  0.00    +0.000 A 
ATOM     10  C   UNL     1       1.799   8.263  19.297  0.00  0.00    +0.000 A 
ATOM     11  C   UNL     1       1.286   9.518  18.903  0.00  0.00    +0.000 A 
ATOM     12  C   UNL     1       0.493  10.261  19.791  0.00  0.00    +0.000 A 
ATOM     13  C   UNL     1       0.221   9.735  21.061  0.00  0.00    +0.000 A 
ATOM     14  C   UNL     1       0.731   8.499  21.484  0.00  0.00    +0.000 A 
ATOM     15  C   UNL     1       1.507   7.782  20.572  0.00  0.00    +0.000 A 
ATOM     16  N   UNL     1       2.097   6.546  20.687  0.00  0.00    +0.000 N 
ATOM     17  H   UNL     1       2.040   5.941  21.499  0.00  0.00    +0.000 HD
BRANCH   8  22
ATOM     18  C   UNL     1       3.650   1.548  18.563  0.00  0.00    +0.000 C 
ATOM     19  C   UNL     1       3.841   2.963  18.934  0.00  0.00    +0.000 A 
ATOM     20  N   UNL     1       5.046   3.476  19.194  0.00  0.00    +0.000 NA
ATOM     21  O   UNL     1       4.767   4.814  19.472  0.00  0.00    +0.000 OA
ATOM     22  C   UNL     1       3.411   4.972  19.347  0.00  0.00    +0.000 A 
ATOM     23  N   UNL     1       2.798   3.852  19.021  0.00  0.00    +0.000 NA
ENDBRANCH   8  22
ENDBRANCH   1  12
BRANCH   3  24
ATOM     24  C   UNL     1       0.110  15.090  18.922  0.00  0.00    +0.000 C 
ATOM     25  O   UNL     1      -0.761  15.948  19.050  0.00  0.00    +0.000 OA
ATOM     26  N   UNL     1       1.423  15.410  18.646  0.00  0.00    +0.000 N 
ATOM     27  H   UNL     1       2.108  14.669  18.766  0.00  0.00    +0.000 HD
BRANCH  26  28
ATOM     28  C   UNL     1       1.809  16.797  18.563  0.00  0.00    +0.000 C 
BRANCH  28  29
ATOM     29  C   UNL     1       3.200  17.015  19.018  0.00  0.00    +0.000 A 
ATOM     30  N   UNL     1       3.624  17.943  19.866  0.00  0.00    +0.000 NA
ATOM     31  N   UNL     1       5.014  17.885  19.944  0.00  0.00    +0.000 NA
ATOM     32  C   UNL     1       5.382  16.922  19.146  0.00  0.00    +0.000 A 
ATOM     33  N   UNL     1       4.289  16.362  18.567  0.00  0.00    +0.000 N 
ATOM     34  C   UNL     1       4.616  15.283  17.666  0.00  0.00    +0.000 C 
ATOM     35  C   UNL     1       6.080  14.983  18.055  0.00  0.00    +0.000 C 
ATOM     36  C   UNL     1       6.628  16.283  18.700  0.00  0.00    +0.000 C 
ENDBRANCH  28  29
ENDBRANCH  26  28
ENDBRANCH   3  24
TORSDOF 5
ENDMDL
MODEL 5
REMARK VINA RESULT:      -8.9      3.502     11.634
REMARK  Name = 
REMARK  7 active torsions:
REMARK  status: ('A' for Active; 'I' for Inactive)
REMARK    1  A    between atoms: C_1  and  C_2
REMARK    2  A    between atoms: C_5  and  C_6
REMARK    3  A    between atoms: C_10  and  C_11
REMARK    4  A    between atoms: C_13  and  C_14
REMARK    5  A    between atoms: N_16  and  C_17
REMARK    6  A    between atoms: C_17  and  C_18
REMARK    7  A    between atoms: C_27  and  C_28
REMARK                            x       y       z     vdW  Elec       q    Type
REMARK                         _______ _______ _______ _____ _____    ______ ____
ROOT
ATOM      1  C   UNL     1       0.635   9.277  20.384  0.00  0.00    +0.000 A 
ATOM      2  N   UNL     1      -0.146  10.059  19.543  0.00  0.00    +0.000 NA
ATOM      3  C   UNL     1      -0.794  10.896  20.334  0.00  0.00    +0.000 A 
ATOM      4  N   UNL     1      -0.417  10.717  21.639  0.00  0.00    +0.000 N 
ATOM      5  C   UNL     1       0.486   9.686  21.700  0.00  0.00    +0.000 A 
ATOM      6  C   UNL     1       1.084   9.260  22.988  0.00  0.00    +0.000 C 
ATOM      7  H   UNL     1      -0.780  11.259  22.412  0.00  0.00    +0.000 HD
ENDROOT
BRANCH   1  12
ATOM      8  C   UNL     1       4.366   5.905  17.079  0.00  0.00    +0.000 A 
ATOM      9  C   UNL     1       3.873   7.192  17.085  0.00  0.00    +0.000 A 
ATOM     10  C   UNL     1       3.028   7.332  18.219  0.00  0.00    +0.000 A 
ATOM     11  C   UNL     1       2.230   8.382  18.722  0.00  0.00    +0.000 A 
ATOM     12  C   UNL     1       1.481   8.193  19.894  0.00  0.00    +0.000 A 
ATOM     13  C   UNL     1       1.540   6.953  20.544  0.00  0.00    +0.000 A 
ATOM     14  C   UNL     1       2.338   5.900  20.076  0.00  0.00    +0.000 A 
ATOM     15  C   UNL     1       3.060   6.118  18.902  0.00  0.00    +0.000 A 
ATOM     16  N   UNL     1       3.881   5.272  18.194  0.00  0.00    +0.000 N 
ATOM     17  H   UNL     1       4.082   4.309  18.437  0.00  0.00    +0.000 HD
BRANCH   8  22
ATOM     18  C   UNL     1       7.495   5.056  13.465  0.00  0.00    +0.000 C 
ATOM     19  C   UNL     1       6.561   4.843  14.587  0.00  0.00    +0.000 A 
ATOM     20  N   UNL     1       6.315   3.631  15.091  0.00  0.00    +0.000 NA
ATOM     21  O   UNL     1       5.414   3.893  16.122  0.00  0.00    +0.000 OA
ATOM     22  C   UNL     1       5.209   5.249  16.135  0.00  0.00    +0.000 A 
ATOM     23  N   UNL     1       5.893   5.875  15.200  0.00  0.00    +0.000 NA
ENDBRANCH   8  22
ENDBRANCH   1  12
BRANCH   3  24
ATOM     24  C   UNL     1      -1.805  11.857  19.938  0.00  0.00    +0.000 C 
ATOM     25  O   UNL     1      -2.037  12.117  18.759  0.00  0.00    +0.000 OA
ATOM     26  N   UNL     1      -2.474  12.475  20.973  0.00  0.00    +0.000 N 
ATOM     27  H   UNL     1      -2.377  12.056  21.893  0.00  0.00    +0.000 HD
BRANCH  26  28
ATOM     28  C   UNL     1      -3.526  13.415  20.673  0.00  0.00    +0.000 C 
BRANCH  28  29
ATOM     29  C   UNL     1      -4.867  12.862  20.963  0.00  0.00    +0.000 A 
ATOM     30  N   UNL     1      -5.554  12.991  22.090  0.00  0.00    +0.000 NA
ATOM     31  N   UNL     1      -6.719  12.231  22.001  0.00  0.00    +0.000 NA
ATOM     32  C   UNL     1      -6.697  11.673  20.823  0.00  0.00    +0.000 A 
ATOM     33  N   UNL     1      -5.575  12.047  20.157  0.00  0.00    +0.000 N 
ATOM     34  C   UNL     1      -5.480  11.470  18.837  0.00  0.00    +0.000 C 
ATOM     35  C   UNL     1      -6.922  10.964  18.612  0.00  0.00    +0.000 C 
ATOM     36  C   UNL     1      -7.532  10.764  20.025  0.00  0.00    +0.000 C 
ENDBRANCH  28  29
ENDBRANCH  26  28
ENDBRANCH   3  24
TORSDOF 5
ENDMDL
MODEL 6
REMARK VINA RESULT:      -8.8      3.864     11.994
REMARK  Name = 
REMARK  7 active torsions:
REMARK  status: ('A' for Active; 'I' for Inactive)
REMARK    1  A    between atoms: C_1  and  C_2
REMARK    2  A    between atoms: C_5  and  C_6
REMARK    3  A    between atoms: C_10  and  C_11
REMARK    4  A    between atoms: C_13  and  C_14
REMARK    5  A    between atoms: N_16  and  C_17
REMARK    6  A    between atoms: C_17  and  C_18
REMARK    7  A    between atoms: C_27  and  C_28
REMARK                            x       y       z     vdW  Elec       q    Type
REMARK                         _______ _______ _______ _____ _____    ______ ____
ROOT
ATOM      1  C   UNL     1      -0.036  10.406  19.382  0.00  0.00    +0.000 A 
ATOM      2  N   UNL     1      -1.298  10.332  18.808  0.00  0.00    +0.000 NA
ATOM      3  C   UNL     1      -1.888  11.479  19.098  0.00  0.00    +0.000 A 
ATOM      4  N   UNL     1      -1.035  12.302  19.784  0.00  0.00    +0.000 N 
ATOM      5  C   UNL     1       0.150  11.640  19.986  0.00  0.00    +0.000 A 
ATOM      6  C   UNL     1       1.280  12.281  20.700  0.00  0.00    +0.000 C 
ATOM      7  H   UNL     1      -1.276  13.233  20.096  0.00  0.00    +0.000 HD
ENDROOT
BRANCH   1  12
ATOM      8  C   UNL     1       4.129   6.473  17.540  0.00  0.00    +0.000 A 
ATOM      9  C   UNL     1       3.526   7.624  17.082  0.00  0.00    +0.000 A 
ATOM     10  C   UNL     1       2.619   8.070  18.081  0.00  0.00    +0.000 A 
ATOM     11  C   UNL     1       1.708   9.145  18.168  0.00  0.00    +0.000 A 
ATOM     12  C   UNL     1       0.924   9.308  19.321  0.00  0.00    +0.000 A 
ATOM     13  C   UNL     1       1.062   8.390  20.369  0.00  0.00    +0.000 A 
ATOM     14  C   UNL     1       1.970   7.323  20.317  0.00  0.00    +0.000 A 
ATOM     15  C   UNL     1       2.725   7.184  19.151  0.00  0.00    +0.000 A 
ATOM     16  N   UNL     1       3.650   6.229  18.801  0.00  0.00    +0.000 N 
ATOM     17  H   UNL     1       3.923   5.438  19.373  0.00  0.00    +0.000 HD
BRANCH   8  22
ATOM     18  C   UNL     1       6.501   3.862  14.204  0.00  0.00    +0.000 C 
ATOM     19  C   UNL     1       6.124   4.479  15.489  0.00  0.00    +0.000 A 
ATOM     20  N   UNL     1       6.857   4.330  16.596  0.00  0.00    +0.000 NA
ATOM     21  O   UNL     1       6.160   5.080  17.542  0.00  0.00    +0.000 OA
ATOM     22  C   UNL     1       5.071   5.613  16.902  0.00  0.00    +0.000 A 
ATOM     23  N   UNL     1       5.005   5.262  15.634  0.00  0.00    +0.000 NA
ENDBRANCH   8  22
ENDBRANCH   1  12
BRANCH   3  24
ATOM     24  C   UNL     1      -3.258  11.850  18.797  0.00  0.00    +0.000 C 
ATOM     25  O   UNL     1      -3.830  11.474  17.776  0.00  0.00    +0.000 OA
ATOM     26  N   UNL     1      -3.867  12.670  19.723  0.00  0.00    +0.000 N 
ATOM     27  H   UNL     1      -3.410  12.759  20.625  0.00  0.00    +0.000 HD
BRANCH  26  28
ATOM     28  C   UNL     1      -5.243  13.057  19.526  0.00  0.00    +0.000 C 
BRANCH  28  29
ATOM     29  C   UNL     1      -6.153  12.375  20.472  0.00  0.00    +0.000 A 
ATOM     30  N   UNL     1      -6.861  11.276  20.245  0.00  0.00    +0.000 NA
ATOM     31  N   UNL     1      -7.673  11.023  21.348  0.00  0.00    +0.000 NA
ATOM     32  C   UNL     1      -7.426  11.974  22.205  0.00  0.00    +0.000 A 
ATOM     33  N   UNL     1      -6.491  12.817  21.700  0.00  0.00    +0.000 N 
ATOM     34  C   UNL     1      -6.161  13.900  22.595  0.00  0.00    +0.000 C 
ATOM     35  C   UNL     1      -6.760  13.398  23.927  0.00  0.00    +0.000 C 
ATOM     36  C   UNL     1      -7.871  12.385  23.544  0.00  0.00    +0.000 C 
ENDBRANCH  28  29
ENDBRANCH  26  28
ENDBRANCH   3  24
TORSDOF 5
ENDMDL
MODEL 7
REMARK VINA RESULT:      -8.7      3.440     12.055
REMARK  Name = 
REMARK  7 active torsions:
REMARK  status: ('A' for Active; 'I' for Inactive)
REMARK    1  A    between atoms: C_1  and  C_2
REMARK    2  A    between atoms: C_5  and  C_6
REMARK    3  A    between atoms: C_10  and  C_11
REMARK    4  A    between atoms: C_13  and  C_14
REMARK    5  A    between atoms: N_16  and  C_17
REMARK    6  A    between atoms: C_17  and  C_18
REMARK    7  A    between atoms: C_27  and  C_28
REMARK                            x       y       z     vdW  Elec       q    Type
REMARK                         _______ _______ _______ _____ _____    ______ ____
ROOT
ATOM      1  C   UNL     1       1.053   9.219  19.724  0.00  0.00    +0.000 A 
ATOM      2  N   UNL     1       0.276  10.004  18.883  0.00  0.00    +0.000 NA
ATOM      3  C   UNL     1      -0.442  10.777  19.679  0.00  0.00    +0.000 A 
ATOM      4  N   UNL     1      -0.113  10.557  20.991  0.00  0.00    +0.000 N 
ATOM      5  C   UNL     1       0.830   9.563  21.049  0.00  0.00    +0.000 A 
ATOM      6  C   UNL     1       1.390   9.106  22.343  0.00  0.00    +0.000 C 
ATOM      7  H   UNL     1      -0.534  11.048  21.769  0.00  0.00    +0.000 HD
ENDROOT
BRANCH   1  12
ATOM      8  C   UNL     1       4.957   6.094  16.377  0.00  0.00    +0.000 A 
ATOM      9  C   UNL     1       4.373   7.342  16.382  0.00  0.00    +0.000 A 
ATOM     10  C   UNL     1       3.541   7.432  17.530  0.00  0.00    +0.000 A 
ATOM     11  C   UNL     1       2.678   8.426  18.040  0.00  0.00    +0.000 A 
ATOM     12  C   UNL     1       1.966   8.194  19.228  0.00  0.00    +0.000 A 
ATOM     13  C   UNL     1       2.127   6.969  19.886  0.00  0.00    +0.000 A 
ATOM     14  C   UNL     1       2.990   5.971  19.412  0.00  0.00    +0.000 A 
ATOM     15  C   UNL     1       3.673   6.230  18.223  0.00  0.00    +0.000 A 
ATOM     16  N   UNL     1       4.540   5.439  17.506  0.00  0.00    +0.000 N 
ATOM     17  H   UNL     1       4.814   4.494  17.753  0.00  0.00    +0.000 HD
BRANCH   8  22
ATOM     18  C   UNL     1       6.650   3.507  12.634  0.00  0.00    +0.000 C 
ATOM     19  C   UNL     1       6.595   4.392  13.812  0.00  0.00    +0.000 A 
ATOM     20  N   UNL     1       7.679   5.002  14.299  0.00  0.00    +0.000 NA
ATOM     21  O   UNL     1       7.176   5.734  15.373  0.00  0.00    +0.000 OA
ATOM     22  C   UNL     1       5.828   5.491  15.423  0.00  0.00    +0.000 A 
ATOM     23  N   UNL     1       5.426   4.662  14.481  0.00  0.00    +0.000 NA
ENDBRANCH   8  22
ENDBRANCH   1  12
BRANCH   3  24
ATOM     24  C   UNL     1      -1.476  11.712  19.279  0.00  0.00    +0.000 C 
ATOM     25  O   UNL     1      -1.382  12.400  18.265  0.00  0.00    +0.000 OA
ATOM     26  N   UNL     1      -2.563  11.791  20.124  0.00  0.00    +0.000 N 
ATOM     27  H   UNL     1      -2.662  11.049  20.811  0.00  0.00    +0.000 HD
BRANCH  26  28
ATOM     28  C   UNL     1      -3.659  12.665  19.784  0.00  0.00    +0.000 C 
BRANCH  28  29
ATOM     29  C   UNL     1      -4.467  13.030  20.968  0.00  0.00    +0.000 A 
ATOM     30  N   UNL     1      -4.108  13.834  21.960  0.00  0.00    +0.000 NA
ATOM     31  N   UNL     1      -5.106  13.829  22.933  0.00  0.00    +0.000 NA
ATOM     32  C   UNL     1      -6.034  13.026  22.494  0.00  0.00    +0.000 A 
ATOM     33  N   UNL     1      -5.676  12.525  21.285  0.00  0.00    +0.000 N 
ATOM     34  C   UNL     1      -6.659  11.625  20.730  0.00  0.00    +0.000 C 
ATOM     35  C   UNL     1      -7.892  11.929  21.609  0.00  0.00    +0.000 C 
ATOM     36  C   UNL     1      -7.341  12.517  22.935  0.00  0.00    +0.000 C 
ENDBRANCH  28  29
ENDBRANCH  26  28
ENDBRANCH   3  24
TORSDOF 5
ENDMDL
MODEL 8
REMARK VINA RESULT:      -8.7      4.995     12.119
REMARK  Name = 
REMARK  7 active torsions:
REMARK  status: ('A' for Active; 'I' for Inactive)
REMARK    1  A    between atoms: C_1  and  C_2
REMARK    2  A    between atoms: C_5  and  C_6
REMARK    3  A    between atoms: C_10  and  C_11
REMARK    4  A    between atoms: C_13  and  C_14
REMARK    5  A    between atoms: N_16  and  C_17
REMARK    6  A    between atoms: C_17  and  C_18
REMARK    7  A    between atoms: C_27  and  C_28
REMARK                            x       y       z     vdW  Elec       q    Type
REMARK                         _______ _______ _______ _____ _____    ______ ____
ROOT
ATOM      1  C   UNL     1      -1.049  10.921  19.007  0.00  0.00    +0.000 A 
ATOM      2  N   UNL     1      -2.344  10.584  18.639  0.00  0.00    +0.000 NA
ATOM      3  C   UNL     1      -2.995  11.729  18.537  0.00  0.00    +0.000 A 
ATOM      4  N   UNL     1      -2.154  12.786  18.769  0.00  0.00    +0.000 N 
ATOM      5  C   UNL     1      -0.910  12.298  19.081  0.00  0.00    +0.000 A 
ATOM      6  C   UNL     1       0.223  13.208  19.377  0.00  0.00    +0.000 C 
ATOM      7  H   UNL     1      -2.440  13.755  18.733  0.00  0.00    +0.000 HD
ENDROOT
BRANCH   1  12
ATOM      8  C   UNL     1       3.406   6.926  18.366  0.00  0.00    +0.000 A 
ATOM      9  C   UNL     1       2.734   7.852  17.598  0.00  0.00    +0.000 A 
ATOM     10  C   UNL     1       1.781   8.502  18.428  0.00  0.00    +0.000 A 
ATOM     11  C   UNL     1       0.799   9.490  18.203  0.00  0.00    +0.000 A 
ATOM     12  C   UNL     1      -0.016   9.922  19.263  0.00  0.00    +0.000 A 
ATOM     13  C   UNL     1       0.165   9.356  20.531  0.00  0.00    +0.000 A 
ATOM     14  C   UNL     1       1.144   8.386  20.786  0.00  0.00    +0.000 A 
ATOM     15  C   UNL     1       1.928   7.971  19.708  0.00  0.00    +0.000 A 
ATOM     16  N   UNL     1       2.921   7.022  19.645  0.00  0.00    +0.000 N 
ATOM     17  H   UNL     1       3.238   6.450  20.420  0.00  0.00    +0.000 HD
BRANCH   8  22
ATOM     18  C   UNL     1       6.209   3.896  15.811  0.00  0.00    +0.000 C 
ATOM     19  C   UNL     1       5.649   4.677  16.930  0.00  0.00    +0.000 A 
ATOM     20  N   UNL     1       6.196   4.670  18.149  0.00  0.00    +0.000 NA
ATOM     21  O   UNL     1       5.377   5.539  18.868  0.00  0.00    +0.000 OA
ATOM     22  C   UNL     1       4.415   5.988  18.001  0.00  0.00    +0.000 A 
ATOM     23  N   UNL     1       4.541   5.476  16.794  0.00  0.00    +0.000 NA
ENDBRANCH   8  22
ENDBRANCH   1  12
BRANCH   3  24
ATOM     24  C   UNL     1      -4.409  11.903  18.264  0.00  0.00    +0.000 C 
ATOM     25  O   UNL     1      -5.007  11.216  17.439  0.00  0.00    +0.000 OA
ATOM     26  N   UNL     1      -5.032  12.905  18.978  0.00  0.00    +0.000 N 
ATOM     27  H   UNL     1      -4.530  13.275  19.779  0.00  0.00    +0.000 HD
BRANCH  26  28
ATOM     28  C   UNL     1      -6.448  13.121  18.802  0.00  0.00    +0.000 C 
BRANCH  28  29
ATOM     29  C   UNL     1      -6.728  14.209  17.839  0.00  0.00    +0.000 A 
ATOM     30  N   UNL     1      -6.929  14.085  16.533  0.00  0.00    +0.000 NA
ATOM     31  N   UNL     1      -7.048  15.354  15.970  0.00  0.00    +0.000 NA
ATOM     32  C   UNL     1      -6.920  16.200  16.954  0.00  0.00    +0.000 A 
ATOM     33  N   UNL     1      -6.730  15.528  18.117  0.00  0.00    +0.000 N 
ATOM     34  C   UNL     1      -6.580  16.400  19.258  0.00  0.00    +0.000 C 
ATOM     35  C   UNL     1      -7.093  17.743  18.694  0.00  0.00    +0.000 C 
ATOM     36  C   UNL     1      -6.921  17.656  17.154  0.00  0.00    +0.000 C 
ENDBRANCH  28  29
ENDBRANCH  26  28
ENDBRANCH   3  24
TORSDOF 5
ENDMDL
MODEL 9
REMARK VINA RESULT:      -8.7      1.980      3.429
REMARK  Name = 
REMARK  7 active torsions:
REMARK  status: ('A' for Active; 'I' for Inactive)
REMARK    1  A    between atoms: C_1  and  C_2
REMARK    2  A    between atoms: C_5  and  C_6
REMARK    3  A    between atoms: C_10  and  C_11
REMARK    4  A    between atoms: C_13  and  C_14
REMARK    5  A    between atoms: N_16  and  C_17
REMARK    6  A    between atoms: C_17  and  C_18
REMARK    7  A    between atoms: C_27  and  C_28
REMARK                            x       y       z     vdW  Elec       q    Type
REMARK                         _______ _______ _______ _____ _____    ______ ____
ROOT
ATOM      1  C   UNL     1       2.643   6.497  19.331  0.00  0.00    +0.000 A 
ATOM      2  N   UNL     1       3.697   6.291  18.452  0.00  0.00    +0.000 NA
ATOM      3  C   UNL     1       4.029   5.019  18.584  0.00  0.00    +0.000 A 
ATOM      4  N   UNL     1       3.194   4.391  19.471  0.00  0.00    +0.000 N 
ATOM      5  C   UNL     1       2.307   5.312  19.969  0.00  0.00    +0.000 A 
ATOM      6  C   UNL     1       1.267   4.927  20.952  0.00  0.00    +0.000 C 
ATOM      7  H   UNL     1       3.261   3.412  19.714  0.00  0.00    +0.000 HD
ENDROOT
BRANCH   1  12
ATOM      8  C   UNL     1      -0.411  11.167  21.584  0.00  0.00    +0.000 A 
ATOM      9  C   UNL     1       0.041   9.934  22.002  0.00  0.00    +0.000 A 
ATOM     10  C   UNL     1       0.751   9.339  20.924  0.00  0.00    +0.000 A 
ATOM     11  C   UNL     1       1.394   8.096  20.741  0.00  0.00    +0.000 A 
ATOM     12  C   UNL     1       2.010   7.799  19.515  0.00  0.00    +0.000 A 
ATOM     13  C   UNL     1       1.971   8.751  18.488  0.00  0.00    +0.000 A 
ATOM     14  C   UNL     1       1.354  10.000  18.648  0.00  0.00    +0.000 A 
ATOM     15  C   UNL     1       0.742  10.258  19.875  0.00  0.00    +0.000 A 
ATOM     16  N   UNL     1       0.036  11.358  20.302  0.00  0.00    +0.000 N 
ATOM     17  H   UNL     1      -0.157  12.184  19.747  0.00  0.00    +0.000 HD
BRANCH   8  22
ATOM     18  C   UNL     1      -3.792  13.232  24.389  0.00  0.00    +0.000 C 
ATOM     19  C   UNL     1      -2.653  13.058  23.470  0.00  0.00    +0.000 A 
ATOM     20  N   UNL     1      -1.927  14.089  23.028  0.00  0.00    +0.000 NA
ATOM     21  O   UNL     1      -0.967  13.479  22.222  0.00  0.00    +0.000 OA
ATOM     22  C   UNL     1      -1.211  12.131  22.264  0.00  0.00    +0.000 A 
ATOM     23  N   UNL     1      -2.248  11.825  23.018  0.00  0.00    +0.000 NA
ENDBRANCH   8  22
ENDBRANCH   1  12
BRANCH   3  24
ATOM     24  C   UNL     1       5.139   4.340  17.942  0.00  0.00    +0.000 C 
ATOM     25  O   UNL     1       6.209   4.147  18.514  0.00  0.00    +0.000 OA
ATOM     26  N   UNL     1       4.918   3.946  16.639  0.00  0.00    +0.000 N 
ATOM     27  H   UNL     1       3.955   3.951  16.317  0.00  0.00    +0.000 HD
BRANCH  26  28
ATOM     28  C   UNL     1       5.952   3.228  15.934  0.00  0.00    +0.000 C 
BRANCH  28  29
ATOM     29  C   UNL     1       6.739   4.112  15.047  0.00  0.00    +0.000 A 
ATOM     30  N   UNL     1       7.519   5.120  15.415  0.00  0.00    +0.000 NA
ATOM     31  N   UNL     1       7.991   5.768  14.276  0.00  0.00    +0.000 NA
ATOM     32  C   UNL     1       7.484   5.129  13.260  0.00  0.00    +0.000 A 
ATOM     33  N   UNL     1       6.716   4.101  13.700  0.00  0.00    +0.000 N 
ATOM     34  C   UNL     1       6.118   3.340  12.628  0.00  0.00    +0.000 C 
ATOM     35  C   UNL     1       6.942   3.815  11.411  0.00  0.00    +0.000 C 
ATOM     36  C   UNL     1       7.508   5.209  11.792  0.00  0.00    +0.000 C 
ENDBRANCH  28  29
ENDBRANCH  26  28
ENDBRANCH   3  24
TORSDOF 5
ENDMDL
