MODEL 1
REMARK VINA RESULT:      -7.0      0.000      0.000
REMARK  Name = 
REMARK  5 active torsions:
REMARK  status: ('A' for Active; 'I' for Inactive)
REMARK    1  A    between atoms: C_1  and  O_2
REMARK    2  A    between atoms: O_2  and  C_3
REMARK    3  A    between atoms: C_6  and  S_7
REMARK    4  A    between atoms: S_7  and  C_10
REMARK    5  A    between atoms: C_11  and  C_12
REMARK                            x       y       z     vdW  Elec       q    Type
REMARK                         _______ _______ _______ _____ _____    ______ ____
ROOT
ATOM      1  S   UNL     1       6.931   5.086  17.778  0.00  0.00    +0.000 S 
ATOM      2  O   UNL     1       8.146   4.452  18.255  0.00  0.00    +0.000 OA
ATOM      3  O   UNL     1       6.778   6.526  17.849  0.00  0.00    +0.000 OA
ENDROOT
BRANCH   1   7
ATOM      4  C   UNL     1       6.364   3.989  13.352  0.00  0.00    +0.000 A 
ATOM      5  C   UNL     1       5.583   3.390  14.343  0.00  0.00    +0.000 A 
ATOM      6  C   UNL     1       5.762   3.720  15.690  0.00  0.00    +0.000 A 
ATOM      7  C   UNL     1       6.756   4.635  16.052  0.00  0.00    +0.000 A 
ATOM      8  C   UNL     1       7.535   5.252  15.067  0.00  0.00    +0.000 A 
ATOM      9  C   UNL     1       7.342   4.918  13.717  0.00  0.00    +0.000 A 
BRANCH   4  11
ATOM     10  C   UNL     1       4.742   3.273  11.784  0.00  0.00    +0.000 C 
ATOM     11  O   UNL     1       6.104   3.572  12.075  0.00  0.00    +0.000 OA
ENDBRANCH   4  11
ENDBRANCH   1   7
BRANCH   1  12
ATOM     12  C   UNL     1       5.566   4.340  18.543  0.00  0.00    +0.000 C 
ATOM     13  C   UNL     1       4.428   5.035  18.694  0.00  0.00    +0.000 C 
BRANCH  13  14
ATOM     14  C   UNL     1       3.246   4.450  19.355  0.00  0.00    +0.000 A 
ATOM     15  N   UNL     1       3.148   3.094  19.293  0.00  0.00    +0.000 NA
ATOM     16  C   UNL     1       2.097   2.514  19.913  0.00  0.00    +0.000 A 
ATOM     17  C   UNL     1       1.123   3.217  20.601  0.00  0.00    +0.000 A 
ATOM     18  C   UNL     1       1.226   4.603  20.651  0.00  0.00    +0.000 A 
ATOM     19  C   UNL     1       2.299   5.228  20.018  0.00  0.00    +0.000 A 
ATOM     20  F   UNL     1       2.400   6.565  20.074  0.00  0.00    +0.000 F 
ENDBRANCH  13  14
ENDBRANCH   1  12
TORSDOF 4
ENDMDL
MODEL 2
REMARK VINA RESULT:      -7.0      3.366      4.386
REMARK  Name = 
REMARK  5 active torsions:
REMARK  status: ('A' for Active; 'I' for Inactive)
REMARK    1  A    between atoms: C_1  and  O_2
REMARK    2  A    between atoms: O_2  and  C_3
REMARK    3  A    between atoms: C_6  and  S_7
REMARK    4  A    between atoms: S_7  and  C_10
REMARK    5  A    between atoms: C_11  and  C_12
REMARK                            x       y       z     vdW  Elec       q    Type
REMARK                         _______ _______ _______ _____ _____    ______ ____
ROOT
ATOM      1  S   UNL     1       2.913   3.698  19.019  0.00  0.00    +0.000 S 
ATOM      2  O   UNL     1       2.107   2.722  18.309  0.00  0.00    +0.000 OA
ATOM      3  O   UNL     1       3.374   3.427  20.368  0.00  0.00    +0.000 OA
ENDROOT
BRANCH   1   7
ATOM      4  C   UNL     1       6.609   4.537  16.421  0.00  0.00    +0.000 A 
ATOM      5  C   UNL     1       5.386   4.197  15.838  0.00  0.00    +0.000 A 
ATOM      6  C   UNL     1       4.265   3.935  16.631  0.00  0.00    +0.000 A 
ATOM      7  C   UNL     1       4.377   3.982  18.024  0.00  0.00    +0.000 A 
ATOM      8  C   UNL     1       5.592   4.334  18.619  0.00  0.00    +0.000 A 
ATOM      9  C   UNL     1       6.710   4.602  17.814  0.00  0.00    +0.000 A 
BRANCH   4  11
ATOM     10  C   UNL     1       7.254   4.947  14.182  0.00  0.00    +0.000 C 
ATOM     11  O   UNL     1       7.634   4.755  15.541  0.00  0.00    +0.000 OA
ENDBRANCH   4  11
ENDBRANCH   1   7
BRANCH   1  12
ATOM     12  C   UNL     1       2.096   5.225  19.004  0.00  0.00    +0.000 C 
ATOM     13  C   UNL     1       2.694   6.304  19.531  0.00  0.00    +0.000 C 
BRANCH  13  14
ATOM     14  C   UNL     1       2.032   7.622  19.558  0.00  0.00    +0.000 A 
ATOM     15  N   UNL     1       1.451   7.964  20.741  0.00  0.00    +0.000 NA
ATOM     16  C   UNL     1       0.861   9.177  20.819  0.00  0.00    +0.000 A 
ATOM     17  C   UNL     1       0.816  10.082  19.773  0.00  0.00    +0.000 A 
ATOM     18  C   UNL     1       1.405   9.721  18.567  0.00  0.00    +0.000 A 
ATOM     19  C   UNL     1       2.018   8.475  18.457  0.00  0.00    +0.000 A 
ATOM     20  F   UNL     1       2.592   8.131  17.293  0.00  0.00    +0.000 F 
ENDBRANCH  13  14
ENDBRANCH   1  12
TORSDOF 4
ENDMDL
MODEL 3
REMARK VINA RESULT:      -7.0      1.342      1.563
REMARK  Name = 
REMARK  5 active torsions:
REMARK  status: ('A' for Active; 'I' for Inactive)
REMARK    1  A    between atoms: C_1  and  O_2
REMARK    2  A    between atoms: O_2  and  C_3
REMARK    3  A    between atoms: C_6  and  S_7
REMARK    4  A    between atoms: S_7  and  C_10
REMARK    5  A    between atoms: C_11  and  C_12
REMARK                            x       y       z     vdW  Elec       q    Type
REMARK                         _______ _______ _______ _____ _____    ______ ____
ROOT
ATOM      1  S   UNL     1       6.929   5.346  17.698  0.00  0.00    +0.000 S 
ATOM      2  O   UNL     1       7.837   4.415  18.343  0.00  0.00    +0.000 OA
ATOM      3  O   UNL     1       7.250   6.759  17.633  0.00  0.00    +0.000 OA
ENDROOT
BRANCH   1   7
ATOM      4  C   UNL     1       6.308   3.981  13.354  0.00  0.00    +0.000 A 
ATOM      5  C   UNL     1       5.466   3.530  14.373  0.00  0.00    +0.000 A 
ATOM      6  C   UNL     1       5.661   3.941  15.695  0.00  0.00    +0.000 A 
ATOM      7  C   UNL     1       6.730   4.787  16.006  0.00  0.00    +0.000 A 
ATOM      8  C   UNL     1       7.573   5.255  14.992  0.00  0.00    +0.000 A 
ATOM      9  C   UNL     1       7.364   4.841  13.667  0.00  0.00    +0.000 A 
BRANCH   4  11
ATOM     10  C   UNL     1       4.645   3.280  11.824  0.00  0.00    +0.000 C 
ATOM     11  O   UNL     1       6.024   3.495  12.107  0.00  0.00    +0.000 OA
ENDBRANCH   4  11
ENDBRANCH   1   7
BRANCH   1  12
ATOM     12  C   UNL     1       5.348   5.163  18.384  0.00  0.00    +0.000 C 
ATOM     13  C   UNL     1       5.043   4.045  19.061  0.00  0.00    +0.000 C 
BRANCH  13  14
ATOM     14  C   UNL     1       3.707   3.835  19.648  0.00  0.00    +0.000 A 
ATOM     15  N   UNL     1       2.737   4.690  19.223  0.00  0.00    +0.000 NA
ATOM     16  C   UNL     1       1.490   4.513  19.711  0.00  0.00    +0.000 A 
ATOM     17  C   UNL     1       1.148   3.519  20.612  0.00  0.00    +0.000 A 
ATOM     18  C   UNL     1       2.146   2.656  21.048  0.00  0.00    +0.000 A 
ATOM     19  C   UNL     1       3.443   2.817  20.562  0.00  0.00    +0.000 A 
ATOM     20  F   UNL     1       4.404   1.979  20.979  0.00  0.00    +0.000 F 
ENDBRANCH  13  14
ENDBRANCH   1  12
TORSDOF 4
ENDMDL
MODEL 4
REMARK VINA RESULT:      -7.0      1.214      1.262
REMARK  Name = 
REMARK  5 active torsions:
REMARK  status: ('A' for Active; 'I' for Inactive)
REMARK    1  A    between atoms: C_1  and  O_2
REMARK    2  A    between atoms: O_2  and  C_3
REMARK    3  A    between atoms: C_6  and  S_7
REMARK    4  A    between atoms: S_7  and  C_10
REMARK    5  A    between atoms: C_11  and  C_12
REMARK                            x       y       z     vdW  Elec       q    Type
REMARK                         _______ _______ _______ _____ _____    ______ ____
ROOT
ATOM      1  S   UNL     1       6.642   5.307  17.768  0.00  0.00    +0.000 S 
ATOM      2  O   UNL     1       7.595   4.431  18.423  0.00  0.00    +0.000 OA
ATOM      3  O   UNL     1       6.861   6.741  17.743  0.00  0.00    +0.000 OA
ENDROOT
BRANCH   1   7
ATOM      4  C   UNL     1       6.270   4.016  13.373  0.00  0.00    +0.000 A 
ATOM      5  C   UNL     1       5.315   3.629  14.317  0.00  0.00    +0.000 A 
ATOM      6  C   UNL     1       5.434   4.017  15.654  0.00  0.00    +0.000 A 
ATOM      7  C   UNL     1       6.538   4.774  16.059  0.00  0.00    +0.000 A 
ATOM      8  C   UNL     1       7.494   5.178  15.122  0.00  0.00    +0.000 A 
ATOM      9  C   UNL     1       7.362   4.788  13.780  0.00  0.00    +0.000 A 
BRANCH   4  11
ATOM     10  C   UNL     1       4.701   3.236  11.783  0.00  0.00    +0.000 C 
ATOM     11  O   UNL     1       6.051   3.561  12.102  0.00  0.00    +0.000 OA
ENDBRANCH   4  11
ENDBRANCH   1   7
BRANCH   1  12
ATOM     12  C   UNL     1       5.058   4.995  18.398  0.00  0.00    +0.000 C 
ATOM     13  C   UNL     1       4.781   3.797  18.935  0.00  0.00    +0.000 C 
BRANCH  13  14
ATOM     14  C   UNL     1       3.444   3.478  19.469  0.00  0.00    +0.000 A 
ATOM     15  N   UNL     1       3.402   3.142  20.787  0.00  0.00    +0.000 NA
ATOM     16  C   UNL     1       2.191   2.874  21.325  0.00  0.00    +0.000 A 
ATOM     17  C   UNL     1       1.004   2.920  20.615  0.00  0.00    +0.000 A 
ATOM     18  C   UNL     1       1.058   3.255  19.267  0.00  0.00    +0.000 A 
ATOM     19  C   UNL     1       2.293   3.535  18.685  0.00  0.00    +0.000 A 
ATOM     20  F   UNL     1       2.342   3.865  17.385  0.00  0.00    +0.000 F 
ENDBRANCH  13  14
ENDBRANCH   1  12
TORSDOF 4
ENDMDL
MODEL 5
REMARK VINA RESULT:      -7.0      1.366      1.912
REMARK  Name = 
REMARK  5 active torsions:
REMARK  status: ('A' for Active; 'I' for Inactive)
REMARK    1  A    between atoms: C_1  and  O_2
REMARK    2  A    between atoms: O_2  and  C_3
REMARK    3  A    between atoms: C_6  and  S_7
REMARK    4  A    between atoms: S_7  and  C_10
REMARK    5  A    between atoms: C_11  and  C_12
REMARK                            x       y       z     vdW  Elec       q    Type
REMARK                         _______ _______ _______ _____ _____    ______ ____
ROOT
ATOM      1  S   UNL     1       6.796   5.419  17.792  0.00  0.00    +0.000 S 
ATOM      2  O   UNL     1       7.749   4.493  18.376  0.00  0.00    +0.000 OA
ATOM      3  O   UNL     1       7.090   6.838  17.738  0.00  0.00    +0.000 OA
ENDROOT
BRANCH   1   7
ATOM      4  C   UNL     1       6.202   3.968  13.473  0.00  0.00    +0.000 A 
ATOM      5  C   UNL     1       7.329   4.713  13.829  0.00  0.00    +0.000 A 
ATOM      6  C   UNL     1       7.504   5.159  15.143  0.00  0.00    +0.000 A 
ATOM      7  C   UNL     1       6.525   4.885  16.102  0.00  0.00    +0.000 A 
ATOM      8  C   UNL     1       5.399   4.130  15.760  0.00  0.00    +0.000 A 
ATOM      9  C   UNL     1       5.236   3.681  14.440  0.00  0.00    +0.000 A 
BRANCH   4  11
ATOM     10  C   UNL     1       4.884   3.096  11.712  0.00  0.00    +0.000 C 
ATOM     11  O   UNL     1       6.139   3.603  12.155  0.00  0.00    +0.000 OA
ENDBRANCH   4  11
ENDBRANCH   1   7
BRANCH   1  12
ATOM     12  C   UNL     1       5.254   5.197  18.551  0.00  0.00    +0.000 C 
ATOM     13  C   UNL     1       4.938   4.004  19.077  0.00  0.00    +0.000 C 
BRANCH  13  14
ATOM     14  C   UNL     1       3.631   3.761  19.717  0.00  0.00    +0.000 A 
ATOM     15  N   UNL     1       2.619   4.576  19.314  0.00  0.00    +0.000 NA
ATOM     16  C   UNL     1       1.397   4.366  19.852  0.00  0.00    +0.000 A 
ATOM     17  C   UNL     1       1.122   3.378  20.781  0.00  0.00    +0.000 A 
ATOM     18  C   UNL     1       2.164   2.555  21.193  0.00  0.00    +0.000 A 
ATOM     19  C   UNL     1       3.436   2.751  20.657  0.00  0.00    +0.000 A 
ATOM     20  F   UNL     1       4.440   1.951  21.051  0.00  0.00    +0.000 F 
ENDBRANCH  13  14
ENDBRANCH   1  12
TORSDOF 4
ENDMDL
MODEL 6
REMARK VINA RESULT:      -7.0      2.746      4.404
REMARK  Name = 
REMARK  5 active torsions:
REMARK  status: ('A' for Active; 'I' for Inactive)
REMARK    1  A    between atoms: C_1  and  O_2
REMARK    2  A    between atoms: O_2  and  C_3
REMARK    3  A    between atoms: C_6  and  S_7
REMARK    4  A    between atoms: S_7  and  C_10
REMARK    5  A    between atoms: C_11  and  C_12
REMARK                            x       y       z     vdW  Elec       q    Type
REMARK                         _______ _______ _______ _____ _____    ______ ____
ROOT
ATOM      1  S   UNL     1       5.839   4.538  16.068  0.00  0.00    +0.000 S 
ATOM      2  O   UNL     1       5.012   5.304  15.154  0.00  0.00    +0.000 OA
ATOM      3  O   UNL     1       6.774   3.552  15.561  0.00  0.00    +0.000 OA
ENDROOT
BRANCH   1   7
ATOM      4  C   UNL     1       8.195   7.632  18.517  0.00  0.00    +0.000 A 
ATOM      5  C   UNL     1       7.523   8.004  17.349  0.00  0.00    +0.000 A 
ATOM      6  C   UNL     1       6.813   7.059  16.603  0.00  0.00    +0.000 A 
ATOM      7  C   UNL     1       6.802   5.722  17.010  0.00  0.00    +0.000 A 
ATOM      8  C   UNL     1       7.460   5.340  18.183  0.00  0.00    +0.000 A 
ATOM      9  C   UNL     1       8.165   6.297  18.929  0.00  0.00    +0.000 A 
BRANCH   4  11
ATOM     10  C   UNL     1       8.844   9.907  18.494  0.00  0.00    +0.000 C 
ATOM     11  O   UNL     1       8.866   8.643  19.149  0.00  0.00    +0.000 OA
ENDBRANCH   4  11
ENDBRANCH   1   7
BRANCH   1  12
ATOM     12  C   UNL     1       4.824   3.788  17.256  0.00  0.00    +0.000 C 
ATOM     13  C   UNL     1       3.801   4.475  17.785  0.00  0.00    +0.000 C 
BRANCH  13  14
ATOM     14  C   UNL     1       2.921   3.886  18.812  0.00  0.00    +0.000 A 
ATOM     15  N   UNL     1       3.549   3.405  19.920  0.00  0.00    +0.000 NA
ATOM     16  C   UNL     1       2.777   2.886  20.900  0.00  0.00    +0.000 A 
ATOM     17  C   UNL     1       1.396   2.817  20.839  0.00  0.00    +0.000 A 
ATOM     18  C   UNL     1       0.764   3.303  19.701  0.00  0.00    +0.000 A 
ATOM     19  C   UNL     1       1.535   3.841  18.673  0.00  0.00    +0.000 A 
ATOM     20  F   UNL     1       0.922   4.316  17.577  0.00  0.00    +0.000 F 
ENDBRANCH  13  14
ENDBRANCH   1  12
TORSDOF 4
ENDMDL
MODEL 7
REMARK VINA RESULT:      -6.9      3.203      4.003
REMARK  Name = 
REMARK  5 active torsions:
REMARK  status: ('A' for Active; 'I' for Inactive)
REMARK    1  A    between atoms: C_1  and  O_2
REMARK    2  A    between atoms: O_2  and  C_3
REMARK    3  A    between atoms: C_6  and  S_7
REMARK    4  A    between atoms: S_7  and  C_10
REMARK    5  A    between atoms: C_11  and  C_12
REMARK                            x       y       z     vdW  Elec       q    Type
REMARK                         _______ _______ _______ _____ _____    ______ ____
ROOT
ATOM      1  S   UNL     1       3.442   3.767  18.430  0.00  0.00    +0.000 S 
ATOM      2  O   UNL     1       2.672   2.735  17.760  0.00  0.00    +0.000 OA
ATOM      3  O   UNL     1       3.994   3.529  19.750  0.00  0.00    +0.000 OA
ENDROOT
BRANCH   1   7
ATOM      4  C   UNL     1       6.926   4.888  15.651  0.00  0.00    +0.000 A 
ATOM      5  C   UNL     1       5.663   4.589  15.132  0.00  0.00    +0.000 A 
ATOM      6  C   UNL     1       4.607   4.241  15.979  0.00  0.00    +0.000 A 
ATOM      7  C   UNL     1       4.824   4.160  17.358  0.00  0.00    +0.000 A 
ATOM      8  C   UNL     1       6.080   4.469  17.890  0.00  0.00    +0.000 A 
ATOM      9  C   UNL     1       7.132   4.823  17.031  0.00  0.00    +0.000 A 
BRANCH   4  11
ATOM     10  C   UNL     1       7.489   5.051  13.358  0.00  0.00    +0.000 C 
ATOM     11  O   UNL     1       7.879   5.197  14.720  0.00  0.00    +0.000 OA
ENDBRANCH   4  11
ENDBRANCH   1   7
BRANCH   1  12
ATOM     12  C   UNL     1       2.515   5.230  18.467  0.00  0.00    +0.000 C 
ATOM     13  C   UNL     1       3.061   6.350  18.964  0.00  0.00    +0.000 C 
BRANCH  13  14
ATOM     14  C   UNL     1       2.306   7.616  19.034  0.00  0.00    +0.000 A 
ATOM     15  N   UNL     1       2.305   8.363  17.896  0.00  0.00    +0.000 NA
ATOM     16  C   UNL     1       1.599   9.514  17.906  0.00  0.00    +0.000 A 
ATOM     17  C   UNL     1       0.883   9.972  18.999  0.00  0.00    +0.000 A 
ATOM     18  C   UNL     1       0.897   9.207  20.160  0.00  0.00    +0.000 A 
ATOM     19  C   UNL     1       1.620   8.015  20.179  0.00  0.00    +0.000 A 
ATOM     20  F   UNL     1       1.627   7.274  21.298  0.00  0.00    +0.000 F 
ENDBRANCH  13  14
ENDBRANCH   1  12
TORSDOF 4
ENDMDL
MODEL 8
REMARK VINA RESULT:      -6.9      2.959      3.822
REMARK  Name = 
REMARK  5 active torsions:
REMARK  status: ('A' for Active; 'I' for Inactive)
REMARK    1  A    between atoms: C_1  and  O_2
REMARK    2  A    between atoms: O_2  and  C_3
REMARK    3  A    between atoms: C_6  and  S_7
REMARK    4  A    between atoms: S_7  and  C_10
REMARK    5  A    between atoms: C_11  and  C_12
REMARK                            x       y       z     vdW  Elec       q    Type
REMARK                         _______ _______ _______ _____ _____    ______ ____
ROOT
ATOM      1  S   UNL     1       4.316   3.926  18.893  0.00  0.00    +0.000 S 
ATOM      2  O   UNL     1       3.231   3.106  18.387  0.00  0.00    +0.000 OA
ATOM      3  O   UNL     1       5.237   3.397  19.882  0.00  0.00    +0.000 OA
ENDROOT
BRANCH   1   7
ATOM      4  C   UNL     1       6.953   5.098  15.317  0.00  0.00    +0.000 A 
ATOM      5  C   UNL     1       7.179   5.644  16.583  0.00  0.00    +0.000 A 
ATOM      6  C   UNL     1       6.372   5.292  17.667  0.00  0.00    +0.000 A 
ATOM      7  C   UNL     1       5.305   4.408  17.477  0.00  0.00    +0.000 A 
ATOM      8  C   UNL     1       5.075   3.845  16.218  0.00  0.00    +0.000 A 
ATOM      9  C   UNL     1       5.897   4.201  15.136  0.00  0.00    +0.000 A 
BRANCH   4  11
ATOM     10  C   UNL     1       7.571   4.998  13.035  0.00  0.00    +0.000 C 
ATOM     11  O   UNL     1       7.800   5.534  14.335  0.00  0.00    +0.000 OA
ENDBRANCH   4  11
ENDBRANCH   1   7
BRANCH   1  12
ATOM     12  C   UNL     1       3.669   5.424  19.478  0.00  0.00    +0.000 C 
ATOM     13  C   UNL     1       2.664   6.017  18.815  0.00  0.00    +0.000 C 
BRANCH  13  14
ATOM     14  C   UNL     1       2.092   7.300  19.263  0.00  0.00    +0.000 A 
ATOM     15  N   UNL     1       1.687   7.342  20.562  0.00  0.00    +0.000 NA
ATOM     16  C   UNL     1       1.187   8.510  21.022  0.00  0.00    +0.000 A 
ATOM     17  C   UNL     1       1.064   9.654  20.253  0.00  0.00    +0.000 A 
ATOM     18  C   UNL     1       1.471   9.599  18.925  0.00  0.00    +0.000 A 
ATOM     19  C   UNL     1       1.989   8.407  18.422  0.00  0.00    +0.000 A 
ATOM     20  F   UNL     1       2.389   8.358  17.141  0.00  0.00    +0.000 F 
ENDBRANCH  13  14
ENDBRANCH   1  12
TORSDOF 4
ENDMDL
MODEL 9
REMARK VINA RESULT:      -6.8      1.431      1.591
REMARK  Name = 
REMARK  5 active torsions:
REMARK  status: ('A' for Active; 'I' for Inactive)
REMARK    1  A    between atoms: C_1  and  O_2
REMARK    2  A    between atoms: O_2  and  C_3
REMARK    3  A    between atoms: C_6  and  S_7
REMARK    4  A    between atoms: S_7  and  C_10
REMARK    5  A    between atoms: C_11  and  C_12
REMARK                            x       y       z     vdW  Elec       q    Type
REMARK                         _______ _______ _______ _____ _____    ______ ____
ROOT
ATOM      1  S   UNL     1       6.567   5.878  17.124  0.00  0.00    +0.000 S 
ATOM      2  O   UNL     1       7.867   5.546  17.675  0.00  0.00    +0.000 OA
ATOM      3  O   UNL     1       6.204   7.262  16.884  0.00  0.00    +0.000 OA
ENDROOT
BRANCH   1   7
ATOM      4  C   UNL     1       6.142   3.789  13.053  0.00  0.00    +0.000 A 
ATOM      5  C   UNL     1       5.196   3.590  14.062  0.00  0.00    +0.000 A 
ATOM      6  C   UNL     1       5.332   4.221  15.302  0.00  0.00    +0.000 A 
ATOM      7  C   UNL     1       6.442   5.035  15.546  0.00  0.00    +0.000 A 
ATOM      8  C   UNL     1       7.388   5.252  14.540  0.00  0.00    +0.000 A 
ATOM      9  C   UNL     1       7.240   4.619  13.296  0.00  0.00    +0.000 A 
BRANCH   4  11
ATOM     10  C   UNL     1       4.558   3.100  11.436  0.00  0.00    +0.000 C 
ATOM     11  O   UNL     1       5.907   3.105  11.892  0.00  0.00    +0.000 OA
ENDBRANCH   4  11
ENDBRANCH   1   7
BRANCH   1  12
ATOM     12  C   UNL     1       5.335   5.137  18.091  0.00  0.00    +0.000 C 
ATOM     13  C   UNL     1       4.056   5.512  17.940  0.00  0.00    +0.000 C 
BRANCH  13  14
ATOM     14  C   UNL     1       2.975   4.923  18.752  0.00  0.00    +0.000 A 
ATOM     15  N   UNL     1       2.855   5.415  20.016  0.00  0.00    +0.000 NA
ATOM     16  C   UNL     1       1.856   4.926  20.784  0.00  0.00    +0.000 A 
ATOM     17  C   UNL     1       0.957   3.962  20.360  0.00  0.00    +0.000 A 
ATOM     18  C   UNL     1       1.093   3.460  19.070  0.00  0.00    +0.000 A 
ATOM     19  C   UNL     1       2.116   3.944  18.257  0.00  0.00    +0.000 A 
ATOM     20  F   UNL     1       2.241   3.463  17.010  0.00  0.00    +0.000 F 
ENDBRANCH  13  14
ENDBRANCH   1  12
TORSDOF 4
ENDMDL
