MODEL 1
REMARK VINA RESULT:      -8.1      0.000      0.000
REMARK  Name = 
REMARK  4 active torsions:
REMARK  status: ('A' for Active; 'I' for Inactive)
REMARK    1  A    between atoms: C_2  and  C_3
REMARK    2  A    between atoms: C_8  and  N_9
REMARK    3  A    between atoms: C_11  and  C_12
REMARK    4  A    between atoms: N_16  and  C_17
REMARK                            x       y       z     vdW  Elec       q    Type
REMARK                         _______ _______ _______ _____ _____    ______ ____
ROOT
ATOM      1  N   UNL     1       4.326   5.017  18.080  0.00  0.00    +0.000 N 
ATOM      2  C   UNL     1       5.255   5.434  18.991  0.00  0.00    +0.000 A 
ATOM      3  C   UNL     1       6.402   5.736  18.284  0.00  0.00    +0.000 A 
ATOM      4  C   UNL     1       6.051   5.488  16.923  0.00  0.00    +0.000 A 
ATOM      5  N   UNL     1       6.958   5.618  15.917  0.00  0.00    +0.000 N 
ATOM      6  N   UNL     1       4.780   5.091  16.819  0.00  0.00    +0.000 NA
ATOM      7  H   UNL     1       7.893   5.931  16.189  0.00  0.00    +0.000 HD
ENDROOT
BRANCH   5   8
ATOM      8  C   UNL     1       6.913   5.109  14.601  0.00  0.00    +0.000 A 
ATOM      9  C   UNL     1       7.811   5.601  13.649  0.00  0.00    +0.000 A 
ATOM     10  C   UNL     1       7.843   5.020  12.389  0.00  0.00    +0.000 A 
ATOM     11  N   UNL     1       7.043   4.007  12.006  0.00  0.00    +0.000 NA
ATOM     12  C   UNL     1       6.163   3.570  12.927  0.00  0.00    +0.000 A 
ATOM     13  F   UNL     1       5.356   2.556  12.582  0.00  0.00    +0.000 F 
ATOM     14  C   UNL     1       6.055   4.086  14.205  0.00  0.00    +0.000 A 
ENDBRANCH   5   8
BRANCH   1  20
ATOM     15  C   UNL     1       2.910   2.946  18.130  0.00  0.00    +0.000 C 
ATOM     16  C   UNL     1       3.708   2.280  19.272  0.00  0.00    +0.000 C 
ATOM     17  C   UNL     1       3.251   2.786  20.648  0.00  0.00    +0.000 C 
ATOM     18  O   UNL     1       3.253   4.210  20.729  0.00  0.00    +0.000 OA
ATOM     19  C   UNL     1       2.467   4.851  19.718  0.00  0.00    +0.000 C 
ATOM     20  C   UNL     1       2.972   4.486  18.312  0.00  0.00    +0.000 C 
BRANCH  15  22
ATOM     21  N   UNL     1       0.288   2.072  18.442  0.00  0.00    +0.000 NA
ATOM     22  C   UNL     1       1.477   2.468  18.300  0.00  0.00    +0.000 C 
ENDBRANCH  15  22
ENDBRANCH   1  20
BRANCH   3  23
ATOM     23  C   UNL     1       7.689   6.136  18.826  0.00  0.00    +0.000 C 
ATOM     24  N   UNL     1       8.220   5.323  19.787  0.00  0.00    +0.000 N 
ATOM     25  O   UNL     1       8.279   7.147  18.459  0.00  0.00    +0.000 OA
ATOM     26  H   UNL     1       7.713   4.552  20.193  0.00  0.00    +0.000 HD
ATOM     27  H   UNL     1       9.104   5.591  20.197  0.00  0.00    +0.000 HD
ENDBRANCH   3  23
TORSDOF 4
ENDMDL
MODEL 2
REMARK VINA RESULT:      -8.1      1.085      1.536
REMARK  Name = 
REMARK  4 active torsions:
REMARK  status: ('A' for Active; 'I' for Inactive)
REMARK    1  A    between atoms: C_2  and  C_3
REMARK    2  A    between atoms: C_8  and  N_9
REMARK    3  A    between atoms: C_11  and  C_12
REMARK    4  A    between atoms: N_16  and  C_17
REMARK                            x       y       z     vdW  Elec       q    Type
REMARK                         _______ _______ _______ _____ _____    ______ ____
ROOT
ATOM      1  N   UNL     1       4.542   4.803  18.574  0.00  0.00    +0.000 N 
ATOM      2  C   UNL     1       5.498   5.314  19.406  0.00  0.00    +0.000 A 
ATOM      3  C   UNL     1       6.578   5.653  18.616  0.00  0.00    +0.000 A 
ATOM      4  C   UNL     1       6.160   5.326  17.291  0.00  0.00    +0.000 A 
ATOM      5  N   UNL     1       6.992   5.466  16.224  0.00  0.00    +0.000 N 
ATOM      6  N   UNL     1       4.911   4.849  17.285  0.00  0.00    +0.000 NA
ATOM      7  H   UNL     1       7.921   5.846  16.422  0.00  0.00    +0.000 HD
ENDROOT
BRANCH   5   8
ATOM      8  C   UNL     1       6.897   4.899  14.935  0.00  0.00    +0.000 A 
ATOM      9  C   UNL     1       6.065   3.793  14.736  0.00  0.00    +0.000 A 
ATOM     10  C   UNL     1       5.884   3.308  13.448  0.00  0.00    +0.000 A 
ATOM     11  N   UNL     1       6.478   3.829  12.357  0.00  0.00    +0.000 NA
ATOM     12  C   UNL     1       7.301   4.872  12.575  0.00  0.00    +0.000 A 
ATOM     13  F   UNL     1       7.903   5.420  11.509  0.00  0.00    +0.000 F 
ATOM     14  C   UNL     1       7.546   5.422  13.819  0.00  0.00    +0.000 A 
ENDBRANCH   5   8
BRANCH   1  20
ATOM     15  C   UNL     1       2.724   3.257  17.798  0.00  0.00    +0.000 C 
ATOM     16  C   UNL     1       3.639   2.013  17.744  0.00  0.00    +0.000 C 
ATOM     17  C   UNL     1       3.785   1.361  19.126  0.00  0.00    +0.000 C 
ATOM     18  O   UNL     1       4.184   2.296  20.127  0.00  0.00    +0.000 OA
ATOM     19  C   UNL     1       3.316   3.429  20.242  0.00  0.00    +0.000 C 
ATOM     20  C   UNL     1       3.241   4.204  18.915  0.00  0.00    +0.000 C 
BRANCH  15  22
ATOM     21  N   UNL     1       0.201   2.302  18.472  0.00  0.00    +0.000 NA
ATOM     22  C   UNL     1       1.345   2.735  18.167  0.00  0.00    +0.000 C 
ENDBRANCH  15  22
ENDBRANCH   1  20
BRANCH   3  23
ATOM     23  C   UNL     1       7.869   6.153  19.057  0.00  0.00    +0.000 C 
ATOM     24  N   UNL     1       8.495   5.431  20.034  0.00  0.00    +0.000 N 
ATOM     25  O   UNL     1       8.382   7.167  18.596  0.00  0.00    +0.000 OA
ATOM     26  H   UNL     1       8.053   4.663  20.515  0.00  0.00    +0.000 HD
ATOM     27  H   UNL     1       9.383   5.769  20.375  0.00  0.00    +0.000 HD
ENDBRANCH   3  23
TORSDOF 4
ENDMDL
MODEL 3
REMARK VINA RESULT:      -8.1      1.419      1.880
REMARK  Name = 
REMARK  4 active torsions:
REMARK  status: ('A' for Active; 'I' for Inactive)
REMARK    1  A    between atoms: C_2  and  C_3
REMARK    2  A    between atoms: C_8  and  N_9
REMARK    3  A    between atoms: C_11  and  C_12
REMARK    4  A    between atoms: N_16  and  C_17
REMARK                            x       y       z     vdW  Elec       q    Type
REMARK                         _______ _______ _______ _____ _____    ______ ____
ROOT
ATOM      1  N   UNL     1       5.010   4.510  18.228  0.00  0.00    +0.000 N 
ATOM      2  C   UNL     1       5.843   5.425  18.807  0.00  0.00    +0.000 A 
ATOM      3  C   UNL     1       6.550   6.027  17.786  0.00  0.00    +0.000 A 
ATOM      4  C   UNL     1       6.045   5.415  16.601  0.00  0.00    +0.000 A 
ATOM      5  N   UNL     1       6.550   5.711  15.372  0.00  0.00    +0.000 N 
ATOM      6  N   UNL     1       5.088   4.528  16.888  0.00  0.00    +0.000 NA
ATOM      7  H   UNL     1       7.289   6.417  15.346  0.00  0.00    +0.000 HD
ENDROOT
BRANCH   5   8
ATOM      8  C   UNL     1       6.436   4.995  14.161  0.00  0.00    +0.000 A 
ATOM      9  C   UNL     1       7.559   4.861  13.339  0.00  0.00    +0.000 A 
ATOM     10  C   UNL     1       7.475   4.062  12.208  0.00  0.00    +0.000 A 
ATOM     11  N   UNL     1       6.361   3.406  11.830  0.00  0.00    +0.000 NA
ATOM     12  C   UNL     1       5.281   3.576  12.617  0.00  0.00    +0.000 A 
ATOM     13  F   UNL     1       4.157   2.930  12.274  0.00  0.00    +0.000 F 
ATOM     14  C   UNL     1       5.267   4.352  13.760  0.00  0.00    +0.000 A 
ENDBRANCH   5   8
BRANCH   1  20
ATOM     15  C   UNL     1       3.077   4.216  19.800  0.00  0.00    +0.000 C 
ATOM     16  C   UNL     1       2.088   5.021  18.928  0.00  0.00    +0.000 C 
ATOM     17  C   UNL     1       1.485   4.153  17.813  0.00  0.00    +0.000 C 
ATOM     18  O   UNL     1       2.485   3.489  17.044  0.00  0.00    +0.000 OA
ATOM     19  C   UNL     1       3.377   2.683  17.823  0.00  0.00    +0.000 C 
ATOM     20  C   UNL     1       4.116   3.533  18.870  0.00  0.00    +0.000 C 
BRANCH  15  22
ATOM     21  N   UNL     1       1.544   2.277  21.075  0.00  0.00    +0.000 NA
ATOM     22  C   UNL     1       2.239   3.156  20.497  0.00  0.00    +0.000 C 
ENDBRANCH  15  22
ENDBRANCH   1  20
BRANCH   3  23
ATOM     23  C   UNL     1       7.619   7.003  17.913  0.00  0.00    +0.000 C 
ATOM     24  N   UNL     1       8.387   6.917  19.040  0.00  0.00    +0.000 N 
ATOM     25  O   UNL     1       7.832   7.869  17.070  0.00  0.00    +0.000 OA
ATOM     26  H   UNL     1       8.169   6.296  19.804  0.00  0.00    +0.000 HD
ATOM     27  H   UNL     1       9.123   7.598  19.164  0.00  0.00    +0.000 HD
ENDBRANCH   3  23
TORSDOF 4
ENDMDL
MODEL 4
REMARK VINA RESULT:      -8.0      1.577      2.230
REMARK  Name = 
REMARK  4 active torsions:
REMARK  status: ('A' for Active; 'I' for Inactive)
REMARK    1  A    between atoms: C_2  and  C_3
REMARK    2  A    between atoms: C_8  and  N_9
REMARK    3  A    between atoms: C_11  and  C_12
REMARK    4  A    between atoms: N_16  and  C_17
REMARK                            x       y       z     vdW  Elec       q    Type
REMARK                         _______ _______ _______ _____ _____    ______ ____
ROOT
ATOM      1  N   UNL     1       5.091   4.566  18.594  0.00  0.00    +0.000 N 
ATOM      2  C   UNL     1       5.933   5.531  19.069  0.00  0.00    +0.000 A 
ATOM      3  C   UNL     1       6.576   6.076  17.975  0.00  0.00    +0.000 A 
ATOM      4  C   UNL     1       6.025   5.378  16.860  0.00  0.00    +0.000 A 
ATOM      5  N   UNL     1       6.462   5.600  15.590  0.00  0.00    +0.000 N 
ATOM      6  N   UNL     1       5.101   4.496  17.254  0.00  0.00    +0.000 NA
ATOM      7  H   UNL     1       7.184   6.315  15.480  0.00  0.00    +0.000 HD
ENDROOT
BRANCH   5   8
ATOM      8  C   UNL     1       6.301   4.803  14.436  0.00  0.00    +0.000 A 
ATOM      9  C   UNL     1       5.098   4.117  14.244  0.00  0.00    +0.000 A 
ATOM     10  C   UNL     1       4.898   3.428  13.056  0.00  0.00    +0.000 A 
ATOM     11  N   UNL     1       5.806   3.359  12.063  0.00  0.00    +0.000 NA
ATOM     12  C   UNL     1       6.970   3.999  12.283  0.00  0.00    +0.000 A 
ATOM     13  F   UNL     1       7.893   3.958  11.311  0.00  0.00    +0.000 F 
ATOM     14  C   UNL     1       7.262   4.709  13.432  0.00  0.00    +0.000 A 
ENDBRANCH   5   8
BRANCH   1  20
ATOM     15  C   UNL     1       3.206   4.345  20.236  0.00  0.00    +0.000 C 
ATOM     16  C   UNL     1       2.167   5.031  19.321  0.00  0.00    +0.000 C 
ATOM     17  C   UNL     1       1.574   4.044  18.304  0.00  0.00    +0.000 C 
ATOM     18  O   UNL     1       2.581   3.350  17.572  0.00  0.00    +0.000 OA
ATOM     19  C   UNL     1       3.521   2.651  18.396  0.00  0.00    +0.000 C 
ATOM     20  C   UNL     1       4.250   3.619  19.344  0.00  0.00    +0.000 C 
BRANCH  15  22
ATOM     21  N   UNL     1       1.778   2.473  21.717  0.00  0.00    +0.000 NA
ATOM     22  C   UNL     1       2.425   3.322  21.046  0.00  0.00    +0.000 C 
ENDBRANCH  15  22
ENDBRANCH   1  20
BRANCH   3  23
ATOM     23  C   UNL     1       7.629   7.077  17.982  0.00  0.00    +0.000 C 
ATOM     24  N   UNL     1       8.461   7.072  19.067  0.00  0.00    +0.000 N 
ATOM     25  O   UNL     1       7.778   7.893  17.079  0.00  0.00    +0.000 OA
ATOM     26  H   UNL     1       8.298   6.495  19.878  0.00  0.00    +0.000 HD
ATOM     27  H   UNL     1       9.188   7.772  19.109  0.00  0.00    +0.000 HD
ENDBRANCH   3  23
TORSDOF 4
ENDMDL
MODEL 5
REMARK VINA RESULT:      -7.7      0.955      1.017
REMARK  Name = 
REMARK  4 active torsions:
REMARK  status: ('A' for Active; 'I' for Inactive)
REMARK    1  A    between atoms: C_2  and  C_3
REMARK    2  A    between atoms: C_8  and  N_9
REMARK    3  A    between atoms: C_11  and  C_12
REMARK    4  A    between atoms: N_16  and  C_17
REMARK                            x       y       z     vdW  Elec       q    Type
REMARK                         _______ _______ _______ _____ _____    ______ ____
ROOT
ATOM      1  N   UNL     1       4.289   5.214  17.919  0.00  0.00    +0.000 N 
ATOM      2  C   UNL     1       5.247   5.918  18.595  0.00  0.00    +0.000 A 
ATOM      3  C   UNL     1       6.231   6.235  17.680  0.00  0.00    +0.000 A 
ATOM      4  C   UNL     1       5.756   5.692  16.450  0.00  0.00    +0.000 A 
ATOM      5  N   UNL     1       6.495   5.753  15.309  0.00  0.00    +0.000 N 
ATOM      6  N   UNL     1       4.562   5.112  16.609  0.00  0.00    +0.000 NA
ATOM      7  H   UNL     1       7.394   6.236  15.378  0.00  0.00    +0.000 HD
ENDROOT
BRANCH   5   8
ATOM      8  C   UNL     1       6.367   5.005  14.118  0.00  0.00    +0.000 A 
ATOM      9  C   UNL     1       7.487   4.830  13.300  0.00  0.00    +0.000 A 
ATOM     10  C   UNL     1       7.388   4.000  12.191  0.00  0.00    +0.000 A 
ATOM     11  N   UNL     1       6.263   3.353  11.833  0.00  0.00    +0.000 NA
ATOM     12  C   UNL     1       5.187   3.561  12.616  0.00  0.00    +0.000 A 
ATOM     13  F   UNL     1       4.052   2.925  12.292  0.00  0.00    +0.000 F 
ATOM     14  C   UNL     1       5.187   4.370  13.737  0.00  0.00    +0.000 A 
ENDBRANCH   5   8
BRANCH   1  20
ATOM     15  C   UNL     1       2.687   3.308  17.607  0.00  0.00    +0.000 C 
ATOM     16  C   UNL     1       3.756   2.214  17.823  0.00  0.00    +0.000 C 
ATOM     17  C   UNL     1       3.993   1.945  19.316  0.00  0.00    +0.000 C 
ATOM     18  O   UNL     1       4.270   3.140  20.044  0.00  0.00    +0.000 OA
ATOM     19  C   UNL     1       3.261   4.147  19.913  0.00  0.00    +0.000 C 
ATOM     20  C   UNL     1       3.080   4.558  18.442  0.00  0.00    +0.000 C 
BRANCH  15  22
ATOM     21  N   UNL     1       0.314   2.237  18.584  0.00  0.00    +0.000 NA
ATOM     22  C   UNL     1       1.390   2.723  18.141  0.00  0.00    +0.000 C 
ENDBRANCH  15  22
ENDBRANCH   1  20
BRANCH   3  23
ATOM     23  C   UNL     1       7.494   6.902  17.944  0.00  0.00    +0.000 C 
ATOM     24  N   UNL     1       8.180   6.483  19.049  0.00  0.00    +0.000 N 
ATOM     25  O   UNL     1       7.935   7.797  17.231  0.00  0.00    +0.000 OA
ATOM     26  H   UNL     1       7.795   5.835  19.719  0.00  0.00    +0.000 HD
ATOM     27  H   UNL     1       9.051   6.946  19.269  0.00  0.00    +0.000 HD
ENDBRANCH   3  23
TORSDOF 4
ENDMDL
MODEL 6
REMARK VINA RESULT:      -7.7      1.093      1.240
REMARK  Name = 
REMARK  4 active torsions:
REMARK  status: ('A' for Active; 'I' for Inactive)
REMARK    1  A    between atoms: C_2  and  C_3
REMARK    2  A    between atoms: C_8  and  N_9
REMARK    3  A    between atoms: C_11  and  C_12
REMARK    4  A    between atoms: N_16  and  C_17
REMARK                            x       y       z     vdW  Elec       q    Type
REMARK                         _______ _______ _______ _____ _____    ______ ____
ROOT
ATOM      1  N   UNL     1       4.384   4.346  17.671  0.00  0.00    +0.000 N 
ATOM      2  C   UNL     1       5.357   4.431  18.627  0.00  0.00    +0.000 A 
ATOM      3  C   UNL     1       6.546   4.672  17.968  0.00  0.00    +0.000 A 
ATOM      4  C   UNL     1       6.177   4.743  16.592  0.00  0.00    +0.000 A 
ATOM      5  N   UNL     1       7.104   4.913  15.611  0.00  0.00    +0.000 N 
ATOM      6  N   UNL     1       4.859   4.581  16.439  0.00  0.00    +0.000 NA
ATOM      7  H   UNL     1       8.074   5.016  15.919  0.00  0.00    +0.000 HD
ENDROOT
BRANCH   5   8
ATOM      8  C   UNL     1       6.994   4.673  14.224  0.00  0.00    +0.000 A 
ATOM      9  C   UNL     1       7.781   5.417  13.339  0.00  0.00    +0.000 A 
ATOM     10  C   UNL     1       7.756   5.103  11.988  0.00  0.00    +0.000 A 
ATOM     11  N   UNL     1       7.001   4.122  11.456  0.00  0.00    +0.000 NA
ATOM     12  C   UNL     1       6.226   3.440  12.321  0.00  0.00    +0.000 A 
ATOM     13  F   UNL     1       5.468   2.452  11.826  0.00  0.00    +0.000 F 
ATOM     14  C   UNL     1       6.181   3.682  13.681  0.00  0.00    +0.000 A 
ENDBRANCH   5   8
BRANCH   1  20
ATOM     15  C   UNL     1       2.733   2.933  18.926  0.00  0.00    +0.000 C 
ATOM     16  C   UNL     1       3.056   3.560  20.301  0.00  0.00    +0.000 C 
ATOM     17  C   UNL     1       2.293   4.875  20.513  0.00  0.00    +0.000 C 
ATOM     18  O   UNL     1       2.476   5.788  19.433  0.00  0.00    +0.000 OA
ATOM     19  C   UNL     1       2.122   5.252  18.153  0.00  0.00    +0.000 C 
ATOM     20  C   UNL     1       2.960   4.005  17.826  0.00  0.00    +0.000 C 
BRANCH  15  22
ATOM     21  N   UNL     1       0.038   2.254  19.029  0.00  0.00    +0.000 NA
ATOM     22  C   UNL     1       1.260   2.562  18.983  0.00  0.00    +0.000 C 
ENDBRANCH  15  22
ENDBRANCH   1  20
BRANCH   3  23
ATOM     23  C   UNL     1       7.874   4.753  18.552  0.00  0.00    +0.000 C 
ATOM     24  N   UNL     1       8.013   5.588  19.625  0.00  0.00    +0.000 N 
ATOM     25  O   UNL     1       8.831   4.122  18.116  0.00  0.00    +0.000 OA
ATOM     26  H   UNL     1       7.280   6.207  19.935  0.00  0.00    +0.000 HD
ATOM     27  H   UNL     1       8.931   5.681  20.036  0.00  0.00    +0.000 HD
ENDBRANCH   3  23
TORSDOF 4
ENDMDL
MODEL 7
REMARK VINA RESULT:      -7.7      2.669      3.827
REMARK  Name = 
REMARK  4 active torsions:
REMARK  status: ('A' for Active; 'I' for Inactive)
REMARK    1  A    between atoms: C_2  and  C_3
REMARK    2  A    between atoms: C_8  and  N_9
REMARK    3  A    between atoms: C_11  and  C_12
REMARK    4  A    between atoms: N_16  and  C_17
REMARK                            x       y       z     vdW  Elec       q    Type
REMARK                         _______ _______ _______ _____ _____    ______ ____
ROOT
ATOM      1  N   UNL     1       2.619   5.516  19.656  0.00  0.00    +0.000 N 
ATOM      2  C   UNL     1       1.950   6.706  19.706  0.00  0.00    +0.000 A 
ATOM      3  C   UNL     1       2.400   7.464  18.644  0.00  0.00    +0.000 A 
ATOM      4  C   UNL     1       3.340   6.619  17.982  0.00  0.00    +0.000 A 
ATOM      5  N   UNL     1       4.051   7.046  16.904  0.00  0.00    +0.000 N 
ATOM      6  N   UNL     1       3.428   5.431  18.589  0.00  0.00    +0.000 NA
ATOM      7  H   UNL     1       3.851   7.996  16.579  0.00  0.00    +0.000 HD
ENDROOT
BRANCH   5   8
ATOM      8  C   UNL     1       5.230   6.512  16.340  0.00  0.00    +0.000 A 
ATOM      9  C   UNL     1       6.444   6.680  17.013  0.00  0.00    +0.000 A 
ATOM     10  C   UNL     1       7.580   6.057  16.517  0.00  0.00    +0.000 A 
ATOM     11  N   UNL     1       7.600   5.301  15.403  0.00  0.00    +0.000 NA
ATOM     12  C   UNL     1       6.427   5.181  14.752  0.00  0.00    +0.000 A 
ATOM     13  F   UNL     1       6.409   4.428  13.642  0.00  0.00    +0.000 F 
ATOM     14  C   UNL     1       5.245   5.764  15.166  0.00  0.00    +0.000 A 
ENDBRANCH   5   8
BRANCH   1  20
ATOM     15  C   UNL     1       1.162   3.791  20.752  0.00  0.00    +0.000 C 
ATOM     16  C   UNL     1       0.787   3.090  19.427  0.00  0.00    +0.000 C 
ATOM     17  C   UNL     1       1.870   2.092  18.992  0.00  0.00    +0.000 C 
ATOM     18  O   UNL     1       3.168   2.682  18.956  0.00  0.00    +0.000 OA
ATOM     19  C   UNL     1       3.567   3.283  20.193  0.00  0.00    +0.000 C 
ATOM     20  C   UNL     1       2.586   4.394  20.608  0.00  0.00    +0.000 C 
BRANCH  15  22
ATOM     21  N   UNL     1       1.183   1.787  22.679  0.00  0.00    +0.000 NA
ATOM     22  C   UNL     1       1.174   2.695  21.805  0.00  0.00    +0.000 C 
ENDBRANCH  15  22
ENDBRANCH   1  20
BRANCH   3  23
ATOM     23  C   UNL     1       2.046   8.838  18.331  0.00  0.00    +0.000 C 
ATOM     24  N   UNL     1       1.261   9.484  19.245  0.00  0.00    +0.000 N 
ATOM     25  O   UNL     1       2.415   9.403  17.307  0.00  0.00    +0.000 OA
ATOM     26  H   UNL     1       0.845   9.016  20.036  0.00  0.00    +0.000 HD
ATOM     27  H   UNL     1       0.981  10.432  19.041  0.00  0.00    +0.000 HD
ENDBRANCH   3  23
TORSDOF 4
ENDMDL
MODEL 8
REMARK VINA RESULT:      -7.6      6.483      8.534
REMARK  Name = 
REMARK  4 active torsions:
REMARK  status: ('A' for Active; 'I' for Inactive)
REMARK    1  A    between atoms: C_2  and  C_3
REMARK    2  A    between atoms: C_8  and  N_9
REMARK    3  A    between atoms: C_11  and  C_12
REMARK    4  A    between atoms: N_16  and  C_17
REMARK                            x       y       z     vdW  Elec       q    Type
REMARK                         _______ _______ _______ _____ _____    ______ ____
ROOT
ATOM      1  N   UNL     1      -0.378  10.416  19.118  0.00  0.00    +0.000 N 
ATOM      2  C   UNL     1      -0.633  10.788  20.408  0.00  0.00    +0.000 A 
ATOM      3  C   UNL     1       0.105   9.950  21.220  0.00  0.00    +0.000 A 
ATOM      4  C   UNL     1       0.807   9.106  20.308  0.00  0.00    +0.000 A 
ATOM      5  N   UNL     1       1.605   8.093  20.742  0.00  0.00    +0.000 N 
ATOM      6  N   UNL     1       0.529   9.430  19.042  0.00  0.00    +0.000 NA
ATOM      7  H   UNL     1       1.695   7.991  21.755  0.00  0.00    +0.000 HD
ENDROOT
BRANCH   5   8
ATOM      8  C   UNL     1       2.093   6.973  20.034  0.00  0.00    +0.000 A 
ATOM      9  C   UNL     1       1.785   5.689  20.495  0.00  0.00    +0.000 A 
ATOM     10  C   UNL     1       2.168   4.592  19.736  0.00  0.00    +0.000 A 
ATOM     11  N   UNL     1       2.842   4.678  18.573  0.00  0.00    +0.000 NA
ATOM     12  C   UNL     1       3.158   5.921  18.165  0.00  0.00    +0.000 A 
ATOM     13  F   UNL     1       3.822   6.044  17.007  0.00  0.00    +0.000 F 
ATOM     14  C   UNL     1       2.823   7.073  18.852  0.00  0.00    +0.000 A 
ENDBRANCH   5   8
BRANCH   1  20
ATOM     15  C   UNL     1      -1.926   9.873  17.219  0.00  0.00    +0.000 C 
ATOM     16  C   UNL     1      -3.168   9.698  18.121  0.00  0.00    +0.000 C 
ATOM     17  C   UNL     1      -3.824  11.048  18.445  0.00  0.00    +0.000 C 
ATOM     18  O   UNL     1      -2.891  11.992  18.966  0.00  0.00    +0.000 OA
ATOM     19  C   UNL     1      -1.761  12.221  18.118  0.00  0.00    +0.000 C 
ATOM     20  C   UNL     1      -0.982  10.918  17.873  0.00  0.00    +0.000 C 
BRANCH  15  22
ATOM     21  N   UNL     1      -2.889  10.862  14.805  0.00  0.00    +0.000 NA
ATOM     22  C   UNL     1      -2.452  10.413  15.899  0.00  0.00    +0.000 C 
ENDBRANCH  15  22
ENDBRANCH   1  20
BRANCH   3  23
ATOM     23  C   UNL     1       0.096   9.899  22.672  0.00  0.00    +0.000 C 
ATOM     24  N   UNL     1      -1.093  10.187  23.280  0.00  0.00    +0.000 N 
ATOM     25  O   UNL     1       1.091   9.622  23.334  0.00  0.00    +0.000 OA
ATOM     26  H   UNL     1      -1.896  10.529  22.776  0.00  0.00    +0.000 HD
ATOM     27  H   UNL     1      -1.122  10.181  24.290  0.00  0.00    +0.000 HD
ENDBRANCH   3  23
TORSDOF 4
ENDMDL
MODEL 9
REMARK VINA RESULT:      -7.5      4.008      6.017
REMARK  Name = 
REMARK  4 active torsions:
REMARK  status: ('A' for Active; 'I' for Inactive)
REMARK    1  A    between atoms: C_2  and  C_3
REMARK    2  A    between atoms: C_8  and  N_9
REMARK    3  A    between atoms: C_11  and  C_12
REMARK    4  A    between atoms: N_16  and  C_17
REMARK                            x       y       z     vdW  Elec       q    Type
REMARK                         _______ _______ _______ _____ _____    ______ ____
ROOT
ATOM      1  N   UNL     1       3.852   4.558  18.925  0.00  0.00    +0.000 N 
ATOM      2  C   UNL     1       4.634   4.529  17.805  0.00  0.00    +0.000 A 
ATOM      3  C   UNL     1       4.582   5.790  17.247  0.00  0.00    +0.000 A 
ATOM      4  C   UNL     1       3.748   6.533  18.134  0.00  0.00    +0.000 A 
ATOM      5  N   UNL     1       3.407   7.826  17.881  0.00  0.00    +0.000 N 
ATOM      6  N   UNL     1       3.348   5.779  19.162  0.00  0.00    +0.000 NA
ATOM      7  H   UNL     1       3.808   8.242  17.036  0.00  0.00    +0.000 HD
ENDROOT
BRANCH   5   8
ATOM      8  C   UNL     1       2.359   8.599  18.426  0.00  0.00    +0.000 A 
ATOM      9  C   UNL     1       1.769   9.596  17.642  0.00  0.00    +0.000 A 
ATOM     10  C   UNL     1       0.665  10.276  18.137  0.00  0.00    +0.000 A 
ATOM     11  N   UNL     1       0.122  10.050  19.349  0.00  0.00    +0.000 NA
ATOM     12  C   UNL     1       0.726   9.110  20.100  0.00  0.00    +0.000 A 
ATOM     13  F   UNL     1       0.206   8.854  21.309  0.00  0.00    +0.000 F 
ATOM     14  C   UNL     1       1.829   8.382  19.695  0.00  0.00    +0.000 A 
ENDBRANCH   5   8
BRANCH   1  20
ATOM     15  C   UNL     1       2.183   3.756  20.618  0.00  0.00    +0.000 C 
ATOM     16  C   UNL     1       0.996   3.757  19.629  0.00  0.00    +0.000 C 
ATOM     17  C   UNL     1       0.961   2.472  18.789  0.00  0.00    +0.000 C 
ATOM     18  O   UNL     1       2.210   2.207  18.153  0.00  0.00    +0.000 OA
ATOM     19  C   UNL     1       3.318   2.136  19.057  0.00  0.00    +0.000 C 
ATOM     20  C   UNL     1       3.486   3.456  19.829  0.00  0.00    +0.000 C 
BRANCH  15  22
ATOM     21  N   UNL     1       1.668   1.683  22.400  0.00  0.00    +0.000 NA
ATOM     22  C   UNL     1       1.902   2.623  21.592  0.00  0.00    +0.000 C 
ENDBRANCH  15  22
ENDBRANCH   1  20
BRANCH   3  23
ATOM     23  C   UNL     1       5.182   6.225  15.997  0.00  0.00    +0.000 C 
ATOM     24  N   UNL     1       6.261   5.507  15.562  0.00  0.00    +0.000 N 
ATOM     25  O   UNL     1       4.764   7.183  15.355  0.00  0.00    +0.000 OA
ATOM     26  H   UNL     1       6.701   4.790  16.118  0.00  0.00    +0.000 HD
ATOM     27  H   UNL     1       6.712   5.801  14.707  0.00  0.00    +0.000 HD
ENDBRANCH   3  23
TORSDOF 4
ENDMDL
