MODEL 1
REMARK VINA RESULT:      -5.8      0.000      0.000
REMARK  Name = 
REMARK  4 active torsions:
REMARK  status: ('A' for Active; 'I' for Inactive)
REMARK    1  A    between atoms: C_1  and  S_2
REMARK    2  A    between atoms: S_2  and  C_3
REMARK    3  A    between atoms: C_3  and  C_4
REMARK    4  A    between atoms: C_7  and  C_8
REMARK                            x       y       z     vdW  Elec       q    Type
REMARK                         _______ _______ _______ _____ _____    ______ ____
ROOT
ATOM      1  C   UNL     1       3.934   2.830  18.541  0.00  0.00    +0.000 A 
ATOM      2  N   UNL     1       4.590   2.708  19.702  0.00  0.00    +0.000 NA
ATOM      3  O   UNL     1       5.616   3.644  19.587  0.00  0.00    +0.000 OA
ATOM      4  C   UNL     1       5.456   4.258  18.376  0.00  0.00    +0.000 A 
ATOM      5  N   UNL     1       4.428   3.802  17.697  0.00  0.00    +0.000 NA
ENDROOT
BRANCH   4   6
ATOM      6  C   UNL     1       6.476   5.274  18.022  0.00  0.00    +0.000 C 
ATOM      7  C   UNL     1       5.806   6.487  17.374  0.00  0.00    +0.000 C 
ATOM      8  N   UNL     1       6.752   7.564  17.032  0.00  0.00    +0.000 NA
ATOM      9  C   UNL     1       7.807   7.636  17.759  0.00  0.00    +0.000 C 
ATOM     10  N   UNL     1       8.189   6.804  18.772  0.00  0.00    +0.000 N 
ATOM     11  C   UNL     1       7.276   5.768  19.228  0.00  0.00    +0.000 C 
ATOM     12  H   UNL     1       8.877   7.129  19.435  0.00  0.00    +0.000 HD
ENDBRANCH   4   6
BRANCH   1  13
ATOM     13  C   UNL     1       2.667   2.117  18.254  0.00  0.00    +0.000 C 
BRANCH  13  15
ATOM     14  C   UNL     1       1.095   2.977  20.404  0.00  0.00    +0.000 C 
ATOM     15  S   UNL     1       1.124   3.027  18.592  0.00  0.00    +0.000 S 
ENDBRANCH  13  15
ENDBRANCH   1  13
TORSDOF 3
ENDMDL
MODEL 2
REMARK VINA RESULT:      -5.7      4.295      5.478
REMARK  Name = 
REMARK  4 active torsions:
REMARK  status: ('A' for Active; 'I' for Inactive)
REMARK    1  A    between atoms: C_1  and  S_2
REMARK    2  A    between atoms: S_2  and  C_3
REMARK    3  A    between atoms: C_3  and  C_4
REMARK    4  A    between atoms: C_7  and  C_8
REMARK                            x       y       z     vdW  Elec       q    Type
REMARK                         _______ _______ _______ _____ _____    ______ ____
ROOT
ATOM      1  C   UNL     1       6.949   4.439  13.358  0.00  0.00    +0.000 A 
ATOM      2  N   UNL     1       7.820   5.383  13.734  0.00  0.00    +0.000 NA
ATOM      3  O   UNL     1       7.608   5.482  15.108  0.00  0.00    +0.000 OA
ATOM      4  C   UNL     1       6.648   4.562  15.427  0.00  0.00    +0.000 A 
ATOM      5  N   UNL     1       6.217   3.885  14.387  0.00  0.00    +0.000 NA
ENDROOT
BRANCH   4   6
ATOM      6  C   UNL     1       6.231   4.522  16.848  0.00  0.00    +0.000 C 
ATOM      7  C   UNL     1       7.380   4.991  17.745  0.00  0.00    +0.000 C 
ATOM      8  N   UNL     1       7.028   5.022  19.176  0.00  0.00    +0.000 NA
ATOM      9  C   UNL     1       5.788   5.215  19.445  0.00  0.00    +0.000 C 
ATOM     10  N   UNL     1       4.747   5.337  18.571  0.00  0.00    +0.000 N 
ATOM     11  C   UNL     1       5.017   5.402  17.144  0.00  0.00    +0.000 C 
ATOM     12  H   UNL     1       3.889   5.762  18.892  0.00  0.00    +0.000 HD
ENDBRANCH   4   6
BRANCH   1  13
ATOM     13  C   UNL     1       6.900   3.891  11.982  0.00  0.00    +0.000 C 
BRANCH  13  15
ATOM     14  C   UNL     1       4.255   3.231  11.348  0.00  0.00    +0.000 C 
ATOM     15  S   UNL     1       5.839   2.431  11.721  0.00  0.00    +0.000 S 
ENDBRANCH  13  15
ENDBRANCH   1  13
TORSDOF 3
ENDMDL
MODEL 3
REMARK VINA RESULT:      -5.6      4.329      5.657
REMARK  Name = 
REMARK  4 active torsions:
REMARK  status: ('A' for Active; 'I' for Inactive)
REMARK    1  A    between atoms: C_1  and  S_2
REMARK    2  A    between atoms: S_2  and  C_3
REMARK    3  A    between atoms: C_3  and  C_4
REMARK    4  A    between atoms: C_7  and  C_8
REMARK                            x       y       z     vdW  Elec       q    Type
REMARK                         _______ _______ _______ _____ _____    ______ ____
ROOT
ATOM      1  C   UNL     1       6.850   4.449  13.440  0.00  0.00    +0.000 A 
ATOM      2  N   UNL     1       7.776   5.327  13.844  0.00  0.00    +0.000 NA
ATOM      3  O   UNL     1       7.443   5.549  15.179  0.00  0.00    +0.000 OA
ATOM      4  C   UNL     1       6.363   4.757  15.453  0.00  0.00    +0.000 A 
ATOM      5  N   UNL     1       5.965   4.050  14.420  0.00  0.00    +0.000 NA
ENDROOT
BRANCH   4   6
ATOM      6  C   UNL     1       5.808   4.866  16.823  0.00  0.00    +0.000 C 
ATOM      7  C   UNL     1       4.731   3.800  17.039  0.00  0.00    +0.000 C 
ATOM      8  N   UNL     1       4.159   3.815  18.397  0.00  0.00    +0.000 NA
ATOM      9  C   UNL     1       4.930   4.248  19.327  0.00  0.00    +0.000 C 
ATOM     10  N   UNL     1       6.193   4.750  19.205  0.00  0.00    +0.000 N 
ATOM     11  C   UNL     1       6.863   4.694  17.915  0.00  0.00    +0.000 C 
ATOM     12  H   UNL     1       6.784   4.786  20.023  0.00  0.00    +0.000 HD
ENDBRANCH   4   6
BRANCH   1  13
ATOM     13  C   UNL     1       6.877   3.807  12.104  0.00  0.00    +0.000 C 
BRANCH  13  15
ATOM     14  C   UNL     1       6.457   1.231  11.094  0.00  0.00    +0.000 C 
ATOM     15  S   UNL     1       5.521   2.649  11.727  0.00  0.00    +0.000 S 
ENDBRANCH  13  15
ENDBRANCH   1  13
TORSDOF 3
ENDMDL
MODEL 4
REMARK VINA RESULT:      -5.6      2.125      2.675
REMARK  Name = 
REMARK  4 active torsions:
REMARK  status: ('A' for Active; 'I' for Inactive)
REMARK    1  A    between atoms: C_1  and  S_2
REMARK    2  A    between atoms: S_2  and  C_3
REMARK    3  A    between atoms: C_3  and  C_4
REMARK    4  A    between atoms: C_7  and  C_8
REMARK                            x       y       z     vdW  Elec       q    Type
REMARK                         _______ _______ _______ _____ _____    ______ ____
ROOT
ATOM      1  C   UNL     1       3.639   3.039  19.188  0.00  0.00    +0.000 A 
ATOM      2  N   UNL     1       4.829   3.224  19.773  0.00  0.00    +0.000 NA
ATOM      3  O   UNL     1       5.592   3.805  18.761  0.00  0.00    +0.000 OA
ATOM      4  C   UNL     1       4.774   3.938  17.675  0.00  0.00    +0.000 A 
ATOM      5  N   UNL     1       3.556   3.493  17.888  0.00  0.00    +0.000 NA
ENDROOT
BRANCH   4   6
ATOM      6  C   UNL     1       5.398   4.503  16.455  0.00  0.00    +0.000 C 
ATOM      7  C   UNL     1       6.749   5.134  16.801  0.00  0.00    +0.000 C 
ATOM      8  N   UNL     1       7.455   5.681  15.628  0.00  0.00    +0.000 NA
ATOM      9  C   UNL     1       7.198   5.116  14.505  0.00  0.00    +0.000 C 
ATOM     10  N   UNL     1       6.309   4.111  14.252  0.00  0.00    +0.000 N 
ATOM     11  C   UNL     1       5.634   3.459  15.363  0.00  0.00    +0.000 C 
ATOM     12  H   UNL     1       6.409   3.575  13.402  0.00  0.00    +0.000 HD
ENDBRANCH   4   6
BRANCH   1  13
ATOM     13  C   UNL     1       2.446   2.560  19.925  0.00  0.00    +0.000 C 
BRANCH  13  15
ATOM     14  C   UNL     1       1.993   5.227  20.644  0.00  0.00    +0.000 C 
ATOM     15  S   UNL     1       1.079   3.749  20.126  0.00  0.00    +0.000 S 
ENDBRANCH  13  15
ENDBRANCH   1  13
TORSDOF 3
ENDMDL
MODEL 5
REMARK VINA RESULT:      -5.5      2.392      2.749
REMARK  Name = 
REMARK  4 active torsions:
REMARK  status: ('A' for Active; 'I' for Inactive)
REMARK    1  A    between atoms: C_1  and  S_2
REMARK    2  A    between atoms: S_2  and  C_3
REMARK    3  A    between atoms: C_3  and  C_4
REMARK    4  A    between atoms: C_7  and  C_8
REMARK                            x       y       z     vdW  Elec       q    Type
REMARK                         _______ _______ _______ _____ _____    ______ ____
ROOT
ATOM      1  C   UNL     1       2.894   4.965  19.734  0.00  0.00    +0.000 A 
ATOM      2  N   UNL     1       2.364   5.811  18.842  0.00  0.00    +0.000 NA
ATOM      3  O   UNL     1       3.230   5.708  17.755  0.00  0.00    +0.000 OA
ATOM      4  C   UNL     1       4.180   4.785  18.092  0.00  0.00    +0.000 A 
ATOM      5  N   UNL     1       4.012   4.288  19.297  0.00  0.00    +0.000 NA
ENDROOT
BRANCH   4   6
ATOM      6  C   UNL     1       5.241   4.545  17.086  0.00  0.00    +0.000 C 
ATOM      7  C   UNL     1       5.207   5.640  16.016  0.00  0.00    +0.000 C 
ATOM      8  N   UNL     1       6.265   5.495  15.000  0.00  0.00    +0.000 NA
ATOM      9  C   UNL     1       7.339   4.909  15.386  0.00  0.00    +0.000 C 
ATOM     10  N   UNL     1       7.601   4.351  16.604  0.00  0.00    +0.000 N 
ATOM     11  C   UNL     1       6.647   4.522  17.688  0.00  0.00    +0.000 C 
ATOM     12  H   UNL     1       8.561   4.182  16.865  0.00  0.00    +0.000 HD
ENDBRANCH   4   6
BRANCH   1  13
ATOM     13  C   UNL     1       2.233   4.634  21.019  0.00  0.00    +0.000 C 
BRANCH  13  15
ATOM     14  C   UNL     1       0.859   2.708  19.524  0.00  0.00    +0.000 C 
ATOM     15  S   UNL     1       1.559   2.948  21.179  0.00  0.00    +0.000 S 
ENDBRANCH  13  15
ENDBRANCH   1  13
TORSDOF 3
ENDMDL
MODEL 6
REMARK VINA RESULT:      -5.5      1.279      1.427
REMARK  Name = 
REMARK  4 active torsions:
REMARK  status: ('A' for Active; 'I' for Inactive)
REMARK    1  A    between atoms: C_1  and  S_2
REMARK    2  A    between atoms: S_2  and  C_3
REMARK    3  A    between atoms: C_3  and  C_4
REMARK    4  A    between atoms: C_7  and  C_8
REMARK                            x       y       z     vdW  Elec       q    Type
REMARK                         _______ _______ _______ _____ _____    ______ ____
ROOT
ATOM      1  C   UNL     1       4.088   3.084  19.305  0.00  0.00    +0.000 A 
ATOM      2  N   UNL     1       3.881   2.939  17.990  0.00  0.00    +0.000 NA
ATOM      3  O   UNL     1       4.819   3.800  17.425  0.00  0.00    +0.000 OA
ATOM      4  C   UNL     1       5.519   4.357  18.459  0.00  0.00    +0.000 A 
ATOM      5  N   UNL     1       5.116   3.940  19.638  0.00  0.00    +0.000 NA
ENDROOT
BRANCH   4   6
ATOM      6  C   UNL     1       6.554   5.349  18.085  0.00  0.00    +0.000 C 
ATOM      7  C   UNL     1       5.903   6.553  17.399  0.00  0.00    +0.000 C 
ATOM      8  N   UNL     1       6.866   7.608  17.034  0.00  0.00    +0.000 NA
ATOM      9  C   UNL     1       7.916   7.687  17.767  0.00  0.00    +0.000 C 
ATOM     10  N   UNL     1       8.281   6.878  18.804  0.00  0.00    +0.000 N 
ATOM     11  C   UNL     1       7.351   5.867  19.282  0.00  0.00    +0.000 C 
ATOM     12  H   UNL     1       8.968   7.212  19.464  0.00  0.00    +0.000 HD
ENDBRANCH   4   6
BRANCH   1  13
ATOM     13  C   UNL     1       3.401   2.254  20.324  0.00  0.00    +0.000 C 
BRANCH  13  15
ATOM     14  C   UNL     1       1.016   3.713  20.212  0.00  0.00    +0.000 C 
ATOM     15  S   UNL     1       2.227   3.115  21.421  0.00  0.00    +0.000 S 
ENDBRANCH  13  15
ENDBRANCH   1  13
TORSDOF 3
ENDMDL
MODEL 7
REMARK VINA RESULT:      -5.5      2.964      5.814
REMARK  Name = 
REMARK  4 active torsions:
REMARK  status: ('A' for Active; 'I' for Inactive)
REMARK    1  A    between atoms: C_1  and  S_2
REMARK    2  A    between atoms: S_2  and  C_3
REMARK    3  A    between atoms: C_3  and  C_4
REMARK    4  A    between atoms: C_7  and  C_8
REMARK                            x       y       z     vdW  Elec       q    Type
REMARK                         _______ _______ _______ _____ _____    ______ ____
ROOT
ATOM      1  C   UNL     1       4.773   5.081  17.178  0.00  0.00    +0.000 A 
ATOM      2  N   UNL     1       4.635   3.966  16.449  0.00  0.00    +0.000 NA
ATOM      3  O   UNL     1       3.816   3.167  17.244  0.00  0.00    +0.000 OA
ATOM      4  C   UNL     1       3.517   3.895  18.362  0.00  0.00    +0.000 A 
ATOM      5  N   UNL     1       4.072   5.086  18.366  0.00  0.00    +0.000 NA
ENDROOT
BRANCH   4   6
ATOM      6  C   UNL     1       2.680   3.214  19.377  0.00  0.00    +0.000 C 
ATOM      7  C   UNL     1       3.425   3.146  20.712  0.00  0.00    +0.000 C 
ATOM      8  N   UNL     1       2.638   2.519  21.789  0.00  0.00    +0.000 NA
ATOM      9  C   UNL     1       1.364   2.628  21.689  0.00  0.00    +0.000 C 
ATOM     10  N   UNL     1       0.645   3.201  20.680  0.00  0.00    +0.000 N 
ATOM     11  C   UNL     1       1.343   3.915  19.623  0.00  0.00    +0.000 C 
ATOM     12  H   UNL     1      -0.312   3.470  20.856  0.00  0.00    +0.000 HD
ENDBRANCH   4   6
BRANCH   1  13
ATOM     13  C   UNL     1       5.466   6.291  16.675  0.00  0.00    +0.000 C 
BRANCH  13  15
ATOM     14  C   UNL     1       7.599   5.005  17.951  0.00  0.00    +0.000 C 
ATOM     15  S   UNL     1       7.098   6.658  17.399  0.00  0.00    +0.000 S 
ENDBRANCH  13  15
ENDBRANCH   1  13
TORSDOF 3
ENDMDL
MODEL 8
REMARK VINA RESULT:      -5.4      2.510      3.109
REMARK  Name = 
REMARK  4 active torsions:
REMARK  status: ('A' for Active; 'I' for Inactive)
REMARK    1  A    between atoms: C_1  and  S_2
REMARK    2  A    between atoms: S_2  and  C_3
REMARK    3  A    between atoms: C_3  and  C_4
REMARK    4  A    between atoms: C_7  and  C_8
REMARK                            x       y       z     vdW  Elec       q    Type
REMARK                         _______ _______ _______ _____ _____    ______ ____
ROOT
ATOM      1  C   UNL     1       2.841   5.669  19.543  0.00  0.00    +0.000 A 
ATOM      2  N   UNL     1       2.725   6.767  18.787  0.00  0.00    +0.000 NA
ATOM      3  O   UNL     1       3.744   6.615  17.849  0.00  0.00    +0.000 OA
ATOM      4  C   UNL     1       4.354   5.422  18.117  0.00  0.00    +0.000 A 
ATOM      5  N   UNL     1       3.829   4.793  19.144  0.00  0.00    +0.000 NA
ENDROOT
BRANCH   4   6
ATOM      6  C   UNL     1       5.509   5.073  17.257  0.00  0.00    +0.000 C 
ATOM      7  C   UNL     1       5.037   4.256  16.051  0.00  0.00    +0.000 C 
ATOM      8  N   UNL     1       6.126   3.907  15.121  0.00  0.00    +0.000 NA
ATOM      9  C   UNL     1       7.118   4.719  15.087  0.00  0.00    +0.000 C 
ATOM     10  N   UNL     1       7.318   5.836  15.847  0.00  0.00    +0.000 N 
ATOM     11  C   UNL     1       6.257   6.298  16.729  0.00  0.00    +0.000 C 
ATOM     12  H   UNL     1       7.981   6.528  15.532  0.00  0.00    +0.000 HD
ENDBRANCH   4   6
BRANCH   1  13
ATOM     13  C   UNL     1       1.871   5.319  20.609  0.00  0.00    +0.000 C 
BRANCH  13  15
ATOM     14  C   UNL     1       1.943   2.715  21.632  0.00  0.00    +0.000 C 
ATOM     15  S   UNL     1       1.015   3.719  20.441  0.00  0.00    +0.000 S 
ENDBRANCH  13  15
ENDBRANCH   1  13
TORSDOF 3
ENDMDL
MODEL 9
REMARK VINA RESULT:      -5.4      2.632      3.321
REMARK  Name = 
REMARK  4 active torsions:
REMARK  status: ('A' for Active; 'I' for Inactive)
REMARK    1  A    between atoms: C_1  and  S_2
REMARK    2  A    between atoms: S_2  and  C_3
REMARK    3  A    between atoms: C_3  and  C_4
REMARK    4  A    between atoms: C_7  and  C_8
REMARK                            x       y       z     vdW  Elec       q    Type
REMARK                         _______ _______ _______ _____ _____    ______ ____
ROOT
ATOM      1  C   UNL     1       2.762   5.863  19.485  0.00  0.00    +0.000 A 
ATOM      2  N   UNL     1       2.590   7.065  18.921  0.00  0.00    +0.000 NA
ATOM      3  O   UNL     1       3.389   6.998  17.781  0.00  0.00    +0.000 OA
ATOM      4  C   UNL     1       3.940   5.747  17.758  0.00  0.00    +0.000 A 
ATOM      5  N   UNL     1       3.577   5.004  18.779  0.00  0.00    +0.000 NA
ENDROOT
BRANCH   4   6
ATOM      6  C   UNL     1       4.871   5.466  16.639  0.00  0.00    +0.000 C 
ATOM      7  C   UNL     1       6.239   6.090  16.926  0.00  0.00    +0.000 C 
ATOM      8  N   UNL     1       7.237   5.816  15.876  0.00  0.00    +0.000 NA
ATOM      9  C   UNL     1       7.073   4.728  15.216  0.00  0.00    +0.000 C 
ATOM     10  N   UNL     1       6.058   3.822  15.325  0.00  0.00    +0.000 N 
ATOM     11  C   UNL     1       5.079   3.972  16.391  0.00  0.00    +0.000 C 
ATOM     12  H   UNL     1       6.195   2.891  14.961  0.00  0.00    +0.000 HD
ENDBRANCH   4   6
BRANCH   1  13
ATOM     13  C   UNL     1       1.995   5.414  20.671  0.00  0.00    +0.000 C 
BRANCH  13  15
ATOM     14  C   UNL     1       0.947   2.929  19.925  0.00  0.00    +0.000 C 
ATOM     15  S   UNL     1       2.121   3.648  21.104  0.00  0.00    +0.000 S 
ENDBRANCH  13  15
ENDBRANCH   1  13
TORSDOF 3
ENDMDL
