MODEL 1
REMARK VINA RESULT:      -8.1      0.000      0.000
REMARK  Name = 
REMARK  13 active torsions:
REMARK  status: ('A' for Active; 'I' for Inactive)
REMARK    1  A    between atoms: C_1  and  C_2
REMARK    2  A    between atoms: C_2  and  N_3
REMARK    3  A    between atoms: N_3  and  C_4
REMARK    4  A    between atoms: N_3  and  S_6
REMARK    5  A    between atoms: C_4  and  C_5
REMARK    6  A    between atoms: S_6  and  C_9
REMARK    7  A    between atoms: C_13  and  C_14
REMARK    8  A    between atoms: C_17  and  S_18
REMARK    9  A    between atoms: S_18  and  C_19
REMARK   10  A    between atoms: C_19  and  C_20
REMARK   11  A    between atoms: N_23  and  C_24
REMARK   12  A    between atoms: C_24  and  C_25
REMARK   13  A    between atoms: C_25  and  C_26
REMARK                            x       y       z     vdW  Elec       q    Type
REMARK                         _______ _______ _______ _____ _____    ______ ____
ROOT
ATOM      1  C   UNL     1       4.351   6.397  16.958  0.00  0.00    +0.000 A 
ATOM      2  N   UNL     1       4.773   7.127  15.938  0.00  0.00    +0.000 NA
ATOM      3  N   UNL     1       5.560   6.357  15.125  0.00  0.00    +0.000 NA
ATOM      4  C   UNL     1       5.642   5.167  15.661  0.00  0.00    +0.000 A 
ATOM      5  N   UNL     1       4.955   5.143  16.856  0.00  0.00    +0.000 N 
ENDROOT
BRANCH   1  10
ATOM      6  C   UNL     1       1.862   8.595  18.826  0.00  0.00    +0.000 A 
ATOM      7  C   UNL     1       1.770   7.943  20.053  0.00  0.00    +0.000 A 
ATOM      8  C   UNL     1       2.474   6.758  20.233  0.00  0.00    +0.000 A 
ATOM      9  C   UNL     1       3.269   6.248  19.196  0.00  0.00    +0.000 A 
ATOM     10  C   UNL     1       3.364   6.892  17.945  0.00  0.00    +0.000 A 
ATOM     11  C   UNL     1       2.622   8.065  17.767  0.00  0.00    +0.000 A 
BRANCH   6  12
ATOM     12  S   UNL     1       1.106  10.194  18.638  0.00  0.00    +0.000 S 
ATOM     13  O   UNL     1      -0.189   9.997  18.021  0.00  0.00    +0.000 OA
ATOM     14  O   UNL     1       2.090  11.080  18.058  0.00  0.00    +0.000 OA
BRANCH  12  15
ATOM     15  N   UNL     1       0.871  10.675  20.274  0.00  0.00    +0.000 NA
BRANCH  15  17
ATOM     16  C   UNL     1       0.349  13.137  20.312  0.00  0.00    +0.000 C 
ATOM     17  C   UNL     1       1.369  12.047  20.593  0.00  0.00    +0.000 C 
ENDBRANCH  15  17
BRANCH  15  18
ATOM     18  C   UNL     1      -0.476  10.338  20.819  0.00  0.00    +0.000 C 
ATOM     19  C   UNL     1      -0.434   9.767  22.226  0.00  0.00    +0.000 C 
ENDBRANCH  15  18
ENDBRANCH  12  15
ENDBRANCH   6  12
ENDBRANCH   1  10
BRANCH   4  20
ATOM     20  S   UNL     1       6.454   3.815  14.950  0.00  0.00    +0.000 S 
BRANCH  20  21
ATOM     21  C   UNL     1       6.565   4.242  13.197  0.00  0.00    +0.000 C 
BRANCH  21  22
ATOM     22  C   UNL     1       5.830   3.251  12.294  0.00  0.00    +0.000 C 
ATOM     23  N   UNL     1       6.489   2.152  11.831  0.00  0.00    +0.000 N 
ATOM     24  O   UNL     1       4.659   3.427  11.957  0.00  0.00    +0.000 OA
ATOM     25  H   UNL     1       7.442   1.942  12.095  0.00  0.00    +0.000 HD
ATOM     26  H   UNL     1       5.984   1.505  11.241  0.00  0.00    +0.000 HD
ENDBRANCH  21  22
ENDBRANCH  20  21
ENDBRANCH   4  20
BRANCH   5  27
ATOM     27  C   UNL     1       4.781   4.052  17.798  0.00  0.00    +0.000 C 
BRANCH  27  28
ATOM     28  C   UNL     1       3.598   3.093  17.628  0.00  0.00    +0.000 C 
BRANCH  28  29
ATOM     29  C   UNL     1       2.767   3.048  18.883  0.00  0.00    +0.000 A 
ATOM     30  C   UNL     1       3.386   2.787  20.117  0.00  0.00    +0.000 A 
ATOM     31  C   UNL     1       2.622   2.687  21.278  0.00  0.00    +0.000 A 
ATOM     32  C   UNL     1       1.241   2.848  21.215  0.00  0.00    +0.000 A 
ATOM     33  C   UNL     1       0.620   3.118  19.997  0.00  0.00    +0.000 A 
ATOM     34  C   UNL     1       1.382   3.219  18.830  0.00  0.00    +0.000 A 
ENDBRANCH  28  29
ENDBRANCH  27  28
ENDBRANCH   5  27
TORSDOF 11
ENDMDL
MODEL 2
REMARK VINA RESULT:      -8.1      0.884      1.231
REMARK  Name = 
REMARK  13 active torsions:
REMARK  status: ('A' for Active; 'I' for Inactive)
REMARK    1  A    between atoms: C_1  and  C_2
REMARK    2  A    between atoms: C_2  and  N_3
REMARK    3  A    between atoms: N_3  and  C_4
REMARK    4  A    between atoms: N_3  and  S_6
REMARK    5  A    between atoms: C_4  and  C_5
REMARK    6  A    between atoms: S_6  and  C_9
REMARK    7  A    between atoms: C_13  and  C_14
REMARK    8  A    between atoms: C_17  and  S_18
REMARK    9  A    between atoms: S_18  and  C_19
REMARK   10  A    between atoms: C_19  and  C_20
REMARK   11  A    between atoms: N_23  and  C_24
REMARK   12  A    between atoms: C_24  and  C_25
REMARK   13  A    between atoms: C_25  and  C_26
REMARK                            x       y       z     vdW  Elec       q    Type
REMARK                         _______ _______ _______ _____ _____    ______ ____
ROOT
ATOM      1  C   UNL     1       4.297   6.308  17.571  0.00  0.00    +0.000 A 
ATOM      2  N   UNL     1       5.391   6.988  17.265  0.00  0.00    +0.000 NA
ATOM      3  N   UNL     1       6.145   6.259  16.385  0.00  0.00    +0.000 NA
ATOM      4  C   UNL     1       5.528   5.126  16.174  0.00  0.00    +0.000 A 
ATOM      5  N   UNL     1       4.386   5.063  16.945  0.00  0.00    +0.000 N 
ENDROOT
BRANCH   1  10
ATOM      6  C   UNL     1       1.682   8.678  19.005  0.00  0.00    +0.000 A 
ATOM      7  C   UNL     1       1.367   8.059  20.213  0.00  0.00    +0.000 A 
ATOM      8  C   UNL     1       1.968   6.843  20.515  0.00  0.00    +0.000 A 
ATOM      9  C   UNL     1       2.881   6.268  19.618  0.00  0.00    +0.000 A 
ATOM     10  C   UNL     1       3.201   6.877  18.388  0.00  0.00    +0.000 A 
ATOM     11  C   UNL     1       2.563   8.084  18.083  0.00  0.00    +0.000 A 
BRANCH   6  12
ATOM     12  S   UNL     1       1.054  10.311  18.682  0.00  0.00    +0.000 S 
ATOM     13  O   UNL     1      -0.280  10.168  18.140  0.00  0.00    +0.000 OA
ATOM     14  O   UNL     1       2.081  11.043  17.974  0.00  0.00    +0.000 OA
BRANCH  12  15
ATOM     15  N   UNL     1       0.940  10.972  20.267  0.00  0.00    +0.000 NA
BRANCH  15  17
ATOM     16  C   UNL     1       0.857  13.394  20.949  0.00  0.00    +0.000 C 
ATOM     17  C   UNL     1       1.713  12.235  20.468  0.00  0.00    +0.000 C 
ENDBRANCH  15  17
BRANCH  15  18
ATOM     18  C   UNL     1      -0.441  10.969  20.829  0.00  0.00    +0.000 C 
ATOM     19  C   UNL     1      -0.526  10.377  22.226  0.00  0.00    +0.000 C 
ENDBRANCH  15  18
ENDBRANCH  12  15
ENDBRANCH   6  12
ENDBRANCH   1  10
BRANCH   4  20
ATOM     20  S   UNL     1       6.046   3.908  15.060  0.00  0.00    +0.000 S 
BRANCH  20  21
ATOM     21  C   UNL     1       6.972   4.825  13.808  0.00  0.00    +0.000 C 
BRANCH  21  22
ATOM     22  C   UNL     1       6.954   4.147  12.437  0.00  0.00    +0.000 C 
ATOM     23  N   UNL     1       6.369   2.924  12.303  0.00  0.00    +0.000 N 
ATOM     24  O   UNL     1       7.470   4.671  11.449  0.00  0.00    +0.000 OA
ATOM     25  H   UNL     1       5.907   2.458  13.073  0.00  0.00    +0.000 HD
ATOM     26  H   UNL     1       6.361   2.496  11.388  0.00  0.00    +0.000 HD
ENDBRANCH  21  22
ENDBRANCH  20  21
ENDBRANCH   4  20
BRANCH   5  27
ATOM     27  C   UNL     1       3.400   4.003  17.048  0.00  0.00    +0.000 C 
BRANCH  27  28
ATOM     28  C   UNL     1       3.697   2.782  17.924  0.00  0.00    +0.000 C 
BRANCH  28  29
ATOM     29  C   UNL     1       2.847   2.801  19.167  0.00  0.00    +0.000 A 
ATOM     30  C   UNL     1       1.467   3.042  19.062  0.00  0.00    +0.000 A 
ATOM     31  C   UNL     1       0.679   3.118  20.208  0.00  0.00    +0.000 A 
ATOM     32  C   UNL     1       1.260   2.954  21.461  0.00  0.00    +0.000 A 
ATOM     33  C   UNL     1       2.626   2.704  21.575  0.00  0.00    +0.000 A 
ATOM     34  C   UNL     1       3.421   2.626  20.428  0.00  0.00    +0.000 A 
ENDBRANCH  28  29
ENDBRANCH  27  28
ENDBRANCH   5  27
TORSDOF 11
ENDMDL
MODEL 3
REMARK VINA RESULT:      -7.9      0.992      1.022
REMARK  Name = 
REMARK  13 active torsions:
REMARK  status: ('A' for Active; 'I' for Inactive)
REMARK    1  A    between atoms: C_1  and  C_2
REMARK    2  A    between atoms: C_2  and  N_3
REMARK    3  A    between atoms: N_3  and  C_4
REMARK    4  A    between atoms: N_3  and  S_6
REMARK    5  A    between atoms: C_4  and  C_5
REMARK    6  A    between atoms: S_6  and  C_9
REMARK    7  A    between atoms: C_13  and  C_14
REMARK    8  A    between atoms: C_17  and  S_18
REMARK    9  A    between atoms: S_18  and  C_19
REMARK   10  A    between atoms: C_19  and  C_20
REMARK   11  A    between atoms: N_23  and  C_24
REMARK   12  A    between atoms: C_24  and  C_25
REMARK   13  A    between atoms: C_25  and  C_26
REMARK                            x       y       z     vdW  Elec       q    Type
REMARK                         _______ _______ _______ _____ _____    ______ ____
ROOT
ATOM      1  C   UNL     1       4.276   6.515  17.209  0.00  0.00    +0.000 A 
ATOM      2  N   UNL     1       4.695   7.210  16.163  0.00  0.00    +0.000 NA
ATOM      3  N   UNL     1       5.548   6.440  15.419  0.00  0.00    +0.000 NA
ATOM      4  C   UNL     1       5.672   5.286  16.023  0.00  0.00    +0.000 A 
ATOM      5  N   UNL     1       4.948   5.291  17.196  0.00  0.00    +0.000 N 
ENDROOT
BRANCH   1  10
ATOM      6  C   UNL     1       1.699   8.721  18.940  0.00  0.00    +0.000 A 
ATOM      7  C   UNL     1       1.515   8.053  20.148  0.00  0.00    +0.000 A 
ATOM      8  C   UNL     1       2.190   6.855  20.357  0.00  0.00    +0.000 A 
ATOM      9  C   UNL     1       3.046   6.349  19.366  0.00  0.00    +0.000 A 
ATOM     10  C   UNL     1       3.233   7.010  18.136  0.00  0.00    +0.000 A 
ATOM     11  C   UNL     1       2.521   8.196  17.927  0.00  0.00    +0.000 A 
BRANCH   6  12
ATOM     12  S   UNL     1       0.978  10.334  18.728  0.00  0.00    +0.000 S 
ATOM     13  O   UNL     1      -0.343  10.153  18.166  0.00  0.00    +0.000 OA
ATOM     14  O   UNL     1       1.963  11.173  18.082  0.00  0.00    +0.000 OA
BRANCH  12  15
ATOM     15  N   UNL     1       0.819  10.873  20.354  0.00  0.00    +0.000 NA
BRANCH  15  17
ATOM     16  C   UNL     1       0.534  13.374  20.424  0.00  0.00    +0.000 C 
ATOM     17  C   UNL     1       1.465  12.192  20.635  0.00  0.00    +0.000 C 
ENDBRANCH  15  17
BRANCH  15  18
ATOM     18  C   UNL     1      -0.548  10.694  20.923  0.00  0.00    +0.000 C 
ATOM     19  C   UNL     1      -0.549  10.378  22.409  0.00  0.00    +0.000 C 
ENDBRANCH  15  18
ENDBRANCH  12  15
ENDBRANCH   6  12
ENDBRANCH   1  10
BRANCH   4  20
ATOM     20  S   UNL     1       6.576   3.943  15.415  0.00  0.00    +0.000 S 
BRANCH  20  21
ATOM     21  C   UNL     1       6.217   3.939  13.643  0.00  0.00    +0.000 C 
BRANCH  21  22
ATOM     22  C   UNL     1       7.270   4.682  12.819  0.00  0.00    +0.000 C 
ATOM     23  N   UNL     1       8.060   5.612  13.426  0.00  0.00    +0.000 N 
ATOM     24  O   UNL     1       7.413   4.475  11.614  0.00  0.00    +0.000 OA
ATOM     25  H   UNL     1       8.006   5.804  14.417  0.00  0.00    +0.000 HD
ATOM     26  H   UNL     1       8.755   6.086  12.866  0.00  0.00    +0.000 HD
ENDBRANCH  21  22
ENDBRANCH  20  21
ENDBRANCH   4  20
BRANCH   5  27
ATOM     27  C   UNL     1       4.797   4.244  18.190  0.00  0.00    +0.000 C 
BRANCH  27  28
ATOM     28  C   UNL     1       3.755   3.142  17.972  0.00  0.00    +0.000 C 
BRANCH  28  29
ATOM     29  C   UNL     1       2.829   3.046  19.156  0.00  0.00    +0.000 A 
ATOM     30  C   UNL     1       3.362   2.859  20.442  0.00  0.00    +0.000 A 
ATOM     31  C   UNL     1       2.515   2.712  21.538  0.00  0.00    +0.000 A 
ATOM     32  C   UNL     1       1.136   2.752  21.359  0.00  0.00    +0.000 A 
ATOM     33  C   UNL     1       0.598   2.948  20.088  0.00  0.00    +0.000 A 
ATOM     34  C   UNL     1       1.444   3.096  18.985  0.00  0.00    +0.000 A 
ENDBRANCH  28  29
ENDBRANCH  27  28
ENDBRANCH   5  27
TORSDOF 11
ENDMDL
MODEL 4
REMARK VINA RESULT:      -7.9      2.779      7.240
REMARK  Name = 
REMARK  13 active torsions:
REMARK  status: ('A' for Active; 'I' for Inactive)
REMARK    1  A    between atoms: C_1  and  C_2
REMARK    2  A    between atoms: C_2  and  N_3
REMARK    3  A    between atoms: N_3  and  C_4
REMARK    4  A    between atoms: N_3  and  S_6
REMARK    5  A    between atoms: C_4  and  C_5
REMARK    6  A    between atoms: S_6  and  C_9
REMARK    7  A    between atoms: C_13  and  C_14
REMARK    8  A    between atoms: C_17  and  S_18
REMARK    9  A    between atoms: S_18  and  C_19
REMARK   10  A    between atoms: C_19  and  C_20
REMARK   11  A    between atoms: N_23  and  C_24
REMARK   12  A    between atoms: C_24  and  C_25
REMARK   13  A    between atoms: C_25  and  C_26
REMARK                            x       y       z     vdW  Elec       q    Type
REMARK                         _______ _______ _______ _____ _____    ______ ____
ROOT
ATOM      1  C   UNL     1       2.626   7.489  18.068  0.00  0.00    +0.000 A 
ATOM      2  N   UNL     1       2.361   8.382  17.127  0.00  0.00    +0.000 NA
ATOM      3  N   UNL     1       1.698   9.443  17.682  0.00  0.00    +0.000 NA
ATOM      4  C   UNL     1       1.532   9.187  18.954  0.00  0.00    +0.000 A 
ATOM      5  N   UNL     1       2.036   7.939  19.251  0.00  0.00    +0.000 N 
ENDROOT
BRANCH   1  10
ATOM      6  C   UNL     1       5.552   5.207  17.209  0.00  0.00    +0.000 A 
ATOM      7  C   UNL     1       4.913   3.986  17.009  0.00  0.00    +0.000 A 
ATOM      8  C   UNL     1       3.541   3.910  17.217  0.00  0.00    +0.000 A 
ATOM      9  C   UNL     1       2.825   5.051  17.609  0.00  0.00    +0.000 A 
ATOM     10  C   UNL     1       3.460   6.290  17.826  0.00  0.00    +0.000 A 
ATOM     11  C   UNL     1       4.846   6.343  17.645  0.00  0.00    +0.000 A 
BRANCH   6  12
ATOM     12  S   UNL     1       7.272   5.362  16.783  0.00  0.00    +0.000 S 
ATOM     13  O   UNL     1       7.346   5.986  15.480  0.00  0.00    +0.000 OA
ATOM     14  O   UNL     1       7.905   4.088  17.046  0.00  0.00    +0.000 OA
BRANCH  12  15
ATOM     15  N   UNL     1       7.836   6.479  17.965  0.00  0.00    +0.000 NA
BRANCH  15  17
ATOM     16  C   UNL     1       8.538   8.854  18.416  0.00  0.00    +0.000 C 
ATOM     17  C   UNL     1       7.688   7.915  17.578  0.00  0.00    +0.000 C 
ENDBRANCH  15  17
BRANCH  15  18
ATOM     18  C   UNL     1       7.431   6.145  19.360  0.00  0.00    +0.000 C 
ATOM     19  C   UNL     1       8.484   5.362  20.125  0.00  0.00    +0.000 C 
ENDBRANCH  15  18
ENDBRANCH  12  15
ENDBRANCH   6  12
ENDBRANCH   1  10
BRANCH   4  20
ATOM     20  S   UNL     1       0.826  10.276  20.098  0.00  0.00    +0.000 S 
BRANCH  20  21
ATOM     21  C   UNL     1       1.051  11.906  19.350  0.00  0.00    +0.000 C 
BRANCH  21  22
ATOM     22  C   UNL     1      -0.194  12.400  18.611  0.00  0.00    +0.000 C 
ATOM     23  N   UNL     1      -0.897  11.532  17.830  0.00  0.00    +0.000 N 
ATOM     24  O   UNL     1      -0.571  13.569  18.688  0.00  0.00    +0.000 OA
ATOM     25  H   UNL     1      -0.650  10.555  17.750  0.00  0.00    +0.000 HD
ATOM     26  H   UNL     1      -1.721  11.876  17.356  0.00  0.00    +0.000 HD
ENDBRANCH  21  22
ENDBRANCH  20  21
ENDBRANCH   4  20
BRANCH   5  27
ATOM     27  C   UNL     1       2.065   7.235  20.520  0.00  0.00    +0.000 C 
BRANCH  27  28
ATOM     28  C   UNL     1       0.937   6.258  20.866  0.00  0.00    +0.000 C 
BRANCH  28  29
ATOM     29  C   UNL     1       1.375   4.837  20.629  0.00  0.00    +0.000 A 
ATOM     30  C   UNL     1       0.547   3.965  19.902  0.00  0.00    +0.000 A 
ATOM     31  C   UNL     1       0.914   2.634  19.723  0.00  0.00    +0.000 A 
ATOM     32  C   UNL     1       2.106   2.165  20.266  0.00  0.00    +0.000 A 
ATOM     33  C   UNL     1       2.940   3.024  20.979  0.00  0.00    +0.000 A 
ATOM     34  C   UNL     1       2.576   4.361  21.161  0.00  0.00    +0.000 A 
ENDBRANCH  28  29
ENDBRANCH  27  28
ENDBRANCH   5  27
TORSDOF 11
ENDMDL
MODEL 5
REMARK VINA RESULT:      -7.8      1.581      1.996
REMARK  Name = 
REMARK  13 active torsions:
REMARK  status: ('A' for Active; 'I' for Inactive)
REMARK    1  A    between atoms: C_1  and  C_2
REMARK    2  A    between atoms: C_2  and  N_3
REMARK    3  A    between atoms: N_3  and  C_4
REMARK    4  A    between atoms: N_3  and  S_6
REMARK    5  A    between atoms: C_4  and  C_5
REMARK    6  A    between atoms: S_6  and  C_9
REMARK    7  A    between atoms: C_13  and  C_14
REMARK    8  A    between atoms: C_17  and  S_18
REMARK    9  A    between atoms: S_18  and  C_19
REMARK   10  A    between atoms: C_19  and  C_20
REMARK   11  A    between atoms: N_23  and  C_24
REMARK   12  A    between atoms: C_24  and  C_25
REMARK   13  A    between atoms: C_25  and  C_26
REMARK                            x       y       z     vdW  Elec       q    Type
REMARK                         _______ _______ _______ _____ _____    ______ ____
ROOT
ATOM      1  C   UNL     1       3.917   6.921  17.821  0.00  0.00    +0.000 A 
ATOM      2  N   UNL     1       4.099   7.384  16.594  0.00  0.00    +0.000 NA
ATOM      3  N   UNL     1       5.098   6.674  15.985  0.00  0.00    +0.000 NA
ATOM      4  C   UNL     1       5.546   5.797  16.847  0.00  0.00    +0.000 A 
ATOM      5  N   UNL     1       4.889   5.944  18.049  0.00  0.00    +0.000 N 
ENDROOT
BRANCH   1  10
ATOM      6  C   UNL     1       1.394   9.112  19.649  0.00  0.00    +0.000 A 
ATOM      7  C   UNL     1       0.952   8.259  20.657  0.00  0.00    +0.000 A 
ATOM      8  C   UNL     1       1.438   6.957  20.689  0.00  0.00    +0.000 A 
ATOM      9  C   UNL     1       2.365   6.529  19.727  0.00  0.00    +0.000 A 
ATOM     10  C   UNL     1       2.814   7.378  18.696  0.00  0.00    +0.000 A 
ATOM     11  C   UNL     1       2.290   8.675  18.656  0.00  0.00    +0.000 A 
BRANCH   6  12
ATOM     12  S   UNL     1       0.914  10.824  19.695  0.00  0.00    +0.000 S 
ATOM     13  O   UNL     1       1.513  11.478  18.551  0.00  0.00    +0.000 OA
ATOM     14  O   UNL     1       1.137  11.306  21.041  0.00  0.00    +0.000 OA
BRANCH  12  15
ATOM     15  N   UNL     1      -0.786  10.728  19.449  0.00  0.00    +0.000 NA
BRANCH  15  17
ATOM     16  C   UNL     1      -1.593  13.103  19.663  0.00  0.00    +0.000 C 
ATOM     17  C   UNL     1      -1.584  11.703  20.253  0.00  0.00    +0.000 C 
ENDBRANCH  15  17
BRANCH  15  18
ATOM     18  C   UNL     1      -1.188  10.595  18.020  0.00  0.00    +0.000 C 
ATOM     19  C   UNL     1      -2.529   9.908  17.828  0.00  0.00    +0.000 C 
ENDBRANCH  15  18
ENDBRANCH  12  15
ENDBRANCH   6  12
ENDBRANCH   1  10
BRANCH   4  20
ATOM     20  S   UNL     1       6.751   4.604  16.509  0.00  0.00    +0.000 S 
BRANCH  20  21
ATOM     21  C   UNL     1       6.085   3.695  15.096  0.00  0.00    +0.000 C 
BRANCH  21  22
ATOM     22  C   UNL     1       6.592   4.223  13.753  0.00  0.00    +0.000 C 
ATOM     23  N   UNL     1       7.360   5.348  13.724  0.00  0.00    +0.000 N 
ATOM     24  O   UNL     1       6.311   3.668  12.691  0.00  0.00    +0.000 OA
ATOM     25  H   UNL     1       7.645   5.831  14.566  0.00  0.00    +0.000 HD
ATOM     26  H   UNL     1       7.692   5.677  12.828  0.00  0.00    +0.000 HD
ENDBRANCH  21  22
ENDBRANCH  20  21
ENDBRANCH   4  20
BRANCH   5  27
ATOM     27  C   UNL     1       5.057   5.207  19.288  0.00  0.00    +0.000 C 
BRANCH  27  28
ATOM     28  C   UNL     1       4.823   3.693  19.301  0.00  0.00    +0.000 C 
BRANCH  28  29
ATOM     29  C   UNL     1       3.354   3.385  19.421  0.00  0.00    +0.000 A 
ATOM     30  C   UNL     1       2.786   3.186  20.690  0.00  0.00    +0.000 A 
ATOM     31  C   UNL     1       1.441   2.845  20.812  0.00  0.00    +0.000 A 
ATOM     32  C   UNL     1       0.656   2.703  19.672  0.00  0.00    +0.000 A 
ATOM     33  C   UNL     1       1.208   2.909  18.409  0.00  0.00    +0.000 A 
ATOM     34  C   UNL     1       2.557   3.251  18.282  0.00  0.00    +0.000 A 
ENDBRANCH  28  29
ENDBRANCH  27  28
ENDBRANCH   5  27
TORSDOF 11
ENDMDL
MODEL 6
REMARK VINA RESULT:      -7.7      1.288      1.462
REMARK  Name = 
REMARK  13 active torsions:
REMARK  status: ('A' for Active; 'I' for Inactive)
REMARK    1  A    between atoms: C_1  and  C_2
REMARK    2  A    between atoms: C_2  and  N_3
REMARK    3  A    between atoms: N_3  and  C_4
REMARK    4  A    between atoms: N_3  and  S_6
REMARK    5  A    between atoms: C_4  and  C_5
REMARK    6  A    between atoms: S_6  and  C_9
REMARK    7  A    between atoms: C_13  and  C_14
REMARK    8  A    between atoms: C_17  and  S_18
REMARK    9  A    between atoms: S_18  and  C_19
REMARK   10  A    between atoms: C_19  and  C_20
REMARK   11  A    between atoms: N_23  and  C_24
REMARK   12  A    between atoms: C_24  and  C_25
REMARK   13  A    between atoms: C_25  and  C_26
REMARK                            x       y       z     vdW  Elec       q    Type
REMARK                         _______ _______ _______ _____ _____    ______ ____
ROOT
ATOM      1  C   UNL     1       3.971   6.981  17.581  0.00  0.00    +0.000 A 
ATOM      2  N   UNL     1       4.158   7.392  16.336  0.00  0.00    +0.000 NA
ATOM      3  N   UNL     1       5.139   6.636  15.753  0.00  0.00    +0.000 NA
ATOM      4  C   UNL     1       5.570   5.784  16.647  0.00  0.00    +0.000 A 
ATOM      5  N   UNL     1       4.921   5.993  17.845  0.00  0.00    +0.000 N 
ENDROOT
BRANCH   1  10
ATOM      6  C   UNL     1       1.363   9.252  19.179  0.00  0.00    +0.000 A 
ATOM      7  C   UNL     1       1.060   8.560  20.349  0.00  0.00    +0.000 A 
ATOM      8  C   UNL     1       1.666   7.329  20.571  0.00  0.00    +0.000 A 
ATOM      9  C   UNL     1       2.573   6.812  19.633  0.00  0.00    +0.000 A 
ATOM     10  C   UNL     1       2.881   7.497  18.441  0.00  0.00    +0.000 A 
ATOM     11  C   UNL     1       2.238   8.718  18.215  0.00  0.00    +0.000 A 
BRANCH   6  12
ATOM     12  S   UNL     1       0.729  10.900  18.961  0.00  0.00    +0.000 S 
ATOM     13  O   UNL     1      -0.619  10.786  18.448  0.00  0.00    +0.000 OA
ATOM     14  O   UNL     1       1.738  11.670  18.267  0.00  0.00    +0.000 OA
BRANCH  12  15
ATOM     15  N   UNL     1       0.658  11.474  20.582  0.00  0.00    +0.000 NA
BRANCH  15  17
ATOM     16  C   UNL     1       0.683  13.977  20.851  0.00  0.00    +0.000 C 
ATOM     17  C   UNL     1       1.488  12.689  20.845  0.00  0.00    +0.000 C 
ENDBRANCH  15  17
BRANCH  15  18
ATOM     18  C   UNL     1      -0.717  11.500  21.158  0.00  0.00    +0.000 C 
ATOM     19  C   UNL     1      -0.792  10.947  22.571  0.00  0.00    +0.000 C 
ENDBRANCH  15  18
ENDBRANCH  12  15
ENDBRANCH   6  12
ENDBRANCH   1  10
BRANCH   4  20
ATOM     20  S   UNL     1       6.748   4.552  16.352  0.00  0.00    +0.000 S 
BRANCH  20  21
ATOM     21  C   UNL     1       6.300   3.896  14.729  0.00  0.00    +0.000 C 
BRANCH  21  22
ATOM     22  C   UNL     1       7.071   4.555  13.584  0.00  0.00    +0.000 C 
ATOM     23  N   UNL     1       6.938   4.067  12.319  0.00  0.00    +0.000 N 
ATOM     24  O   UNL     1       7.826   5.508  13.777  0.00  0.00    +0.000 OA
ATOM     25  H   UNL     1       6.313   3.304  12.097  0.00  0.00    +0.000 HD
ATOM     26  H   UNL     1       7.450   4.521  11.576  0.00  0.00    +0.000 HD
ENDBRANCH  21  22
ENDBRANCH  20  21
ENDBRANCH   4  20
BRANCH   5  27
ATOM     27  C   UNL     1       5.078   5.301  19.111  0.00  0.00    +0.000 C 
BRANCH  27  28
ATOM     28  C   UNL     1       4.815   3.793  19.183  0.00  0.00    +0.000 C 
BRANCH  28  29
ATOM     29  C   UNL     1       3.344   3.520  19.359  0.00  0.00    +0.000 A 
ATOM     30  C   UNL     1       2.818   3.351  20.651  0.00  0.00    +0.000 A 
ATOM     31  C   UNL     1       1.471   3.043  20.825  0.00  0.00    +0.000 A 
ATOM     32  C   UNL     1       0.643   2.902  19.716  0.00  0.00    +0.000 A 
ATOM     33  C   UNL     1       1.153   3.078  18.431  0.00  0.00    +0.000 A 
ATOM     34  C   UNL     1       2.504   3.388  18.251  0.00  0.00    +0.000 A 
ENDBRANCH  28  29
ENDBRANCH  27  28
ENDBRANCH   5  27
TORSDOF 11
ENDMDL
MODEL 7
REMARK VINA RESULT:      -7.7      1.481      2.041
REMARK  Name = 
REMARK  13 active torsions:
REMARK  status: ('A' for Active; 'I' for Inactive)
REMARK    1  A    between atoms: C_1  and  C_2
REMARK    2  A    between atoms: C_2  and  N_3
REMARK    3  A    between atoms: N_3  and  C_4
REMARK    4  A    between atoms: N_3  and  S_6
REMARK    5  A    between atoms: C_4  and  C_5
REMARK    6  A    between atoms: S_6  and  C_9
REMARK    7  A    between atoms: C_13  and  C_14
REMARK    8  A    between atoms: C_17  and  S_18
REMARK    9  A    between atoms: S_18  and  C_19
REMARK   10  A    between atoms: C_19  and  C_20
REMARK   11  A    between atoms: N_23  and  C_24
REMARK   12  A    between atoms: C_24  and  C_25
REMARK   13  A    between atoms: C_25  and  C_26
REMARK                            x       y       z     vdW  Elec       q    Type
REMARK                         _______ _______ _______ _____ _____    ______ ____
ROOT
ATOM      1  C   UNL     1       4.080   6.561  17.567  0.00  0.00    +0.000 A 
ATOM      2  N   UNL     1       5.184   7.197  17.208  0.00  0.00    +0.000 NA
ATOM      3  N   UNL     1       5.901   6.410  16.348  0.00  0.00    +0.000 NA
ATOM      4  C   UNL     1       5.251   5.284  16.203  0.00  0.00    +0.000 A 
ATOM      5  N   UNL     1       4.126   5.287  16.998  0.00  0.00    +0.000 N 
ENDROOT
BRANCH   1  10
ATOM      6  C   UNL     1       1.712   9.121  19.098  0.00  0.00    +0.000 A 
ATOM      7  C   UNL     1       1.236   8.438  20.215  0.00  0.00    +0.000 A 
ATOM      8  C   UNL     1       1.648   7.127  20.420  0.00  0.00    +0.000 A 
ATOM      9  C   UNL     1       2.536   6.520  19.519  0.00  0.00    +0.000 A 
ATOM     10  C   UNL     1       3.017   7.195  18.379  0.00  0.00    +0.000 A 
ATOM     11  C   UNL     1       2.566   8.502  18.168  0.00  0.00    +0.000 A 
BRANCH   6  12
ATOM     12  S   UNL     1       1.329  10.849  18.914  0.00  0.00    +0.000 S 
ATOM     13  O   UNL     1       2.094  11.350  17.792  0.00  0.00    +0.000 OA
ATOM     14  O   UNL     1       1.421  11.460  20.222  0.00  0.00    +0.000 OA
BRANCH  12  15
ATOM     15  N   UNL     1      -0.334  10.804  18.474  0.00  0.00    +0.000 NA
BRANCH  15  17
ATOM     16  C   UNL     1      -2.093   9.834  16.956  0.00  0.00    +0.000 C 
ATOM     17  C   UNL     1      -0.696   9.697  17.537  0.00  0.00    +0.000 C 
ENDBRANCH  15  17
BRANCH  15  18
ATOM     18  C   UNL     1      -1.271  11.011  19.615  0.00  0.00    +0.000 C 
ATOM     19  C   UNL     1      -1.897  12.395  19.641  0.00  0.00    +0.000 C 
ENDBRANCH  15  18
ENDBRANCH  12  15
ENDBRANCH   6  12
ENDBRANCH   1  10
BRANCH   4  20
ATOM     20  S   UNL     1       5.716   4.003  15.137  0.00  0.00    +0.000 S 
BRANCH  20  21
ATOM     21  C   UNL     1       6.870   4.786  13.987  0.00  0.00    +0.000 C 
BRANCH  21  22
ATOM     22  C   UNL     1       6.890   4.116  12.612  0.00  0.00    +0.000 C 
ATOM     23  N   UNL     1       6.249   2.926  12.439  0.00  0.00    +0.000 N 
ATOM     24  O   UNL     1       7.485   4.615  11.657  0.00  0.00    +0.000 OA
ATOM     25  H   UNL     1       5.723   2.482  13.180  0.00  0.00    +0.000 HD
ATOM     26  H   UNL     1       6.268   2.503  11.522  0.00  0.00    +0.000 HD
ENDBRANCH  21  22
ENDBRANCH  20  21
ENDBRANCH   4  20
BRANCH   5  27
ATOM     27  C   UNL     1       3.117   4.258  17.172  0.00  0.00    +0.000 C 
BRANCH  27  28
ATOM     28  C   UNL     1       3.474   2.972  17.925  0.00  0.00    +0.000 C 
BRANCH  28  29
ATOM     29  C   UNL     1       2.725   2.897  19.229  0.00  0.00    +0.000 A 
ATOM     30  C   UNL     1       1.347   3.168  19.258  0.00  0.00    +0.000 A 
ATOM     31  C   UNL     1       0.654   3.157  20.465  0.00  0.00    +0.000 A 
ATOM     32  C   UNL     1       1.328   2.874  21.649  0.00  0.00    +0.000 A 
ATOM     33  C   UNL     1       2.693   2.593  21.630  0.00  0.00    +0.000 A 
ATOM     34  C   UNL     1       3.393   2.603  20.420  0.00  0.00    +0.000 A 
ENDBRANCH  28  29
ENDBRANCH  27  28
ENDBRANCH   5  27
TORSDOF 11
ENDMDL
MODEL 8
REMARK VINA RESULT:      -7.7      2.325      7.734
REMARK  Name = 
REMARK  13 active torsions:
REMARK  status: ('A' for Active; 'I' for Inactive)
REMARK    1  A    between atoms: C_1  and  C_2
REMARK    2  A    between atoms: C_2  and  N_3
REMARK    3  A    between atoms: N_3  and  C_4
REMARK    4  A    between atoms: N_3  and  S_6
REMARK    5  A    between atoms: C_4  and  C_5
REMARK    6  A    between atoms: S_6  and  C_9
REMARK    7  A    between atoms: C_13  and  C_14
REMARK    8  A    between atoms: C_17  and  S_18
REMARK    9  A    between atoms: S_18  and  C_19
REMARK   10  A    between atoms: C_19  and  C_20
REMARK   11  A    between atoms: N_23  and  C_24
REMARK   12  A    between atoms: C_24  and  C_25
REMARK   13  A    between atoms: C_25  and  C_26
REMARK                            x       y       z     vdW  Elec       q    Type
REMARK                         _______ _______ _______ _____ _____    ______ ____
ROOT
ATOM      1  C   UNL     1       2.707   7.478  18.018  0.00  0.00    +0.000 A 
ATOM      2  N   UNL     1       2.452   8.406  17.108  0.00  0.00    +0.000 NA
ATOM      3  N   UNL     1       1.799   9.453  17.701  0.00  0.00    +0.000 NA
ATOM      4  C   UNL     1       1.630   9.154  18.963  0.00  0.00    +0.000 A 
ATOM      5  N   UNL     1       2.121   7.891  19.216  0.00  0.00    +0.000 N 
ENDROOT
BRANCH   1  10
ATOM      6  C   UNL     1       5.541   5.195  16.894  0.00  0.00    +0.000 A 
ATOM      7  C   UNL     1       4.912   3.952  16.860  0.00  0.00    +0.000 A 
ATOM      8  C   UNL     1       3.585   3.867  17.265  0.00  0.00    +0.000 A 
ATOM      9  C   UNL     1       2.902   5.019  17.684  0.00  0.00    +0.000 A 
ATOM     10  C   UNL     1       3.529   6.280  17.733  0.00  0.00    +0.000 A 
ATOM     11  C   UNL     1       4.874   6.344  17.355  0.00  0.00    +0.000 A 
BRANCH   6  12
ATOM     12  S   UNL     1       7.180   5.350  16.220  0.00  0.00    +0.000 S 
ATOM     13  O   UNL     1       7.961   4.233  16.706  0.00  0.00    +0.000 OA
ATOM     14  O   UNL     1       7.611   6.716  16.424  0.00  0.00    +0.000 OA
BRANCH  12  15
ATOM     15  N   UNL     1       6.898   5.137  14.536  0.00  0.00    +0.000 NA
BRANCH  15  17
ATOM     16  C   UNL     1       7.783   5.326  12.186  0.00  0.00    +0.000 C 
ATOM     17  C   UNL     1       7.994   5.647  13.656  0.00  0.00    +0.000 C 
ENDBRANCH  15  17
BRANCH  15  18
ATOM     18  C   UNL     1       6.358   3.795  14.175  0.00  0.00    +0.000 C 
ATOM     19  C   UNL     1       5.147   3.856  13.260  0.00  0.00    +0.000 C 
ENDBRANCH  15  18
ENDBRANCH  12  15
ENDBRANCH   6  12
ENDBRANCH   1  10
BRANCH   4  20
ATOM     20  S   UNL     1       0.934  10.208  20.144  0.00  0.00    +0.000 S 
BRANCH  20  21
ATOM     21  C   UNL     1       0.650  11.750  19.244  0.00  0.00    +0.000 C 
BRANCH  21  22
ATOM     22  C   UNL     1      -0.751  11.838  18.637  0.00  0.00    +0.000 C 
ATOM     23  N   UNL     1      -1.095  10.993  17.625  0.00  0.00    +0.000 N 
ATOM     24  O   UNL     1      -1.574  12.665  19.027  0.00  0.00    +0.000 OA
ATOM     25  H   UNL     1      -0.470  10.277  17.282  0.00  0.00    +0.000 HD
ATOM     26  H   UNL     1      -2.028  11.062  17.242  0.00  0.00    +0.000 HD
ENDBRANCH  21  22
ENDBRANCH  20  21
ENDBRANCH   4  20
BRANCH   5  27
ATOM     27  C   UNL     1       2.142   7.142  20.459  0.00  0.00    +0.000 C 
BRANCH  27  28
ATOM     28  C   UNL     1       0.958   6.237  20.813  0.00  0.00    +0.000 C 
BRANCH  28  29
ATOM     29  C   UNL     1       1.328   4.788  20.640  0.00  0.00    +0.000 A 
ATOM     30  C   UNL     1       2.515   4.300  21.212  0.00  0.00    +0.000 A 
ATOM     31  C   UNL     1       2.898   2.976  21.013  0.00  0.00    +0.000 A 
ATOM     32  C   UNL     1       2.101   2.131  20.247  0.00  0.00    +0.000 A 
ATOM     33  C   UNL     1       0.916   2.603  19.684  0.00  0.00    +0.000 A 
ATOM     34  C   UNL     1       0.528   3.931  19.882  0.00  0.00    +0.000 A 
ENDBRANCH  28  29
ENDBRANCH  27  28
ENDBRANCH   5  27
TORSDOF 11
ENDMDL
MODEL 9
REMARK VINA RESULT:      -7.7      1.982      2.604
REMARK  Name = 
REMARK  13 active torsions:
REMARK  status: ('A' for Active; 'I' for Inactive)
REMARK    1  A    between atoms: C_1  and  C_2
REMARK    2  A    between atoms: C_2  and  N_3
REMARK    3  A    between atoms: N_3  and  C_4
REMARK    4  A    between atoms: N_3  and  S_6
REMARK    5  A    between atoms: C_4  and  C_5
REMARK    6  A    between atoms: S_6  and  C_9
REMARK    7  A    between atoms: C_13  and  C_14
REMARK    8  A    between atoms: C_17  and  S_18
REMARK    9  A    between atoms: S_18  and  C_19
REMARK   10  A    between atoms: C_19  and  C_20
REMARK   11  A    between atoms: N_23  and  C_24
REMARK   12  A    between atoms: C_24  and  C_25
REMARK   13  A    between atoms: C_25  and  C_26
REMARK                            x       y       z     vdW  Elec       q    Type
REMARK                         _______ _______ _______ _____ _____    ______ ____
ROOT
ATOM      1  C   UNL     1       3.361   6.282  18.750  0.00  0.00    +0.000 A 
ATOM      2  N   UNL     1       4.659   6.502  18.888  0.00  0.00    +0.000 NA
ATOM      3  N   UNL     1       5.348   5.706  18.014  0.00  0.00    +0.000 NA
ATOM      4  C   UNL     1       4.477   4.982  17.362  0.00  0.00    +0.000 A 
ATOM      5  N   UNL     1       3.206   5.247  17.825  0.00  0.00    +0.000 N 
ENDROOT
BRANCH   1  10
ATOM      6  C   UNL     1       1.208   9.187  19.948  0.00  0.00    +0.000 A 
ATOM      7  C   UNL     1       0.603   8.647  21.081  0.00  0.00    +0.000 A 
ATOM      8  C   UNL     1       0.859   7.319  21.404  0.00  0.00    +0.000 A 
ATOM      9  C   UNL     1       1.721   6.554  20.603  0.00  0.00    +0.000 A 
ATOM     10  C   UNL     1       2.332   7.085  19.449  0.00  0.00    +0.000 A 
ATOM     11  C   UNL     1       2.038   8.412  19.118  0.00  0.00    +0.000 A 
BRANCH   6  12
ATOM     12  S   UNL     1       1.026  10.926  19.619  0.00  0.00    +0.000 S 
ATOM     13  O   UNL     1       1.840  11.240  18.463  0.00  0.00    +0.000 OA
ATOM     14  O   UNL     1       1.193  11.629  20.871  0.00  0.00    +0.000 OA
BRANCH  12  15
ATOM     15  N   UNL     1      -0.632  11.036  19.174  0.00  0.00    +0.000 NA
BRANCH  15  17
ATOM     16  C   UNL     1      -0.624  13.412  18.342  0.00  0.00    +0.000 C 
ATOM     17  C   UNL     1      -1.219  12.404  19.310  0.00  0.00    +0.000 C 
ENDBRANCH  15  17
BRANCH  15  18
ATOM     18  C   UNL     1      -0.974  10.314  17.915  0.00  0.00    +0.000 C 
ATOM     19  C   UNL     1      -2.446   9.954  17.804  0.00  0.00    +0.000 C 
ENDBRANCH  15  18
ENDBRANCH  12  15
ENDBRANCH   6  12
ENDBRANCH   1  10
BRANCH   4  20
ATOM     20  S   UNL     1       4.861   3.887  16.079  0.00  0.00    +0.000 S 
BRANCH  20  21
ATOM     21  C   UNL     1       5.619   4.938  14.818  0.00  0.00    +0.000 C 
BRANCH  21  22
ATOM     22  C   UNL     1       7.142   5.007  14.935  0.00  0.00    +0.000 C 
ATOM     23  N   UNL     1       7.746   4.569  16.076  0.00  0.00    +0.000 N 
ATOM     24  O   UNL     1       7.841   5.465  14.031  0.00  0.00    +0.000 OA
ATOM     25  H   UNL     1       7.225   4.160  16.840  0.00  0.00    +0.000 HD
ATOM     26  H   UNL     1       8.753   4.617  16.131  0.00  0.00    +0.000 HD
ENDBRANCH  21  22
ENDBRANCH  20  21
ENDBRANCH   4  20
BRANCH   5  27
ATOM     27  C   UNL     1       1.936   4.679  17.412  0.00  0.00    +0.000 C 
BRANCH  27  28
ATOM     28  C   UNL     1       1.615   3.220  17.755  0.00  0.00    +0.000 C 
BRANCH  28  29
ATOM     29  C   UNL     1       1.905   2.942  19.207  0.00  0.00    +0.000 A 
ATOM     30  C   UNL     1       0.899   3.139  20.167  0.00  0.00    +0.000 A 
ATOM     31  C   UNL     1       1.169   2.939  21.519  0.00  0.00    +0.000 A 
ATOM     32  C   UNL     1       2.441   2.541  21.920  0.00  0.00    +0.000 A 
ATOM     33  C   UNL     1       3.443   2.333  20.973  0.00  0.00    +0.000 A 
ATOM     34  C   UNL     1       3.176   2.532  19.616  0.00  0.00    +0.000 A 
ENDBRANCH  28  29
ENDBRANCH  27  28
ENDBRANCH   5  27
TORSDOF 11
ENDMDL
