MODEL 1
REMARK VINA RESULT:      -6.7      0.000      0.000
REMARK  Name = 
REMARK  1 active torsions:
REMARK  status: ('A' for Active; 'I' for Inactive)
REMARK    1  A    between atoms: N_7  and  C_8
REMARK                            x       y       z     vdW  Elec       q    Type
REMARK                         _______ _______ _______ _____ _____    ______ ____
ROOT
ATOM      1  O   UNL     1       5.332   4.304  14.498  0.00  0.00    +0.000 OA
ATOM      2  C   UNL     1       6.009   4.388  15.511  0.00  0.00    +0.000 A 
ATOM      3  N   UNL     1       7.362   4.747  15.476  0.00  0.00    +0.000 N 
ATOM      4  N   UNL     1       7.741   5.070  16.770  0.00  0.00    +0.000 N 
ATOM      5  C   UNL     1       6.720   4.644  17.627  0.00  0.00    +0.000 A 
ATOM      6  O   UNL     1       6.878   4.557  18.836  0.00  0.00    +0.000 OA
ATOM      7  N   UNL     1       5.635   4.276  16.843  0.00  0.00    +0.000 N 
ATOM      8  H   UNL     1       7.683   5.288  14.680  0.00  0.00    +0.000 HD
ATOM      9  H   UNL     1       8.698   4.952  17.087  0.00  0.00    +0.000 HD
ENDROOT
BRANCH   7  10
ATOM     10  C   UNL     1       4.366   3.859  17.320  0.00  0.00    +0.000 A 
ATOM     11  C   UNL     1       4.107   2.511  17.617  0.00  0.00    +0.000 A 
ATOM     12  C   UNL     1       2.857   2.097  18.095  0.00  0.00    +0.000 A 
ATOM     13  C   UNL     1       1.839   3.027  18.267  0.00  0.00    +0.000 A 
ATOM     14 CL   UNL     1       0.300   2.520  18.841  0.00  0.00    +0.000 Cl
ATOM     15  C   UNL     1       2.065   4.367  17.975  0.00  0.00    +0.000 A 
ATOM     16  C   UNL     1       3.323   4.779  17.513  0.00  0.00    +0.000 A 
ENDBRANCH   7  10
TORSDOF 1
ENDMDL
MODEL 2
REMARK VINA RESULT:      -6.7      1.520      1.985
REMARK  Name = 
REMARK  1 active torsions:
REMARK  status: ('A' for Active; 'I' for Inactive)
REMARK    1  A    between atoms: N_7  and  C_8
REMARK                            x       y       z     vdW  Elec       q    Type
REMARK                         _______ _______ _______ _____ _____    ______ ____
ROOT
ATOM      1  O   UNL     1       5.485   6.537  15.634  0.00  0.00    +0.000 OA
ATOM      2  C   UNL     1       6.137   6.297  16.639  0.00  0.00    +0.000 A 
ATOM      3  N   UNL     1       7.430   6.801  16.827  0.00  0.00    +0.000 N 
ATOM      4  N   UNL     1       7.752   6.633  18.165  0.00  0.00    +0.000 N 
ATOM      5  C   UNL     1       6.790   5.785  18.727  0.00  0.00    +0.000 A 
ATOM      6  O   UNL     1       6.948   5.250  19.814  0.00  0.00    +0.000 OA
ATOM      7  N   UNL     1       5.771   5.627  17.798  0.00  0.00    +0.000 N 
ATOM      8  H   UNL     1       7.681   7.645  16.325  0.00  0.00    +0.000 HD
ATOM      9  H   UNL     1       8.713   6.516  18.468  0.00  0.00    +0.000 HD
ENDROOT
BRANCH   7  10
ATOM     10  C   UNL     1       4.565   4.908  17.999  0.00  0.00    +0.000 A 
ATOM     11  C   UNL     1       3.483   5.479  18.689  0.00  0.00    +0.000 A 
ATOM     12  C   UNL     1       2.288   4.775  18.883  0.00  0.00    +0.000 A 
ATOM     13  C   UNL     1       2.164   3.476  18.403  0.00  0.00    +0.000 A 
ATOM     14 CL   UNL     1       0.704   2.604  18.651  0.00  0.00    +0.000 Cl
ATOM     15  C   UNL     1       3.222   2.883  17.723  0.00  0.00    +0.000 A 
ATOM     16  C   UNL     1       4.409   3.598  17.516  0.00  0.00    +0.000 A 
ENDBRANCH   7  10
TORSDOF 1
ENDMDL
MODEL 3
REMARK VINA RESULT:      -6.7      1.551      1.632
REMARK  Name = 
REMARK  1 active torsions:
REMARK  status: ('A' for Active; 'I' for Inactive)
REMARK    1  A    between atoms: N_7  and  C_8
REMARK                            x       y       z     vdW  Elec       q    Type
REMARK                         _______ _______ _______ _____ _____    ______ ____
ROOT
ATOM      1  O   UNL     1       5.504   6.598  15.661  0.00  0.00    +0.000 OA
ATOM      2  C   UNL     1       6.162   6.344  16.658  0.00  0.00    +0.000 A 
ATOM      3  N   UNL     1       7.455   6.845  16.847  0.00  0.00    +0.000 N 
ATOM      4  N   UNL     1       7.786   6.658  18.180  0.00  0.00    +0.000 N 
ATOM      5  C   UNL     1       6.827   5.801  18.735  0.00  0.00    +0.000 A 
ATOM      6  O   UNL     1       6.993   5.250  19.813  0.00  0.00    +0.000 OA
ATOM      7  N   UNL     1       5.803   5.656  17.809  0.00  0.00    +0.000 N 
ATOM      8  H   UNL     1       7.703   7.697  16.355  0.00  0.00    +0.000 HD
ATOM      9  H   UNL     1       8.749   6.537  18.475  0.00  0.00    +0.000 HD
ENDROOT
BRANCH   7  10
ATOM     10  C   UNL     1       4.599   4.932  18.007  0.00  0.00    +0.000 A 
ATOM     11  C   UNL     1       4.438   3.634  17.495  0.00  0.00    +0.000 A 
ATOM     12  C   UNL     1       3.253   2.914  17.694  0.00  0.00    +0.000 A 
ATOM     13  C   UNL     1       2.201   3.492  18.396  0.00  0.00    +0.000 A 
ATOM     14 CL   UNL     1       0.741   2.616  18.630  0.00  0.00    +0.000 Cl
ATOM     15  C   UNL     1       2.331   4.778  18.907  0.00  0.00    +0.000 A 
ATOM     16  C   UNL     1       3.524   5.488  18.721  0.00  0.00    +0.000 A 
ENDBRANCH   7  10
TORSDOF 1
ENDMDL
MODEL 4
REMARK VINA RESULT:      -6.7      1.460      2.480
REMARK  Name = 
REMARK  1 active torsions:
REMARK  status: ('A' for Active; 'I' for Inactive)
REMARK    1  A    between atoms: N_7  and  C_8
REMARK                            x       y       z     vdW  Elec       q    Type
REMARK                         _______ _______ _______ _____ _____    ______ ____
ROOT
ATOM      1  O   UNL     1       6.916   5.225  19.814  0.00  0.00    +0.000 OA
ATOM      2  C   UNL     1       6.764   5.742  18.718  0.00  0.00    +0.000 A 
ATOM      3  N   UNL     1       7.733   6.573  18.144  0.00  0.00    +0.000 N 
ATOM      4  N   UNL     1       7.416   6.720  16.803  0.00  0.00    +0.000 N 
ATOM      5  C   UNL     1       6.121   6.221  16.619  0.00  0.00    +0.000 A 
ATOM      6  O   UNL     1       5.473   6.448  15.607  0.00  0.00    +0.000 OA
ATOM      7  N   UNL     1       5.747   5.573  17.788  0.00  0.00    +0.000 N 
ATOM      8  H   UNL     1       8.693   6.455  18.451  0.00  0.00    +0.000 HD
ATOM      9  H   UNL     1       7.676   7.553  16.285  0.00  0.00    +0.000 HD
ENDROOT
BRANCH   7  10
ATOM     10  C   UNL     1       4.538   4.861  17.995  0.00  0.00    +0.000 A 
ATOM     11  C   UNL     1       4.439   3.492  17.692  0.00  0.00    +0.000 A 
ATOM     12  C   UNL     1       3.249   2.784  17.901  0.00  0.00    +0.000 A 
ATOM     13  C   UNL     1       2.131   3.441  18.403  0.00  0.00    +0.000 A 
ATOM     14 CL   UNL     1       0.666   2.577  18.649  0.00  0.00    +0.000 Cl
ATOM     15  C   UNL     1       2.199   4.796  18.705  0.00  0.00    +0.000 A 
ATOM     16  C   UNL     1       3.397   5.497  18.510  0.00  0.00    +0.000 A 
ENDBRANCH   7  10
TORSDOF 1
ENDMDL
MODEL 5
REMARK VINA RESULT:      -6.7      1.483      2.776
REMARK  Name = 
REMARK  1 active torsions:
REMARK  status: ('A' for Active; 'I' for Inactive)
REMARK    1  A    between atoms: N_7  and  C_8
REMARK                            x       y       z     vdW  Elec       q    Type
REMARK                         _______ _______ _______ _____ _____    ______ ____
ROOT
ATOM      1  O   UNL     1       6.903   5.232  19.807  0.00  0.00    +0.000 OA
ATOM      2  C   UNL     1       6.754   5.763  18.716  0.00  0.00    +0.000 A 
ATOM      3  N   UNL     1       7.724   6.603  18.157  0.00  0.00    +0.000 N 
ATOM      4  N   UNL     1       7.412   6.766  16.817  0.00  0.00    +0.000 N 
ATOM      5  C   UNL     1       6.118   6.268  16.621  0.00  0.00    +0.000 A 
ATOM      6  O   UNL     1       5.474   6.507  15.610  0.00  0.00    +0.000 OA
ATOM      7  N   UNL     1       5.741   5.604  17.780  0.00  0.00    +0.000 N 
ATOM      8  H   UNL     1       8.683   6.482  18.466  0.00  0.00    +0.000 HD
ATOM      9  H   UNL     1       7.672   7.607  16.311  0.00  0.00    +0.000 HD
ENDROOT
BRANCH   7  10
ATOM     10  C   UNL     1       4.532   4.887  17.973  0.00  0.00    +0.000 A 
ATOM     11  C   UNL     1       3.391   5.513  18.503  0.00  0.00    +0.000 A 
ATOM     12  C   UNL     1       2.194   4.810  18.688  0.00  0.00    +0.000 A 
ATOM     13  C   UNL     1       2.126   3.461  18.362  0.00  0.00    +0.000 A 
ATOM     14 CL   UNL     1       0.662   2.592  18.601  0.00  0.00    +0.000 Cl
ATOM     15  C   UNL     1       3.242   2.814  17.843  0.00  0.00    +0.000 A 
ATOM     16  C   UNL     1       4.433   3.526  17.643  0.00  0.00    +0.000 A 
ENDBRANCH   7  10
TORSDOF 1
ENDMDL
MODEL 6
REMARK VINA RESULT:      -6.6      0.807      2.123
REMARK  Name = 
REMARK  1 active torsions:
REMARK  status: ('A' for Active; 'I' for Inactive)
REMARK    1  A    between atoms: N_7  and  C_8
REMARK                            x       y       z     vdW  Elec       q    Type
REMARK                         _______ _______ _______ _____ _____    ______ ____
ROOT
ATOM      1  O   UNL     1       6.542   5.237  19.656  0.00  0.00    +0.000 OA
ATOM      2  C   UNL     1       6.645   5.011  18.460  0.00  0.00    +0.000 A 
ATOM      3  N   UNL     1       7.801   5.330  17.737  0.00  0.00    +0.000 N 
ATOM      4  N   UNL     1       7.733   4.662  16.525  0.00  0.00    +0.000 N 
ATOM      5  C   UNL     1       6.430   4.169  16.387  0.00  0.00    +0.000 A 
ATOM      6  O   UNL     1       5.995   3.765  15.319  0.00  0.00    +0.000 OA
ATOM      7  N   UNL     1       5.782   4.340  17.603  0.00  0.00    +0.000 N 
ATOM      8  H   UNL     1       8.671   5.401  18.254  0.00  0.00    +0.000 HD
ATOM      9  H   UNL     1       8.186   5.026  15.693  0.00  0.00    +0.000 HD
ENDROOT
BRANCH   7  10
ATOM     10  C   UNL     1       4.469   3.904  17.916  0.00  0.00    +0.000 A 
ATOM     11  C   UNL     1       4.250   2.738  18.670  0.00  0.00    +0.000 A 
ATOM     12  C   UNL     1       2.956   2.308  18.987  0.00  0.00    +0.000 A 
ATOM     13  C   UNL     1       1.857   3.031  18.538  0.00  0.00    +0.000 A 
ATOM     14 CL   UNL     1       0.266   2.498  18.915  0.00  0.00    +0.000 Cl
ATOM     15  C   UNL     1       2.044   4.184  17.785  0.00  0.00    +0.000 A 
ATOM     16  C   UNL     1       3.341   4.620  17.485  0.00  0.00    +0.000 A 
ENDBRANCH   7  10
TORSDOF 1
ENDMDL
MODEL 7
REMARK VINA RESULT:      -6.6      0.810      2.444
REMARK  Name = 
REMARK  1 active torsions:
REMARK  status: ('A' for Active; 'I' for Inactive)
REMARK    1  A    between atoms: N_7  and  C_8
REMARK                            x       y       z     vdW  Elec       q    Type
REMARK                         _______ _______ _______ _____ _____    ______ ____
ROOT
ATOM      1  O   UNL     1       6.529   5.255  19.657  0.00  0.00    +0.000 OA
ATOM      2  C   UNL     1       6.639   5.021  18.463  0.00  0.00    +0.000 A 
ATOM      3  N   UNL     1       7.797   5.341  17.745  0.00  0.00    +0.000 N 
ATOM      4  N   UNL     1       7.739   4.665  16.536  0.00  0.00    +0.000 N 
ATOM      5  C   UNL     1       6.438   4.166  16.395  0.00  0.00    +0.000 A 
ATOM      6  O   UNL     1       6.011   3.753  15.327  0.00  0.00    +0.000 OA
ATOM      7  N   UNL     1       5.784   4.342  17.607  0.00  0.00    +0.000 N 
ATOM      8  H   UNL     1       8.665   5.420  18.265  0.00  0.00    +0.000 HD
ATOM      9  H   UNL     1       8.194   5.026  15.704  0.00  0.00    +0.000 HD
ENDROOT
BRANCH   7  10
ATOM     10  C   UNL     1       4.471   3.901  17.916  0.00  0.00    +0.000 A 
ATOM     11  C   UNL     1       3.343   4.625  17.496  0.00  0.00    +0.000 A 
ATOM     12  C   UNL     1       2.045   4.190  17.793  0.00  0.00    +0.000 A 
ATOM     13  C   UNL     1       1.857   3.029  18.533  0.00  0.00    +0.000 A 
ATOM     14 CL   UNL     1       0.266   2.498  18.911  0.00  0.00    +0.000 Cl
ATOM     15  C   UNL     1       2.956   2.296  18.968  0.00  0.00    +0.000 A 
ATOM     16  C   UNL     1       4.252   2.726  18.653  0.00  0.00    +0.000 A 
ENDBRANCH   7  10
TORSDOF 1
ENDMDL
MODEL 8
REMARK VINA RESULT:      -6.6      0.703      2.099
REMARK  Name = 
REMARK  1 active torsions:
REMARK  status: ('A' for Active; 'I' for Inactive)
REMARK    1  A    between atoms: N_7  and  C_8
REMARK                            x       y       z     vdW  Elec       q    Type
REMARK                         _______ _______ _______ _____ _____    ______ ____
ROOT
ATOM      1  O   UNL     1       6.547   5.844  18.662  0.00  0.00    +0.000 OA
ATOM      2  C   UNL     1       6.463   5.686  17.454  0.00  0.00    +0.000 A 
ATOM      3  N   UNL     1       7.437   6.163  16.569  0.00  0.00    +0.000 N 
ATOM      4  N   UNL     1       7.226   5.548  15.345  0.00  0.00    +0.000 N 
ATOM      5  C   UNL     1       5.976   4.922  15.398  0.00  0.00    +0.000 A 
ATOM      6  O   UNL     1       5.405   4.521  14.394  0.00  0.00    +0.000 OA
ATOM      7  N   UNL     1       5.536   4.964  16.714  0.00  0.00    +0.000 N 
ATOM      8  H   UNL     1       8.373   6.307  16.935  0.00  0.00    +0.000 HD
ATOM      9  H   UNL     1       7.489   5.998  14.474  0.00  0.00    +0.000 HD
ENDROOT
BRANCH   7  10
ATOM     10  C   UNL     1       4.349   4.372  17.215  0.00  0.00    +0.000 A 
ATOM     11  C   UNL     1       4.234   2.978  17.356  0.00  0.00    +0.000 A 
ATOM     12  C   UNL     1       3.066   2.391  17.857  0.00  0.00    +0.000 A 
ATOM     13  C   UNL     1       1.985   3.190  18.209  0.00  0.00    +0.000 A 
ATOM     14 CL   UNL     1       0.545   2.470  18.812  0.00  0.00    +0.000 Cl
ATOM     15  C   UNL     1       2.068   4.570  18.073  0.00  0.00    +0.000 A 
ATOM     16  C   UNL     1       3.245   5.156  17.587  0.00  0.00    +0.000 A 
ENDBRANCH   7  10
TORSDOF 1
ENDMDL
MODEL 9
REMARK VINA RESULT:      -6.6      0.804      1.475
REMARK  Name = 
REMARK  1 active torsions:
REMARK  status: ('A' for Active; 'I' for Inactive)
REMARK    1  A    between atoms: N_7  and  C_8
REMARK                            x       y       z     vdW  Elec       q    Type
REMARK                         _______ _______ _______ _____ _____    ______ ____
ROOT
ATOM      1  O   UNL     1       6.014   3.753  15.319  0.00  0.00    +0.000 OA
ATOM      2  C   UNL     1       6.439   4.165  16.388  0.00  0.00    +0.000 A 
ATOM      3  N   UNL     1       7.736   4.671  16.530  0.00  0.00    +0.000 N 
ATOM      4  N   UNL     1       7.791   5.344  17.741  0.00  0.00    +0.000 N 
ATOM      5  C   UNL     1       6.635   5.014  18.459  0.00  0.00    +0.000 A 
ATOM      6  O   UNL     1       6.523   5.243  19.654  0.00  0.00    +0.000 OA
ATOM      7  N   UNL     1       5.784   4.333  17.600  0.00  0.00    +0.000 N 
ATOM      8  H   UNL     1       8.189   5.039  15.700  0.00  0.00    +0.000 HD
ATOM      9  H   UNL     1       8.658   5.427  18.262  0.00  0.00    +0.000 HD
ENDROOT
BRANCH   7  10
ATOM     10  C   UNL     1       4.472   3.889  17.907  0.00  0.00    +0.000 A 
ATOM     11  C   UNL     1       3.342   4.609  17.485  0.00  0.00    +0.000 A 
ATOM     12  C   UNL     1       2.045   4.170  17.780  0.00  0.00    +0.000 A 
ATOM     13  C   UNL     1       1.859   3.008  18.520  0.00  0.00    +0.000 A 
ATOM     14 CL   UNL     1       0.269   2.474  18.895  0.00  0.00    +0.000 Cl
ATOM     15  C   UNL     1       2.960   2.279  18.957  0.00  0.00    +0.000 A 
ATOM     16  C   UNL     1       4.255   2.713  18.644  0.00  0.00    +0.000 A 
ENDBRANCH   7  10
TORSDOF 1
ENDMDL
