MODEL 1
REMARK VINA RESULT:      -7.6      0.000      0.000
REMARK  Name = 
REMARK  5 active torsions:
REMARK  status: ('A' for Active; 'I' for Inactive)
REMARK    1  A    between atoms: C_1  and  C_2
REMARK    2  A    between atoms: C_2  and  N_3
REMARK    3  A    between atoms: C_7  and  C_9
REMARK    4  A    between atoms: N_15  and  C_16
REMARK    5  A    between atoms: C_16  and  C_17
REMARK                            x       y       z     vdW  Elec       q    Type
REMARK                         _______ _______ _______ _____ _____    ______ ____
ROOT
ATOM      1  C   UNL     1       1.753   8.318  19.642  0.00  0.00    +0.000 A 
ATOM      2  C   UNL     1       1.608   8.287  21.033  0.00  0.00    +0.000 A 
ATOM      3  C   UNL     1       0.988   9.342  21.707  0.00  0.00    +0.000 A 
ATOM      4  C   UNL     1       0.591  10.492  21.013  0.00  0.00    +0.000 A 
ATOM      5  C   UNL     1       0.798  10.568  19.632  0.00  0.00    +0.000 A 
ATOM      6  C   UNL     1       1.363   9.476  18.956  0.00  0.00    +0.000 A 
ATOM      7  N   UNL     1       0.553  11.752  18.890  0.00  0.00    +0.000 N 
ATOM      8  C   UNL     1      -0.688  12.378  18.766  0.00  0.00    +0.000 C 
ATOM      9  O   UNL     1      -0.904  13.151  17.825  0.00  0.00    +0.000 OA
ATOM     10  C   UNL     1      -1.788  12.226  19.755  0.00  0.00    +0.000 A 
ATOM     11  C   UNL     1      -3.088  12.482  19.267  0.00  0.00    +0.000 A 
ATOM     12  C   UNL     1      -4.171  12.636  20.137  0.00  0.00    +0.000 A 
ATOM     13  C   UNL     1      -3.975  12.517  21.507  0.00  0.00    +0.000 A 
ATOM     14  C   UNL     1      -2.700  12.241  22.002  0.00  0.00    +0.000 A 
ATOM     15  C   UNL     1      -1.597  12.098  21.138  0.00  0.00    +0.000 A 
ATOM     16  S   UNL     1      -0.024  11.874  21.943  0.00  0.00    +0.000 S 
ENDROOT
BRANCH   1  21
ATOM     17  N   UNL     1       2.838   3.332  20.634  0.00  0.00    +0.000 NA
ATOM     18  C   UNL     1       3.695   3.840  19.532  0.00  0.00    +0.000 C 
ATOM     19  C   UNL     1       3.039   4.857  18.565  0.00  0.00    +0.000 C 
ATOM     20  N   UNL     1       2.299   5.901  19.291  0.00  0.00    +0.000 N 
ATOM     21  C   UNL     1       2.398   7.227  18.874  0.00  0.00    +0.000 C 
ATOM     22  O   UNL     1       3.036   7.551  17.868  0.00  0.00    +0.000 OA
ATOM     23  C   UNL     1       1.378   5.358  20.291  0.00  0.00    +0.000 C 
ATOM     24  C   UNL     1       2.166   4.484  21.284  0.00  0.00    +0.000 C 
BRANCH  17  26
ATOM     25  C   UNL     1       2.049   1.772  18.821  0.00  0.00    +0.000 C 
ATOM     26  C   UNL     1       1.835   2.340  20.216  0.00  0.00    +0.000 C 
ENDBRANCH  17  26
ENDBRANCH   1  21
BRANCH   7  27
ATOM     27  C   UNL     1       1.725  12.563  18.542  0.00  0.00    +0.000 C 
BRANCH  27  28
ATOM     28  C   UNL     1       2.011  13.740  19.434  0.00  0.00    +0.000 A 
ATOM     29  C   UNL     1       1.594  15.033  19.073  0.00  0.00    +0.000 A 
ATOM     30  C   UNL     1       1.918  16.134  19.867  0.00  0.00    +0.000 A 
ATOM     31  C   UNL     1       2.667  15.960  21.029  0.00  0.00    +0.000 A 
ATOM     32  C   UNL     1       3.074  14.682  21.395  0.00  0.00    +0.000 A 
ATOM     33  F   UNL     1       3.802  14.518  22.506  0.00  0.00    +0.000 F 
ATOM     34  C   UNL     1       2.751  13.580  20.616  0.00  0.00    +0.000 A 
ENDBRANCH  27  28
ENDBRANCH   7  27
TORSDOF 4
ENDMDL
MODEL 2
REMARK VINA RESULT:      -7.6      0.808      1.155
REMARK  Name = 
REMARK  5 active torsions:
REMARK  status: ('A' for Active; 'I' for Inactive)
REMARK    1  A    between atoms: C_1  and  C_2
REMARK    2  A    between atoms: C_2  and  N_3
REMARK    3  A    between atoms: C_7  and  C_9
REMARK    4  A    between atoms: N_15  and  C_16
REMARK    5  A    between atoms: C_16  and  C_17
REMARK                            x       y       z     vdW  Elec       q    Type
REMARK                         _______ _______ _______ _____ _____    ______ ____
ROOT
ATOM      1  C   UNL     1       1.761   8.303  19.628  0.00  0.00    +0.000 A 
ATOM      2  C   UNL     1       1.611   8.269  21.018  0.00  0.00    +0.000 A 
ATOM      3  C   UNL     1       0.989   9.324  21.692  0.00  0.00    +0.000 A 
ATOM      4  C   UNL     1       0.598  10.476  21.000  0.00  0.00    +0.000 A 
ATOM      5  C   UNL     1       0.811  10.555  19.619  0.00  0.00    +0.000 A 
ATOM      6  C   UNL     1       1.376   9.463  18.943  0.00  0.00    +0.000 A 
ATOM      7  N   UNL     1       0.571  11.741  18.879  0.00  0.00    +0.000 N 
ATOM      8  C   UNL     1      -0.668  12.370  18.752  0.00  0.00    +0.000 C 
ATOM      9  O   UNL     1      -0.879  13.145  17.811  0.00  0.00    +0.000 OA
ATOM     10  C   UNL     1      -1.773  12.218  19.736  0.00  0.00    +0.000 A 
ATOM     11  C   UNL     1      -3.070  12.477  19.243  0.00  0.00    +0.000 A 
ATOM     12  C   UNL     1      -4.156  12.632  20.109  0.00  0.00    +0.000 A 
ATOM     13  C   UNL     1      -3.966  12.510  21.479  0.00  0.00    +0.000 A 
ATOM     14  C   UNL     1      -2.694  12.230  21.979  0.00  0.00    +0.000 A 
ATOM     15  C   UNL     1      -1.588  12.086  21.119  0.00  0.00    +0.000 A 
ATOM     16  S   UNL     1      -0.018  11.857  21.930  0.00  0.00    +0.000 S 
ENDROOT
BRANCH   1  21
ATOM     17  N   UNL     1       2.840   3.314  20.617  0.00  0.00    +0.000 NA
ATOM     18  C   UNL     1       3.699   3.823  19.517  0.00  0.00    +0.000 C 
ATOM     19  C   UNL     1       3.046   4.842  18.549  0.00  0.00    +0.000 C 
ATOM     20  N   UNL     1       2.306   5.886  19.275  0.00  0.00    +0.000 N 
ATOM     21  C   UNL     1       2.407   7.212  18.860  0.00  0.00    +0.000 C 
ATOM     22  O   UNL     1       3.048   7.537  17.856  0.00  0.00    +0.000 OA
ATOM     23  C   UNL     1       1.382   5.343  20.272  0.00  0.00    +0.000 C 
ATOM     24  C   UNL     1       2.167   4.466  21.267  0.00  0.00    +0.000 C 
BRANCH  17  26
ATOM     25  C   UNL     1       2.071   1.735  18.812  0.00  0.00    +0.000 C 
ATOM     26  C   UNL     1       1.836   2.324  20.195  0.00  0.00    +0.000 C 
ENDBRANCH  17  26
ENDBRANCH   1  21
BRANCH   7  27
ATOM     27  C   UNL     1       1.746  12.550  18.537  0.00  0.00    +0.000 C 
BRANCH  27  28
ATOM     28  C   UNL     1       2.032  13.724  19.433  0.00  0.00    +0.000 A 
ATOM     29  C   UNL     1       2.671  13.542  20.673  0.00  0.00    +0.000 A 
ATOM     30  C   UNL     1       2.875  14.620  21.534  0.00  0.00    +0.000 A 
ATOM     31  C   UNL     1       2.439  15.894  21.174  0.00  0.00    +0.000 A 
ATOM     32  C   UNL     1       1.815  16.080  19.945  0.00  0.00    +0.000 A 
ATOM     33  F   UNL     1       1.389  17.303  19.604  0.00  0.00    +0.000 F 
ATOM     34  C   UNL     1       1.614  15.016  19.078  0.00  0.00    +0.000 A 
ENDBRANCH  27  28
ENDBRANCH   7  27
TORSDOF 4
ENDMDL
MODEL 3
REMARK VINA RESULT:      -7.4      3.092      7.833
REMARK  Name = 
REMARK  5 active torsions:
REMARK  status: ('A' for Active; 'I' for Inactive)
REMARK    1  A    between atoms: C_1  and  C_2
REMARK    2  A    between atoms: C_2  and  N_3
REMARK    3  A    between atoms: C_7  and  C_9
REMARK    4  A    between atoms: N_15  and  C_16
REMARK    5  A    between atoms: C_16  and  C_17
REMARK                            x       y       z     vdW  Elec       q    Type
REMARK                         _______ _______ _______ _____ _____    ______ ____
ROOT
ATOM      1  C   UNL     1      -3.246  11.520  18.724  0.00  0.00    +0.000 A 
ATOM      2  C   UNL     1      -2.689  11.408  17.446  0.00  0.00    +0.000 A 
ATOM      3  C   UNL     1      -1.345  11.061  17.285  0.00  0.00    +0.000 A 
ATOM      4  C   UNL     1      -0.510  10.917  18.400  0.00  0.00    +0.000 A 
ATOM      5  C   UNL     1      -1.037  11.101  19.683  0.00  0.00    +0.000 A 
ATOM      6  C   UNL     1      -2.403  11.385  19.835  0.00  0.00    +0.000 A 
ATOM      7  N   UNL     1      -0.224  11.111  20.845  0.00  0.00    +0.000 N 
ATOM      8  C   UNL     1       0.555  10.042  21.288  0.00  0.00    +0.000 C 
ATOM      9  O   UNL     1       0.916   9.982  22.470  0.00  0.00    +0.000 OA
ATOM     10  C   UNL     1       1.054   8.962  20.395  0.00  0.00    +0.000 A 
ATOM     11  C   UNL     1       1.371   7.742  21.031  0.00  0.00    +0.000 A 
ATOM     12  C   UNL     1       2.090   6.745  20.367  0.00  0.00    +0.000 A 
ATOM     13  C   UNL     1       2.487   6.944  19.051  0.00  0.00    +0.000 A 
ATOM     14  C   UNL     1       2.160   8.135  18.402  0.00  0.00    +0.000 A 
ATOM     15  C   UNL     1       1.448   9.154  19.064  0.00  0.00    +0.000 A 
ATOM     16  S   UNL     1       1.226  10.656  18.132  0.00  0.00    +0.000 S 
ENDROOT
BRANCH   1  21
ATOM     17  N   UNL     1      -5.894  13.418  22.776  0.00  0.00    +0.000 NA
ATOM     18  C   UNL     1      -6.815  12.749  21.821  0.00  0.00    +0.000 C 
ATOM     19  C   UNL     1      -6.468  12.890  20.318  0.00  0.00    +0.000 C 
ATOM     20  N   UNL     1      -5.040  12.640  20.062  0.00  0.00    +0.000 N 
ATOM     21  C   UNL     1      -4.665  11.881  18.956  0.00  0.00    +0.000 C 
ATOM     22  O   UNL     1      -5.490  11.462  18.138  0.00  0.00    +0.000 OA
ATOM     23  C   UNL     1      -4.159  13.405  20.946  0.00  0.00    +0.000 C 
ATOM     24  C   UNL     1      -4.498  13.072  22.412  0.00  0.00    +0.000 C 
BRANCH  17  26
ATOM     25  C   UNL     1      -5.170  15.561  23.883  0.00  0.00    +0.000 C 
ATOM     26  C   UNL     1      -6.045  14.880  22.841  0.00  0.00    +0.000 C 
ENDBRANCH  17  26
ENDBRANCH   1  21
BRANCH   7  27
ATOM     27  C   UNL     1       0.104  12.427  21.405  0.00  0.00    +0.000 C 
BRANCH  27  28
ATOM     28  C   UNL     1       0.823  13.380  20.490  0.00  0.00    +0.000 A 
ATOM     29  C   UNL     1       2.226  13.372  20.402  0.00  0.00    +0.000 A 
ATOM     30  C   UNL     1       2.896  14.301  19.605  0.00  0.00    +0.000 A 
ATOM     31  C   UNL     1       2.176  15.255  18.888  0.00  0.00    +0.000 A 
ATOM     32  C   UNL     1       0.787  15.261  18.965  0.00  0.00    +0.000 A 
ATOM     33  F   UNL     1       0.097  16.184  18.283  0.00  0.00    +0.000 F 
ATOM     34  C   UNL     1       0.111  14.337  19.749  0.00  0.00    +0.000 A 
ENDBRANCH  27  28
ENDBRANCH   7  27
TORSDOF 4
ENDMDL
MODEL 4
REMARK VINA RESULT:      -7.4      3.519      8.135
REMARK  Name = 
REMARK  5 active torsions:
REMARK  status: ('A' for Active; 'I' for Inactive)
REMARK    1  A    between atoms: C_1  and  C_2
REMARK    2  A    between atoms: C_2  and  N_3
REMARK    3  A    between atoms: C_7  and  C_9
REMARK    4  A    between atoms: N_15  and  C_16
REMARK    5  A    between atoms: C_16  and  C_17
REMARK                            x       y       z     vdW  Elec       q    Type
REMARK                         _______ _______ _______ _____ _____    ______ ____
ROOT
ATOM      1  C   UNL     1      -4.001  11.741  18.670  0.00  0.00    +0.000 A 
ATOM      2  C   UNL     1      -3.372  11.557  17.434  0.00  0.00    +0.000 A 
ATOM      3  C   UNL     1      -1.998  11.312  17.366  0.00  0.00    +0.000 A 
ATOM      4  C   UNL     1      -1.212  11.344  18.525  0.00  0.00    +0.000 A 
ATOM      5  C   UNL     1      -1.818  11.602  19.760  0.00  0.00    +0.000 A 
ATOM      6  C   UNL     1      -3.209  11.783  19.824  0.00  0.00    +0.000 A 
ATOM      7  N   UNL     1      -1.070  11.790  20.950  0.00  0.00    +0.000 N 
ATOM      8  C   UNL     1      -0.231  10.837  21.529  0.00  0.00    +0.000 C 
ATOM      9  O   UNL     1       0.072  10.919  22.725  0.00  0.00    +0.000 OA
ATOM     10  C   UNL     1       0.398   9.724  20.768  0.00  0.00    +0.000 A 
ATOM     11  C   UNL     1       0.778   8.600  21.533  0.00  0.00    +0.000 A 
ATOM     12  C   UNL     1       1.609   7.610  21.001  0.00  0.00    +0.000 A 
ATOM     13  C   UNL     1       2.056   7.718  19.691  0.00  0.00    +0.000 A 
ATOM     14  C   UNL     1       1.668   8.811  18.915  0.00  0.00    +0.000 A 
ATOM     15  C   UNL     1       0.843   9.824  19.443  0.00  0.00    +0.000 A 
ATOM     16  S   UNL     1       0.550  11.207  18.360  0.00  0.00    +0.000 S 
ENDROOT
BRANCH   1  21
ATOM     17  N   UNL     1      -7.034  13.525  22.497  0.00  0.00    +0.000 NA
ATOM     18  C   UNL     1      -7.841  12.769  21.505  0.00  0.00    +0.000 C 
ATOM     19  C   UNL     1      -7.410  12.902  20.023  0.00  0.00    +0.000 C 
ATOM     20  N   UNL     1      -5.954  12.754  19.863  0.00  0.00    +0.000 N 
ATOM     21  C   UNL     1      -5.454  12.000  18.803  0.00  0.00    +0.000 C 
ATOM     22  O   UNL     1      -6.193  11.504  17.946  0.00  0.00    +0.000 OA
ATOM     23  C   UNL     1      -5.189  13.601  20.780  0.00  0.00    +0.000 C 
ATOM     24  C   UNL     1      -5.596  13.276  22.230  0.00  0.00    +0.000 C 
BRANCH  17  26
ATOM     25  C   UNL     1      -6.425  15.762  23.482  0.00  0.00    +0.000 C 
ATOM     26  C   UNL     1      -7.295  14.973  22.514  0.00  0.00    +0.000 C 
ENDBRANCH  17  26
ENDBRANCH   1  21
BRANCH   7  27
ATOM     27  C   UNL     1      -0.877  13.176  21.392  0.00  0.00    +0.000 C 
BRANCH  27  28
ATOM     28  C   UNL     1      -0.083  14.065  20.475  0.00  0.00    +0.000 A 
ATOM     29  C   UNL     1       1.319  14.117  20.562  0.00  0.00    +0.000 A 
ATOM     30  C   UNL     1       2.052  14.992  19.758  0.00  0.00    +0.000 A 
ATOM     31  C   UNL     1       1.394  15.829  18.858  0.00  0.00    +0.000 A 
ATOM     32  C   UNL     1       0.008  15.774  18.762  0.00  0.00    +0.000 A 
ATOM     33  F   UNL     1      -0.623  16.586  17.904  0.00  0.00    +0.000 F 
ATOM     34  C   UNL     1      -0.729  14.903  19.552  0.00  0.00    +0.000 A 
ENDBRANCH  27  28
ENDBRANCH   7  27
TORSDOF 4
ENDMDL
MODEL 5
REMARK VINA RESULT:      -7.3      5.695      9.666
REMARK  Name = 
REMARK  5 active torsions:
REMARK  status: ('A' for Active; 'I' for Inactive)
REMARK    1  A    between atoms: C_1  and  C_2
REMARK    2  A    between atoms: C_2  and  N_3
REMARK    3  A    between atoms: C_7  and  C_9
REMARK    4  A    between atoms: N_15  and  C_16
REMARK    5  A    between atoms: C_16  and  C_17
REMARK                            x       y       z     vdW  Elec       q    Type
REMARK                         _______ _______ _______ _____ _____    ______ ____
ROOT
ATOM      1  C   UNL     1       4.676  14.927  21.177  0.00  0.00    +0.000 A 
ATOM      2  C   UNL     1       5.018  16.014  20.367  0.00  0.00    +0.000 A 
ATOM      3  C   UNL     1       6.333  16.188  19.927  0.00  0.00    +0.000 A 
ATOM      4  C   UNL     1       7.349  15.333  20.373  0.00  0.00    +0.000 A 
ATOM      5  C   UNL     1       7.033  14.285  21.244  0.00  0.00    +0.000 A 
ATOM      6  C   UNL     1       5.698  14.082  21.627  0.00  0.00    +0.000 A 
ATOM      7  N   UNL     1       8.027  13.471  21.846  0.00  0.00    +0.000 N 
ATOM      8  C   UNL     1       8.927  12.660  21.152  0.00  0.00    +0.000 C 
ATOM      9  O   UNL     1       9.482  11.715  21.726  0.00  0.00    +0.000 OA
ATOM     10  C   UNL     1       9.328  12.897  19.740  0.00  0.00    +0.000 A 
ATOM     11  C   UNL     1       9.813  11.769  19.045  0.00  0.00    +0.000 A 
ATOM     12  C   UNL     1      10.466  11.900  17.817  0.00  0.00    +0.000 A 
ATOM     13  C   UNL     1      10.626  13.160  17.254  0.00  0.00    +0.000 A 
ATOM     14  C   UNL     1      10.131  14.282  17.918  0.00  0.00    +0.000 A 
ATOM     15  C   UNL     1       9.484  14.166  19.164  0.00  0.00    +0.000 A 
ATOM     16  S   UNL     1       9.027  15.707  19.931  0.00  0.00    +0.000 S 
ENDROOT
BRANCH   1  21
ATOM     17  N   UNL     1       0.151  13.785  18.886  0.00  0.00    +0.000 NA
ATOM     18  C   UNL     1      -0.082  14.368  20.233  0.00  0.00    +0.000 C 
ATOM     19  C   UNL     1       0.947  13.995  21.330  0.00  0.00    +0.000 C 
ATOM     20  N   UNL     1       2.331  14.119  20.844  0.00  0.00    +0.000 N 
ATOM     21  C   UNL     1       3.298  14.690  21.669  0.00  0.00    +0.000 C 
ATOM     22  O   UNL     1       3.049  15.038  22.827  0.00  0.00    +0.000 OA
ATOM     23  C   UNL     1       2.552  13.434  19.569  0.00  0.00    +0.000 C 
ATOM     24  C   UNL     1       1.573  13.990  18.518  0.00  0.00    +0.000 C 
BRANCH  17  26
ATOM     25  C   UNL     1      -1.558  11.990  19.333  0.00  0.00    +0.000 C 
ATOM     26  C   UNL     1      -0.192  12.359  18.774  0.00  0.00    +0.000 C 
ENDBRANCH  17  26
ENDBRANCH   1  21
BRANCH   7  27
ATOM     27  C   UNL     1       8.371  13.776  23.239  0.00  0.00    +0.000 C 
BRANCH  27  28
ATOM     28  C   UNL     1       7.461  13.204  24.291  0.00  0.00    +0.000 A 
ATOM     29  C   UNL     1       7.265  11.815  24.394  0.00  0.00    +0.000 A 
ATOM     30  C   UNL     1       6.369  11.289  25.325  0.00  0.00    +0.000 A 
ATOM     31  C   UNL     1       5.652  12.141  26.164  0.00  0.00    +0.000 A 
ATOM     32  C   UNL     1       5.850  13.514  26.072  0.00  0.00    +0.000 A 
ATOM     33  F   UNL     1       5.153  14.331  26.871  0.00  0.00    +0.000 F 
ATOM     34  C   UNL     1       6.743  14.047  25.154  0.00  0.00    +0.000 A 
ENDBRANCH  27  28
ENDBRANCH   7  27
TORSDOF 4
ENDMDL
MODEL 6
REMARK VINA RESULT:      -7.3      3.177      7.934
REMARK  Name = 
REMARK  5 active torsions:
REMARK  status: ('A' for Active; 'I' for Inactive)
REMARK    1  A    between atoms: C_1  and  C_2
REMARK    2  A    between atoms: C_2  and  N_3
REMARK    3  A    between atoms: C_7  and  C_9
REMARK    4  A    between atoms: N_15  and  C_16
REMARK    5  A    between atoms: C_16  and  C_17
REMARK                            x       y       z     vdW  Elec       q    Type
REMARK                         _______ _______ _______ _____ _____    ______ ____
ROOT
ATOM      1  C   UNL     1      -3.732  11.613  18.687  0.00  0.00    +0.000 A 
ATOM      2  C   UNL     1      -3.143  11.512  17.423  0.00  0.00    +0.000 A 
ATOM      3  C   UNL     1      -1.775  11.253  17.294  0.00  0.00    +0.000 A 
ATOM      4  C   UNL     1      -0.955  11.190  18.428  0.00  0.00    +0.000 A 
ATOM      5  C   UNL     1      -1.520  11.364  19.696  0.00  0.00    +0.000 A 
ATOM      6  C   UNL     1      -2.904  11.559  19.816  0.00  0.00    +0.000 A 
ATOM      7  N   UNL     1      -0.733  11.454  20.873  0.00  0.00    +0.000 N 
ATOM      8  C   UNL     1       0.108  10.449  21.354  0.00  0.00    +0.000 C 
ATOM      9  O   UNL     1       0.447  10.439  22.543  0.00  0.00    +0.000 OA
ATOM     10  C   UNL     1       0.696   9.387  20.495  0.00  0.00    +0.000 A 
ATOM     11  C   UNL     1       1.081   8.205  21.163  0.00  0.00    +0.000 A 
ATOM     12  C   UNL     1       1.879   7.245  20.535  0.00  0.00    +0.000 A 
ATOM     13  C   UNL     1       2.288   7.444  19.223  0.00  0.00    +0.000 A 
ATOM     14  C   UNL     1       1.895   8.596  18.542  0.00  0.00    +0.000 A 
ATOM     15  C   UNL     1       1.103   9.578  19.167  0.00  0.00    +0.000 A 
ATOM     16  S   UNL     1       0.799  11.041  18.199  0.00  0.00    +0.000 S 
ENDROOT
BRANCH   1  21
ATOM     17  N   UNL     1      -6.566  13.534  22.599  0.00  0.00    +0.000 NA
ATOM     18  C   UNL     1      -7.423  12.747  21.675  0.00  0.00    +0.000 C 
ATOM     19  C   UNL     1      -7.066  12.830  20.169  0.00  0.00    +0.000 C 
ATOM     20  N   UNL     1      -5.621  12.671  19.943  0.00  0.00    +0.000 N 
ATOM     21  C   UNL     1      -5.176  11.881  18.884  0.00  0.00    +0.000 C 
ATOM     22  O   UNL     1      -5.957  11.360  18.083  0.00  0.00    +0.000 OA
ATOM     23  C   UNL     1      -4.810  13.546  20.791  0.00  0.00    +0.000 C 
ATOM     24  C   UNL     1      -5.144  13.271  22.269  0.00  0.00    +0.000 C 
BRANCH  17  26
ATOM     25  C   UNL     1      -6.303  15.733  23.798  0.00  0.00    +0.000 C 
ATOM     26  C   UNL     1      -6.823  14.982  22.581  0.00  0.00    +0.000 C 
ENDBRANCH  17  26
ENDBRANCH   1  21
BRANCH   7  27
ATOM     27  C   UNL     1      -0.505  12.801  21.409  0.00  0.00    +0.000 C 
BRANCH  27  28
ATOM     28  C   UNL     1       0.320  13.727  20.558  0.00  0.00    +0.000 A 
ATOM     29  C   UNL     1      -0.297  14.646  19.691  0.00  0.00    +0.000 A 
ATOM     30  C   UNL     1       0.468  15.458  18.853  0.00  0.00    +0.000 A 
ATOM     31  C   UNL     1       1.858  15.360  18.863  0.00  0.00    +0.000 A 
ATOM     32  C   UNL     1       2.472  14.458  19.726  0.00  0.00    +0.000 A 
ATOM     33  F   UNL     1       3.807  14.359  19.728  0.00  0.00    +0.000 F 
ATOM     34  C   UNL     1       1.722  13.652  20.569  0.00  0.00    +0.000 A 
ENDBRANCH  27  28
ENDBRANCH   7  27
TORSDOF 4
ENDMDL
MODEL 7
REMARK VINA RESULT:      -7.3      3.899      8.346
REMARK  Name = 
REMARK  5 active torsions:
REMARK  status: ('A' for Active; 'I' for Inactive)
REMARK    1  A    between atoms: C_1  and  C_2
REMARK    2  A    between atoms: C_2  and  N_3
REMARK    3  A    between atoms: C_7  and  C_9
REMARK    4  A    between atoms: N_15  and  C_16
REMARK    5  A    between atoms: C_16  and  C_17
REMARK                            x       y       z     vdW  Elec       q    Type
REMARK                         _______ _______ _______ _____ _____    ______ ____
ROOT
ATOM      1  C   UNL     1      -3.790  11.722  18.350  0.00  0.00    +0.000 A 
ATOM      2  C   UNL     1      -3.073  11.502  17.169  0.00  0.00    +0.000 A 
ATOM      3  C   UNL     1      -1.706  11.214  17.211  0.00  0.00    +0.000 A 
ATOM      4  C   UNL     1      -1.012  11.239  18.427  0.00  0.00    +0.000 A 
ATOM      5  C   UNL     1      -1.703  11.532  19.608  0.00  0.00    +0.000 A 
ATOM      6  C   UNL     1      -3.088  11.756  19.561  0.00  0.00    +0.000 A 
ATOM      7  N   UNL     1      -1.044  11.715  20.851  0.00  0.00    +0.000 N 
ATOM      8  C   UNL     1      -0.282  10.745  21.504  0.00  0.00    +0.000 C 
ATOM      9  O   UNL     1      -0.070  10.835  22.719  0.00  0.00    +0.000 OA
ATOM     10  C   UNL     1       0.369   9.603  20.808  0.00  0.00    +0.000 A 
ATOM     11  C   UNL     1       0.654   8.480  21.613  0.00  0.00    +0.000 A 
ATOM     12  C   UNL     1       1.492   7.458  21.160  0.00  0.00    +0.000 A 
ATOM     13  C   UNL     1       2.042   7.534  19.887  0.00  0.00    +0.000 A 
ATOM     14  C   UNL     1       1.750   8.627  19.070  0.00  0.00    +0.000 A 
ATOM     15  C   UNL     1       0.919   9.671  19.520  0.00  0.00    +0.000 A 
ATOM     16  S   UNL     1       0.753  11.047  18.402  0.00  0.00    +0.000 S 
ENDROOT
BRANCH   1  21
ATOM     17  N   UNL     1      -7.211  12.887  22.087  0.00  0.00    +0.000 NA
ATOM     18  C   UNL     1      -7.914  12.381  20.879  0.00  0.00    +0.000 C 
ATOM     19  C   UNL     1      -7.302  12.776  19.512  0.00  0.00    +0.000 C 
ATOM     20  N   UNL     1      -5.843  12.585  19.492  0.00  0.00    +0.000 N 
ATOM     21  C   UNL     1      -5.240  12.026  18.366  0.00  0.00    +0.000 C 
ATOM     22  O   UNL     1      -5.883  11.745  17.350  0.00  0.00    +0.000 OA
ATOM     23  C   UNL     1      -5.170  13.197  20.639  0.00  0.00    +0.000 C 
ATOM     24  C   UNL     1      -5.760  12.619  21.940  0.00  0.00    +0.000 C 
BRANCH  17  26
ATOM     25  C   UNL     1      -7.425  14.685  23.837  0.00  0.00    +0.000 C 
ATOM     26  C   UNL     1      -7.430  14.316  22.362  0.00  0.00    +0.000 C 
ENDBRANCH  17  26
ENDBRANCH   1  21
BRANCH   7  27
ATOM     27  C   UNL     1      -0.843  13.100  21.290  0.00  0.00    +0.000 C 
BRANCH  27  28
ATOM     28  C   UNL     1      -1.884  13.663  22.219  0.00  0.00    +0.000 A 
ATOM     29  C   UNL     1      -2.326  14.991  22.084  0.00  0.00    +0.000 A 
ATOM     30  C   UNL     1      -3.241  15.533  22.987  0.00  0.00    +0.000 A 
ATOM     31  C   UNL     1      -3.724  14.759  24.041  0.00  0.00    +0.000 A 
ATOM     32  C   UNL     1      -3.296  13.442  24.174  0.00  0.00    +0.000 A 
ATOM     33  F   UNL     1      -3.754  12.704  25.192  0.00  0.00    +0.000 F 
ATOM     34  C   UNL     1      -2.392  12.892  23.277  0.00  0.00    +0.000 A 
ENDBRANCH  27  28
ENDBRANCH   7  27
TORSDOF 4
ENDMDL
MODEL 8
REMARK VINA RESULT:      -7.3      5.703      9.617
REMARK  Name = 
REMARK  5 active torsions:
REMARK  status: ('A' for Active; 'I' for Inactive)
REMARK    1  A    between atoms: C_1  and  C_2
REMARK    2  A    between atoms: C_2  and  N_3
REMARK    3  A    between atoms: C_7  and  C_9
REMARK    4  A    between atoms: N_15  and  C_16
REMARK    5  A    between atoms: C_16  and  C_17
REMARK                            x       y       z     vdW  Elec       q    Type
REMARK                         _______ _______ _______ _____ _____    ______ ____
ROOT
ATOM      1  C   UNL     1       4.330  14.963  21.147  0.00  0.00    +0.000 A 
ATOM      2  C   UNL     1       4.635  15.975  20.231  0.00  0.00    +0.000 A 
ATOM      3  C   UNL     1       5.945  16.154  19.778  0.00  0.00    +0.000 A 
ATOM      4  C   UNL     1       6.990  15.388  20.309  0.00  0.00    +0.000 A 
ATOM      5  C   UNL     1       6.710  14.422  21.282  0.00  0.00    +0.000 A 
ATOM      6  C   UNL     1       5.381  14.208  21.682  0.00  0.00    +0.000 A 
ATOM      7  N   UNL     1       7.730  13.711  21.964  0.00  0.00    +0.000 N 
ATOM      8  C   UNL     1       8.664  12.870  21.358  0.00  0.00    +0.000 C 
ATOM      9  O   UNL     1       9.251  12.010  22.025  0.00  0.00    +0.000 OA
ATOM     10  C   UNL     1       9.063  12.978  19.930  0.00  0.00    +0.000 A 
ATOM     11  C   UNL     1       9.594  11.804  19.353  0.00  0.00    +0.000 A 
ATOM     12  C   UNL     1      10.248  11.835  18.119  0.00  0.00    +0.000 A 
ATOM     13  C   UNL     1      10.363  13.037  17.432  0.00  0.00    +0.000 A 
ATOM     14  C   UNL     1       9.822  14.201  17.978  0.00  0.00    +0.000 A 
ATOM     15  C   UNL     1       9.174  14.186  19.228  0.00  0.00    +0.000 A 
ATOM     16  S   UNL     1       8.655  15.779  19.834  0.00  0.00    +0.000 S 
ENDROOT
BRANCH   1  21
ATOM     17  N   UNL     1      -0.181  13.612  18.945  0.00  0.00    +0.000 NA
ATOM     18  C   UNL     1      -0.419  14.260  20.261  0.00  0.00    +0.000 C 
ATOM     19  C   UNL     1       0.622  13.966  21.370  0.00  0.00    +0.000 C 
ATOM     20  N   UNL     1       2.000  14.092  20.870  0.00  0.00    +0.000 N 
ATOM     21  C   UNL     1       2.959  14.725  21.658  0.00  0.00    +0.000 C 
ATOM     22  O   UNL     1       2.709  15.128  22.798  0.00  0.00    +0.000 OA
ATOM     23  C   UNL     1       2.230  13.345  19.632  0.00  0.00    +0.000 C 
ATOM     24  C   UNL     1       1.235  13.826  18.559  0.00  0.00    +0.000 C 
BRANCH  17  26
ATOM     25  C   UNL     1      -1.664  11.804  18.009  0.00  0.00    +0.000 C 
ATOM     26  C   UNL     1      -0.496  12.175  18.910  0.00  0.00    +0.000 C 
ENDBRANCH  17  26
ENDBRANCH   1  21
BRANCH   7  27
ATOM     27  C   UNL     1       8.055  14.169  23.320  0.00  0.00    +0.000 C 
BRANCH  27  28
ATOM     28  C   UNL     1       7.544  13.319  24.451  0.00  0.00    +0.000 A 
ATOM     29  C   UNL     1       8.060  13.467  25.751  0.00  0.00    +0.000 A 
ATOM     30  C   UNL     1       7.635  12.633  26.786  0.00  0.00    +0.000 A 
ATOM     31  C   UNL     1       6.693  11.636  26.537  0.00  0.00    +0.000 A 
ATOM     32  C   UNL     1       6.174  11.492  25.255  0.00  0.00    +0.000 A 
ATOM     33  F   UNL     1       5.277  10.527  25.016  0.00  0.00    +0.000 F 
ATOM     34  C   UNL     1       6.584  12.321  24.221  0.00  0.00    +0.000 A 
ENDBRANCH  27  28
ENDBRANCH   7  27
TORSDOF 4
ENDMDL
MODEL 9
REMARK VINA RESULT:      -7.2      6.071     10.258
REMARK  Name = 
REMARK  5 active torsions:
REMARK  status: ('A' for Active; 'I' for Inactive)
REMARK    1  A    between atoms: C_1  and  C_2
REMARK    2  A    between atoms: C_2  and  N_3
REMARK    3  A    between atoms: C_7  and  C_9
REMARK    4  A    between atoms: N_15  and  C_16
REMARK    5  A    between atoms: C_16  and  C_17
REMARK                            x       y       z     vdW  Elec       q    Type
REMARK                         _______ _______ _______ _____ _____    ______ ____
ROOT
ATOM      1  C   UNL     1       5.582  15.878  20.757  0.00  0.00    +0.000 A 
ATOM      2  C   UNL     1       6.252  16.868  20.030  0.00  0.00    +0.000 A 
ATOM      3  C   UNL     1       7.599  16.711  19.691  0.00  0.00    +0.000 A 
ATOM      4  C   UNL     1       8.326  15.610  20.160  0.00  0.00    +0.000 A 
ATOM      5  C   UNL     1       7.686  14.650  20.952  0.00  0.00    +0.000 A 
ATOM      6  C   UNL     1       6.317  14.784  21.231  0.00  0.00    +0.000 A 
ATOM      7  N   UNL     1       8.389  13.588  21.577  0.00  0.00    +0.000 N 
ATOM      8  C   UNL     1       9.106  12.597  20.905  0.00  0.00    +0.000 C 
ATOM      9  O   UNL     1       9.356  11.523  21.465  0.00  0.00    +0.000 OA
ATOM     10  C   UNL     1       9.666  12.769  19.538  0.00  0.00    +0.000 A 
ATOM     11  C   UNL     1       9.902  11.577  18.820  0.00  0.00    +0.000 A 
ATOM     12  C   UNL     1      10.662  11.576  17.648  0.00  0.00    +0.000 A 
ATOM     13  C   UNL     1      11.181  12.771  17.164  0.00  0.00    +0.000 A 
ATOM     14  C   UNL     1      10.936  13.960  17.850  0.00  0.00    +0.000 A 
ATOM     15  C   UNL     1      10.183  13.973  19.041  0.00  0.00    +0.000 A 
ATOM     16  S   UNL     1      10.074  15.554  19.854  0.00  0.00    +0.000 S 
ENDROOT
BRANCH   1  21
ATOM     17  N   UNL     1       1.109  14.420  18.546  0.00  0.00    +0.000 NA
ATOM     18  C   UNL     1       0.868  15.490  19.547  0.00  0.00    +0.000 C 
ATOM     19  C   UNL     1       1.759  15.459  20.814  0.00  0.00    +0.000 C 
ATOM     20  N   UNL     1       3.176  15.248  20.479  0.00  0.00    +0.000 N 
ATOM     21  C   UNL     1       4.155  15.988  21.140  0.00  0.00    +0.000 C 
ATOM     22  O   UNL     1       3.878  16.773  22.052  0.00  0.00    +0.000 OA
ATOM     23  C   UNL     1       3.387  14.111  19.581  0.00  0.00    +0.000 C 
ATOM     24  C   UNL     1       2.568  14.324  18.294  0.00  0.00    +0.000 C 
BRANCH  17  26
ATOM     25  C   UNL     1      -0.937  13.011  18.961  0.00  0.00    +0.000 C 
ATOM     26  C   UNL     1       0.581  13.101  18.929  0.00  0.00    +0.000 C 
ENDBRANCH  17  26
ENDBRANCH   1  21
BRANCH   7  27
ATOM     27  C   UNL     1       8.688  13.749  23.004  0.00  0.00    +0.000 C 
BRANCH  27  28
ATOM     28  C   UNL     1       7.882  12.905  23.953  0.00  0.00    +0.000 A 
ATOM     29  C   UNL     1       6.800  12.135  23.489  0.00  0.00    +0.000 A 
ATOM     30  C   UNL     1       6.011  11.405  24.378  0.00  0.00    +0.000 A 
ATOM     31  C   UNL     1       6.287  11.437  25.744  0.00  0.00    +0.000 A 
ATOM     32  C   UNL     1       7.361  12.190  26.207  0.00  0.00    +0.000 A 
ATOM     33  F   UNL     1       7.618  12.227  27.520  0.00  0.00    +0.000 F 
ATOM     34  C   UNL     1       8.156  12.913  25.330  0.00  0.00    +0.000 A 
ENDBRANCH  27  28
ENDBRANCH   7  27
TORSDOF 4
ENDMDL
