MODEL 1
REMARK VINA RESULT:      -6.8      0.000      0.000
REMARK  Name = 
REMARK  6 active torsions:
REMARK  status: ('A' for Active; 'I' for Inactive)
REMARK    1  A    between atoms: C_1  and  C_2
REMARK    2  A    between atoms: C_5  and  N_6
REMARK    3  A    between atoms: C_9  and  C_10
REMARK    4  A    between atoms: C_10  and  C_11
REMARK    5  A    between atoms: C_11  and  C_12
REMARK    6  A    between atoms: C_11  and  O_13
REMARK                            x       y       z     vdW  Elec       q    Type
REMARK                         _______ _______ _______ _____ _____    ______ ____
ROOT
ATOM      1  N   UNL     1       5.323   3.519  17.050  0.00  0.00    +0.000 N 
ATOM      2  C   UNL     1       4.177   3.188  17.695  0.00  0.00    +0.000 A 
ATOM      3  N   UNL     1       3.308   3.992  18.264  0.00  0.00    +0.000 NA
ATOM      4  C   UNL     1       2.299   3.259  18.859  0.00  0.00    +0.000 A 
ATOM      5  N   UNL     1       2.327   1.927  18.788  0.00  0.00    +0.000 NA
ATOM      6  S   UNL     1       3.685   1.536  17.895  0.00  0.00    +0.000 S 
ATOM      7  H   UNL     1       5.874   2.759  16.677  0.00  0.00    +0.000 HD
ENDROOT
BRANCH   1  12
ATOM      8  C   UNL     1       8.087   8.475  17.918  0.00  0.00    +0.000 C 
ATOM      9  C   UNL     1       7.407   7.167  17.653  0.00  0.00    +0.000 A 
ATOM     10  C   UNL     1       7.743   6.012  18.365  0.00  0.00    +0.000 A 
ATOM     11  C   UNL     1       7.068   4.809  18.125  0.00  0.00    +0.000 A 
ATOM     12  C   UNL     1       6.034   4.730  17.180  0.00  0.00    +0.000 A 
ATOM     13  C   UNL     1       5.741   5.885  16.444  0.00  0.00    +0.000 A 
ATOM     14  C   UNL     1       6.411   7.089  16.679  0.00  0.00    +0.000 A 
ENDBRANCH   1  12
BRANCH   4  15
ATOM     15  C   UNL     1       1.181   3.982  19.522  0.00  0.00    +0.000 C 
BRANCH  15  16
ATOM     16  C   UNL     1       1.491   4.455  20.945  0.00  0.00    +0.000 C 
ATOM     17  C   UNL     1       2.097   3.381  21.845  0.00  0.00    +0.000 C 
BRANCH  16  18
ATOM     18  O   UNL     1       2.421   5.547  20.877  0.00  0.00    +0.000 OA
ATOM     19  H   UNL     1       3.296   5.212  21.137  0.00  0.00    +0.000 HD
ENDBRANCH  16  18
ENDBRANCH  15  16
ENDBRANCH   4  15
TORSDOF 4
ENDMDL
MODEL 2
REMARK VINA RESULT:      -6.8      0.221      1.184
REMARK  Name = 
REMARK  6 active torsions:
REMARK  status: ('A' for Active; 'I' for Inactive)
REMARK    1  A    between atoms: C_1  and  C_2
REMARK    2  A    between atoms: C_5  and  N_6
REMARK    3  A    between atoms: C_9  and  C_10
REMARK    4  A    between atoms: C_10  and  C_11
REMARK    5  A    between atoms: C_11  and  C_12
REMARK    6  A    between atoms: C_11  and  O_13
REMARK                            x       y       z     vdW  Elec       q    Type
REMARK                         _______ _______ _______ _____ _____    ______ ____
ROOT
ATOM      1  N   UNL     1       5.353   3.690  17.211  0.00  0.00    +0.000 N 
ATOM      2  C   UNL     1       4.193   3.280  17.781  0.00  0.00    +0.000 A 
ATOM      3  N   UNL     1       3.287   4.013  18.387  0.00  0.00    +0.000 NA
ATOM      4  C   UNL     1       2.274   3.209  18.876  0.00  0.00    +0.000 A 
ATOM      5  N   UNL     1       2.334   1.891  18.686  0.00  0.00    +0.000 NA
ATOM      6  S   UNL     1       3.731   1.608  17.812  0.00  0.00    +0.000 S 
ATOM      7  H   UNL     1       5.934   2.978  16.792  0.00  0.00    +0.000 HD
ENDROOT
BRANCH   1  12
ATOM      8  C   UNL     1       8.239   8.599  17.946  0.00  0.00    +0.000 C 
ATOM      9  C   UNL     1       7.447   7.335  17.795  0.00  0.00    +0.000 A 
ATOM     10  C   UNL     1       6.363   7.253  16.917  0.00  0.00    +0.000 A 
ATOM     11  C   UNL     1       5.663   6.050  16.766  0.00  0.00    +0.000 A 
ATOM     12  C   UNL     1       6.032   4.898  17.476  0.00  0.00    +0.000 A 
ATOM     13  C   UNL     1       7.091   5.011  18.385  0.00  0.00    +0.000 A 
ATOM     14  C   UNL     1       7.795   6.208  18.539  0.00  0.00    +0.000 A 
ENDBRANCH   1  12
BRANCH   4  15
ATOM     15  C   UNL     1       1.118   3.848  19.560  0.00  0.00    +0.000 C 
BRANCH  15  16
ATOM     16  C   UNL     1       1.408   4.310  20.991  0.00  0.00    +0.000 C 
ATOM     17  C   UNL     1       2.077   3.255  21.868  0.00  0.00    +0.000 C 
BRANCH  16  18
ATOM     18  O   UNL     1       2.275   5.454  20.940  0.00  0.00    +0.000 OA
ATOM     19  H   UNL     1       2.923   5.370  21.661  0.00  0.00    +0.000 HD
ENDBRANCH  16  18
ENDBRANCH  15  16
ENDBRANCH   4  15
TORSDOF 4
ENDMDL
MODEL 3
REMARK VINA RESULT:      -6.8      2.297      6.089
REMARK  Name = 
REMARK  6 active torsions:
REMARK  status: ('A' for Active; 'I' for Inactive)
REMARK    1  A    between atoms: C_1  and  C_2
REMARK    2  A    between atoms: C_5  and  N_6
REMARK    3  A    between atoms: C_9  and  C_10
REMARK    4  A    between atoms: C_10  and  C_11
REMARK    5  A    between atoms: C_11  and  C_12
REMARK    6  A    between atoms: C_11  and  O_13
REMARK                            x       y       z     vdW  Elec       q    Type
REMARK                         _______ _______ _______ _____ _____    ______ ____
ROOT
ATOM      1  N   UNL     1       4.607   2.986  17.115  0.00  0.00    +0.000 N 
ATOM      2  C   UNL     1       5.177   4.142  16.690  0.00  0.00    +0.000 A 
ATOM      3  N   UNL     1       5.414   5.230  17.385  0.00  0.00    +0.000 NA
ATOM      4  C   UNL     1       5.961   6.205  16.572  0.00  0.00    +0.000 A 
ATOM      5  N   UNL     1       6.167   5.942  15.281  0.00  0.00    +0.000 NA
ATOM      6  S   UNL     1       5.678   4.361  15.043  0.00  0.00    +0.000 S 
ATOM      7  H   UNL     1       4.499   2.251  16.432  0.00  0.00    +0.000 HD
ENDROOT
BRANCH   1  12
ATOM      8  C   UNL     1       1.219   2.687  21.740  0.00  0.00    +0.000 C 
ATOM      9  C   UNL     1       2.094   2.708  20.524  0.00  0.00    +0.000 A 
ATOM     10  C   UNL     1       1.566   2.919  19.248  0.00  0.00    +0.000 A 
ATOM     11  C   UNL     1       2.409   2.971  18.131  0.00  0.00    +0.000 A 
ATOM     12  C   UNL     1       3.799   2.827  18.260  0.00  0.00    +0.000 A 
ATOM     13  C   UNL     1       4.306   2.570  19.540  0.00  0.00    +0.000 A 
ATOM     14  C   UNL     1       3.469   2.518  20.659  0.00  0.00    +0.000 A 
ENDBRANCH   1  12
BRANCH   4  15
ATOM     15  C   UNL     1       6.350   7.508  17.175  0.00  0.00    +0.000 C 
BRANCH  15  16
ATOM     16  C   UNL     1       7.813   7.584  17.623  0.00  0.00    +0.000 C 
ATOM     17  C   UNL     1       8.265   8.976  18.056  0.00  0.00    +0.000 C 
BRANCH  16  18
ATOM     18  O   UNL     1       8.004   6.693  18.733  0.00  0.00    +0.000 OA
ATOM     19  H   UNL     1       8.719   7.054  19.286  0.00  0.00    +0.000 HD
ENDBRANCH  16  18
ENDBRANCH  15  16
ENDBRANCH   4  15
TORSDOF 4
ENDMDL
MODEL 4
REMARK VINA RESULT:      -6.7      3.565      6.567
REMARK  Name = 
REMARK  6 active torsions:
REMARK  status: ('A' for Active; 'I' for Inactive)
REMARK    1  A    between atoms: C_1  and  C_2
REMARK    2  A    between atoms: C_5  and  N_6
REMARK    3  A    between atoms: C_9  and  C_10
REMARK    4  A    between atoms: C_10  and  C_11
REMARK    5  A    between atoms: C_11  and  C_12
REMARK    6  A    between atoms: C_11  and  O_13
REMARK                            x       y       z     vdW  Elec       q    Type
REMARK                         _______ _______ _______ _____ _____    ______ ____
ROOT
ATOM      1  N   UNL     1       5.287   5.634  18.883  0.00  0.00    +0.000 N 
ATOM      2  C   UNL     1       5.726   5.535  17.604  0.00  0.00    +0.000 A 
ATOM      3  N   UNL     1       5.115   4.986  16.580  0.00  0.00    +0.000 NA
ATOM      4  C   UNL     1       5.920   5.045  15.458  0.00  0.00    +0.000 A 
ATOM      5  N   UNL     1       7.125   5.609  15.544  0.00  0.00    +0.000 NA
ATOM      6  S   UNL     1       7.280   6.140  17.122  0.00  0.00    +0.000 S 
ATOM      7  H   UNL     1       5.900   6.089  19.544  0.00  0.00    +0.000 HD
ENDROOT
BRANCH   1  12
ATOM      8  C   UNL     1       1.274   2.595  21.645  0.00  0.00    +0.000 C 
ATOM      9  C   UNL     1       2.291   3.382  20.875  0.00  0.00    +0.000 A 
ATOM     10  C   UNL     1       2.165   4.763  20.700  0.00  0.00    +0.000 A 
ATOM     11  C   UNL     1       3.147   5.482  20.008  0.00  0.00    +0.000 A 
ATOM     12  C   UNL     1       4.283   4.846  19.484  0.00  0.00    +0.000 A 
ATOM     13  C   UNL     1       4.369   3.456  19.629  0.00  0.00    +0.000 A 
ATOM     14  C   UNL     1       3.393   2.732  20.320  0.00  0.00    +0.000 A 
ENDBRANCH   1  12
BRANCH   4  15
ATOM     15  C   UNL     1       5.396   4.517  14.169  0.00  0.00    +0.000 C 
BRANCH  15  16
ATOM     16  C   UNL     1       6.444   3.816  13.301  0.00  0.00    +0.000 C 
ATOM     17  C   UNL     1       5.874   3.117  12.069  0.00  0.00    +0.000 C 
BRANCH  16  18
ATOM     18  O   UNL     1       7.397   4.791  12.851  0.00  0.00    +0.000 OA
ATOM     19  H   UNL     1       7.507   5.451  13.558  0.00  0.00    +0.000 HD
ENDBRANCH  16  18
ENDBRANCH  15  16
ENDBRANCH   4  15
TORSDOF 4
ENDMDL
MODEL 5
REMARK VINA RESULT:      -6.6      2.314      6.050
REMARK  Name = 
REMARK  6 active torsions:
REMARK  status: ('A' for Active; 'I' for Inactive)
REMARK    1  A    between atoms: C_1  and  C_2
REMARK    2  A    between atoms: C_5  and  N_6
REMARK    3  A    between atoms: C_9  and  C_10
REMARK    4  A    between atoms: C_10  and  C_11
REMARK    5  A    between atoms: C_11  and  C_12
REMARK    6  A    between atoms: C_11  and  O_13
REMARK                            x       y       z     vdW  Elec       q    Type
REMARK                         _______ _______ _______ _____ _____    ______ ____
ROOT
ATOM      1  N   UNL     1       4.793   3.112  17.327  0.00  0.00    +0.000 N 
ATOM      2  C   UNL     1       5.417   4.224  16.866  0.00  0.00    +0.000 A 
ATOM      3  N   UNL     1       5.609   5.362  17.494  0.00  0.00    +0.000 NA
ATOM      4  C   UNL     1       6.242   6.264  16.660  0.00  0.00    +0.000 A 
ATOM      5  N   UNL     1       6.556   5.899  15.416  0.00  0.00    +0.000 NA
ATOM      6  S   UNL     1       6.064   4.309  15.259  0.00  0.00    +0.000 S 
ATOM      7  H   UNL     1       4.733   2.326  16.696  0.00  0.00    +0.000 HD
ENDROOT
BRANCH   1  12
ATOM      8  C   UNL     1       1.171   2.507  21.741  0.00  0.00    +0.000 C 
ATOM      9  C   UNL     1       2.124   2.721  20.604  0.00  0.00    +0.000 A 
ATOM     10  C   UNL     1       3.503   2.562  20.768  0.00  0.00    +0.000 A 
ATOM     11  C   UNL     1       4.369   2.731  19.681  0.00  0.00    +0.000 A 
ATOM     12  C   UNL     1       3.883   3.051  18.404  0.00  0.00    +0.000 A 
ATOM     13  C   UNL     1       2.504   3.252  18.269  0.00  0.00    +0.000 A 
ATOM     14  C   UNL     1       1.634   3.083  19.350  0.00  0.00    +0.000 A 
ENDBRANCH   1  12
BRANCH   4  15
ATOM     15  C   UNL     1       6.598   7.607  17.193  0.00  0.00    +0.000 C 
BRANCH  15  16
ATOM     16  C   UNL     1       8.024   7.709  17.744  0.00  0.00    +0.000 C 
ATOM     17  C   UNL     1       8.420   9.110  18.204  0.00  0.00    +0.000 C 
BRANCH  16  18
ATOM     18  O   UNL     1       8.149   6.824  18.868  0.00  0.00    +0.000 OA
ATOM     19  H   UNL     1       8.453   7.349  19.629  0.00  0.00    +0.000 HD
ENDBRANCH  16  18
ENDBRANCH  15  16
ENDBRANCH   4  15
TORSDOF 4
ENDMDL
MODEL 6
REMARK VINA RESULT:      -6.6      3.674      5.561
REMARK  Name = 
REMARK  6 active torsions:
REMARK  status: ('A' for Active; 'I' for Inactive)
REMARK    1  A    between atoms: C_1  and  C_2
REMARK    2  A    between atoms: C_5  and  N_6
REMARK    3  A    between atoms: C_9  and  C_10
REMARK    4  A    between atoms: C_10  and  C_11
REMARK    5  A    between atoms: C_11  and  C_12
REMARK    6  A    between atoms: C_11  and  O_13
REMARK                            x       y       z     vdW  Elec       q    Type
REMARK                         _______ _______ _______ _____ _____    ______ ____
ROOT
ATOM      1  N   UNL     1       2.526   5.912  20.312  0.00  0.00    +0.000 N 
ATOM      2  C   UNL     1       3.541   5.182  19.786  0.00  0.00    +0.000 A 
ATOM      3  N   UNL     1       4.556   5.608  19.071  0.00  0.00    +0.000 NA
ATOM      4  C   UNL     1       5.345   4.542  18.682  0.00  0.00    +0.000 A 
ATOM      5  N   UNL     1       5.005   3.306  19.052  0.00  0.00    +0.000 NA
ATOM      6  S   UNL     1       3.622   3.460  19.978  0.00  0.00    +0.000 S 
ATOM      7  H   UNL     1       1.823   5.409  20.834  0.00  0.00    +0.000 HD
ENDROOT
BRANCH   1  12
ATOM      8  C   UNL     1       0.519  11.033  18.666  0.00  0.00    +0.000 C 
ATOM      9  C   UNL     1       1.092   9.723  19.114  0.00  0.00    +0.000 A 
ATOM     10  C   UNL     1       0.943   9.272  20.428  0.00  0.00    +0.000 A 
ATOM     11  C   UNL     1       1.456   8.027  20.812  0.00  0.00    +0.000 A 
ATOM     12  C   UNL     1       2.117   7.197  19.895  0.00  0.00    +0.000 A 
ATOM     13  C   UNL     1       2.297   7.685  18.595  0.00  0.00    +0.000 A 
ATOM     14  C   UNL     1       1.787   8.926  18.205  0.00  0.00    +0.000 A 
ENDBRANCH   1  12
BRANCH   4  15
ATOM     15  C   UNL     1       6.581   4.811  17.899  0.00  0.00    +0.000 C 
BRANCH  15  16
ATOM     16  C   UNL     1       7.692   5.504  18.693  0.00  0.00    +0.000 C 
ATOM     17  C   UNL     1       7.887   6.977  18.345  0.00  0.00    +0.000 C 
BRANCH  16  18
ATOM     18  O   UNL     1       7.382   5.419  20.092  0.00  0.00    +0.000 OA
ATOM     19  H   UNL     1       7.140   4.497  20.289  0.00  0.00    +0.000 HD
ENDBRANCH  16  18
ENDBRANCH  15  16
ENDBRANCH   4  15
TORSDOF 4
ENDMDL
MODEL 7
REMARK VINA RESULT:      -6.5      3.878      5.860
REMARK  Name = 
REMARK  6 active torsions:
REMARK  status: ('A' for Active; 'I' for Inactive)
REMARK    1  A    between atoms: C_1  and  C_2
REMARK    2  A    between atoms: C_5  and  N_6
REMARK    3  A    between atoms: C_9  and  C_10
REMARK    4  A    between atoms: C_10  and  C_11
REMARK    5  A    between atoms: C_11  and  C_12
REMARK    6  A    between atoms: C_11  and  O_13
REMARK                            x       y       z     vdW  Elec       q    Type
REMARK                         _______ _______ _______ _____ _____    ______ ____
ROOT
ATOM      1  N   UNL     1       2.652   5.899  20.021  0.00  0.00    +0.000 N 
ATOM      2  C   UNL     1       3.823   5.350  19.614  0.00  0.00    +0.000 A 
ATOM      3  N   UNL     1       4.892   5.967  19.165  0.00  0.00    +0.000 NA
ATOM      4  C   UNL     1       5.858   5.046  18.806  0.00  0.00    +0.000 A 
ATOM      5  N   UNL     1       5.607   3.744  18.948  0.00  0.00    +0.000 NA
ATOM      6  S   UNL     1       4.073   3.633  19.603  0.00  0.00    +0.000 S 
ATOM      7  H   UNL     1       1.932   5.262  20.332  0.00  0.00    +0.000 HD
ENDROOT
BRANCH   1  12
ATOM      8  C   UNL     1       0.373  11.015  18.758  0.00  0.00    +0.000 C 
ATOM      9  C   UNL     1       1.017   9.707  19.104  0.00  0.00    +0.000 A 
ATOM     10  C   UNL     1       0.957   9.184  20.399  0.00  0.00    +0.000 A 
ATOM     11  C   UNL     1       1.535   7.942  20.689  0.00  0.00    +0.000 A 
ATOM     12  C   UNL     1       2.175   7.186  19.694  0.00  0.00    +0.000 A 
ATOM     13  C   UNL     1       2.265   7.746  18.414  0.00  0.00    +0.000 A 
ATOM     14  C   UNL     1       1.689   8.985  18.118  0.00  0.00    +0.000 A 
ENDBRANCH   1  12
BRANCH   4  15
ATOM     15  C   UNL     1       7.172   5.539  18.314  0.00  0.00    +0.000 C 
BRANCH  15  16
ATOM     16  C   UNL     1       7.078   6.677  17.294  0.00  0.00    +0.000 C 
ATOM     17  C   UNL     1       7.853   7.934  17.681  0.00  0.00    +0.000 C 
BRANCH  16  18
ATOM     18  O   UNL     1       7.592   6.214  16.036  0.00  0.00    +0.000 OA
ATOM     19  H   UNL     1       6.899   6.340  15.365  0.00  0.00    +0.000 HD
ENDBRANCH  16  18
ENDBRANCH  15  16
ENDBRANCH   4  15
TORSDOF 4
ENDMDL
MODEL 8
REMARK VINA RESULT:      -6.4      3.611      5.520
REMARK  Name = 
REMARK  6 active torsions:
REMARK  status: ('A' for Active; 'I' for Inactive)
REMARK    1  A    between atoms: C_1  and  C_2
REMARK    2  A    between atoms: C_5  and  N_6
REMARK    3  A    between atoms: C_9  and  C_10
REMARK    4  A    between atoms: C_10  and  C_11
REMARK    5  A    between atoms: C_11  and  C_12
REMARK    6  A    between atoms: C_11  and  O_13
REMARK                            x       y       z     vdW  Elec       q    Type
REMARK                         _______ _______ _______ _____ _____    ______ ____
ROOT
ATOM      1  N   UNL     1       2.534   5.770  20.309  0.00  0.00    +0.000 N 
ATOM      2  C   UNL     1       3.582   5.089  19.782  0.00  0.00    +0.000 A 
ATOM      3  N   UNL     1       4.578   5.563  19.069  0.00  0.00    +0.000 NA
ATOM      4  C   UNL     1       5.414   4.536  18.677  0.00  0.00    +0.000 A 
ATOM      5  N   UNL     1       5.132   3.285  19.042  0.00  0.00    +0.000 NA
ATOM      6  S   UNL     1       3.742   3.371  19.967  0.00  0.00    +0.000 S 
ATOM      7  H   UNL     1       1.855   5.233  20.829  0.00  0.00    +0.000 HD
ENDROOT
BRANCH   1  12
ATOM      8  C   UNL     1       0.984  11.016  18.566  0.00  0.00    +0.000 C 
ATOM      9  C   UNL     1       1.336   9.626  19.003  0.00  0.00    +0.000 A 
ATOM     10  C   UNL     1       1.924   8.712  18.124  0.00  0.00    +0.000 A 
ATOM     11  C   UNL     1       2.278   7.432  18.566  0.00  0.00    +0.000 A 
ATOM     12  C   UNL     1       2.068   7.035  19.895  0.00  0.00    +0.000 A 
ATOM     13  C   UNL     1       1.437   7.948  20.750  0.00  0.00    +0.000 A 
ATOM     14  C   UNL     1       1.081   9.228  20.315  0.00  0.00    +0.000 A 
ENDBRANCH   1  12
BRANCH   4  15
ATOM     15  C   UNL     1       6.637   4.864  17.896  0.00  0.00    +0.000 C 
BRANCH  15  16
ATOM     16  C   UNL     1       7.746   5.535  18.712  0.00  0.00    +0.000 C 
ATOM     17  C   UNL     1       7.944   7.017  18.403  0.00  0.00    +0.000 C 
BRANCH  16  18
ATOM     18  O   UNL     1       7.430   5.414  20.107  0.00  0.00    +0.000 OA
ATOM     19  H   UNL     1       7.822   4.584  20.431  0.00  0.00    +0.000 HD
ENDBRANCH  16  18
ENDBRANCH  15  16
ENDBRANCH   4  15
TORSDOF 4
ENDMDL
MODEL 9
REMARK VINA RESULT:      -6.4      3.519      4.703
REMARK  Name = 
REMARK  6 active torsions:
REMARK  status: ('A' for Active; 'I' for Inactive)
REMARK    1  A    between atoms: C_1  and  C_2
REMARK    2  A    between atoms: C_5  and  N_6
REMARK    3  A    between atoms: C_9  and  C_10
REMARK    4  A    between atoms: C_10  and  C_11
REMARK    5  A    between atoms: C_11  and  C_12
REMARK    6  A    between atoms: C_11  and  O_13
REMARK                            x       y       z     vdW  Elec       q    Type
REMARK                         _______ _______ _______ _____ _____    ______ ____
ROOT
ATOM      1  N   UNL     1       3.322   6.738  17.859  0.00  0.00    +0.000 N 
ATOM      2  C   UNL     1       3.357   5.393  18.027  0.00  0.00    +0.000 A 
ATOM      3  N   UNL     1       2.412   4.613  18.500  0.00  0.00    +0.000 NA
ATOM      4  C   UNL     1       2.859   3.306  18.560  0.00  0.00    +0.000 A 
ATOM      5  N   UNL     1       4.099   3.019  18.161  0.00  0.00    +0.000 NA
ATOM      6  S   UNL     1       4.768   4.460  17.641  0.00  0.00    +0.000 S 
ATOM      7  H   UNL     1       4.152   7.174  17.483  0.00  0.00    +0.000 HD
ENDROOT
BRANCH   1  12
ATOM      8  C   UNL     1      -0.008  10.662  20.404  0.00  0.00    +0.000 C 
ATOM      9  C   UNL     1       0.813   9.608  19.726  0.00  0.00    +0.000 A 
ATOM     10  C   UNL     1       1.091   9.667  18.357  0.00  0.00    +0.000 A 
ATOM     11  C   UNL     1       1.891   8.689  17.753  0.00  0.00    +0.000 A 
ATOM     12  C   UNL     1       2.444   7.637  18.499  0.00  0.00    +0.000 A 
ATOM     13  C   UNL     1       2.117   7.568  19.859  0.00  0.00    +0.000 A 
ATOM     14  C   UNL     1       1.320   8.541  20.468  0.00  0.00    +0.000 A 
ENDBRANCH   1  12
BRANCH   4  15
ATOM     15  C   UNL     1       1.923   2.248  19.025  0.00  0.00    +0.000 C 
BRANCH  15  16
ATOM     16  C   UNL     1       1.330   2.496  20.415  0.00  0.00    +0.000 C 
ATOM     17  C   UNL     1       2.368   2.753  21.504  0.00  0.00    +0.000 C 
BRANCH  16  18
ATOM     18  O   UNL     1       0.466   3.641  20.350  0.00  0.00    +0.000 OA
ATOM     19  H   UNL     1       0.340   3.868  19.412  0.00  0.00    +0.000 HD
ENDBRANCH  16  18
ENDBRANCH  15  16
ENDBRANCH   4  15
TORSDOF 4
ENDMDL
