MODEL 1
REMARK VINA RESULT:      -8.3      0.000      0.000
REMARK  Name = 
REMARK  8 active torsions:
REMARK  status: ('A' for Active; 'I' for Inactive)
REMARK    1  A    between atoms: C_1  and  O_2
REMARK    2  A    between atoms: O_2  and  C_3
REMARK    3  A    between atoms: C_3  and  C_5
REMARK    4  A    between atoms: C_8  and  O_9
REMARK    5  A    between atoms: O_9  and  C_10
REMARK    6  A    between atoms: C_12  and  C_13
REMARK    7  A    between atoms: N_16  and  C_17
REMARK    8  A    between atoms: C_17  and  C_18
REMARK                            x       y       z     vdW  Elec       q    Type
REMARK                         _______ _______ _______ _____ _____    ______ ____
ROOT
ATOM      1  C   UNL     1       4.130   4.426  19.722  0.00  0.00    +0.000 A 
ATOM      2  C   UNL     1       3.325   3.432  20.222  0.00  0.00    +0.000 A 
ATOM      3  C   UNL     1       2.082   3.843  20.645  0.00  0.00    +0.000 A 
ATOM      4  C   UNL     1       1.039   2.867  21.092  0.00  0.00    +0.000 C 
ATOM      5  N   UNL     1       1.713   5.142  20.647  0.00  0.00    +0.000 NA
ATOM      6  C   UNL     1       2.562   6.034  20.125  0.00  0.00    +0.000 A 
ATOM      7  N   UNL     1       2.270   7.381  20.145  0.00  0.00    +0.000 N 
ATOM      8  N   UNL     1       3.735   5.706  19.589  0.00  0.00    +0.000 NA
ATOM      9  H   UNL     1       2.165   7.693  19.185  0.00  0.00    +0.000 HD
ENDROOT
BRANCH   1  10
ATOM     10  O   UNL     1       5.422   4.079  19.332  0.00  0.00    +0.000 OA
BRANCH  10  14
ATOM     11  C   UNL     1       6.478   4.552  15.307  0.00  0.00    +0.000 A 
ATOM     12  C   UNL     1       5.200   4.100  15.633  0.00  0.00    +0.000 A 
ATOM     13  C   UNL     1       4.818   3.967  16.965  0.00  0.00    +0.000 A 
ATOM     14  C   UNL     1       5.730   4.229  17.996  0.00  0.00    +0.000 A 
ATOM     15  C   UNL     1       7.003   4.715  17.675  0.00  0.00    +0.000 A 
ATOM     16  C   UNL     1       7.380   4.872  16.332  0.00  0.00    +0.000 A 
BRANCH  11  17
ATOM     17  C   UNL     1       6.809   4.679  13.860  0.00  0.00    +0.000 C 
ATOM     18  O   UNL     1       7.685   5.422  13.432  0.00  0.00    +0.000 OA
BRANCH  17  20
ATOM     19  C   UNL     1       6.714   3.315  11.978  0.00  0.00    +0.000 C 
ATOM     20  O   UNL     1       6.034   3.865  13.106  0.00  0.00    +0.000 OA
ENDBRANCH  17  20
ENDBRANCH  11  17
ENDBRANCH  10  14
ENDBRANCH   1  10
BRANCH   7  21
ATOM     21  C   UNL     1       1.216   7.810  21.038  0.00  0.00    +0.000 C 
BRANCH  21  22
ATOM     22  C   UNL     1       0.674   9.159  20.600  0.00  0.00    +0.000 A 
ATOM     23  C   UNL     1       0.049   9.994  21.538  0.00  0.00    +0.000 A 
ATOM     24  C   UNL     1      -0.430  11.252  21.163  0.00  0.00    +0.000 A 
ATOM     25  C   UNL     1      -0.282  11.696  19.849  0.00  0.00    +0.000 A 
ATOM     26  C   UNL     1       0.365  10.893  18.915  0.00  0.00    +0.000 A 
ATOM     27  C   UNL     1       0.851   9.638  19.291  0.00  0.00    +0.000 A 
ENDBRANCH  21  22
ENDBRANCH   7  21
TORSDOF 6
ENDMDL
MODEL 2
REMARK VINA RESULT:      -8.2      0.244      1.350
REMARK  Name = 
REMARK  8 active torsions:
REMARK  status: ('A' for Active; 'I' for Inactive)
REMARK    1  A    between atoms: C_1  and  O_2
REMARK    2  A    between atoms: O_2  and  C_3
REMARK    3  A    between atoms: C_3  and  C_5
REMARK    4  A    between atoms: C_8  and  O_9
REMARK    5  A    between atoms: O_9  and  C_10
REMARK    6  A    between atoms: C_12  and  C_13
REMARK    7  A    between atoms: N_16  and  C_17
REMARK    8  A    between atoms: C_17  and  C_18
REMARK                            x       y       z     vdW  Elec       q    Type
REMARK                         _______ _______ _______ _____ _____    ______ ____
ROOT
ATOM      1  C   UNL     1       4.161   4.349  19.718  0.00  0.00    +0.000 A 
ATOM      2  C   UNL     1       3.319   3.375  20.193  0.00  0.00    +0.000 A 
ATOM      3  C   UNL     1       2.073   3.813  20.578  0.00  0.00    +0.000 A 
ATOM      4  C   UNL     1       0.994   2.863  20.992  0.00  0.00    +0.000 C 
ATOM      5  N   UNL     1       1.734   5.121  20.569  0.00  0.00    +0.000 NA
ATOM      6  C   UNL     1       2.619   5.993  20.074  0.00  0.00    +0.000 A 
ATOM      7  N   UNL     1       2.358   7.347  20.086  0.00  0.00    +0.000 N 
ATOM      8  N   UNL     1       3.800   5.638  19.575  0.00  0.00    +0.000 NA
ATOM      9  H   UNL     1       2.289   7.660  19.124  0.00  0.00    +0.000 HD
ENDROOT
BRANCH   1  10
ATOM     10  O   UNL     1       5.456   3.973  19.368  0.00  0.00    +0.000 OA
BRANCH  10  14
ATOM     11  C   UNL     1       6.474   4.569  15.350  0.00  0.00    +0.000 A 
ATOM     12  C   UNL     1       7.406   4.863  16.345  0.00  0.00    +0.000 A 
ATOM     13  C   UNL     1       7.099   4.641  17.685  0.00  0.00    +0.000 A 
ATOM     14  C   UNL     1       5.831   4.175  18.056  0.00  0.00    +0.000 A 
ATOM     15  C   UNL     1       4.905   3.847  17.060  0.00  0.00    +0.000 A 
ATOM     16  C   UNL     1       5.223   4.048  15.707  0.00  0.00    +0.000 A 
BRANCH  11  17
ATOM     17  C   UNL     1       6.880   4.823  13.939  0.00  0.00    +0.000 C 
ATOM     18  O   UNL     1       7.879   5.463  13.631  0.00  0.00    +0.000 OA
BRANCH  17  20
ATOM     19  C   UNL     1       6.647   3.365  12.142  0.00  0.00    +0.000 C 
ATOM     20  O   UNL     1       6.017   4.248  13.069  0.00  0.00    +0.000 OA
ENDBRANCH  17  20
ENDBRANCH  11  17
ENDBRANCH  10  14
ENDBRANCH   1  10
BRANCH   7  21
ATOM     21  C   UNL     1       1.288   7.800  20.946  0.00  0.00    +0.000 C 
BRANCH  21  22
ATOM     22  C   UNL     1       0.727   9.116  20.438  0.00  0.00    +0.000 A 
ATOM     23  C   UNL     1       1.109   9.592  19.175  0.00  0.00    +0.000 A 
ATOM     24  C   UNL     1       0.582  10.786  18.675  0.00  0.00    +0.000 A 
ATOM     25  C   UNL     1      -0.341  11.513  19.425  0.00  0.00    +0.000 A 
ATOM     26  C   UNL     1      -0.755  11.038  20.665  0.00  0.00    +0.000 A 
ATOM     27  C   UNL     1      -0.235   9.841  21.162  0.00  0.00    +0.000 A 
ENDBRANCH  21  22
ENDBRANCH   7  21
TORSDOF 6
ENDMDL
MODEL 3
REMARK VINA RESULT:      -8.0      3.874      5.859
REMARK  Name = 
REMARK  8 active torsions:
REMARK  status: ('A' for Active; 'I' for Inactive)
REMARK    1  A    between atoms: C_1  and  O_2
REMARK    2  A    between atoms: O_2  and  C_3
REMARK    3  A    between atoms: C_3  and  C_5
REMARK    4  A    between atoms: C_8  and  O_9
REMARK    5  A    between atoms: O_9  and  C_10
REMARK    6  A    between atoms: C_12  and  C_13
REMARK    7  A    between atoms: N_16  and  C_17
REMARK    8  A    between atoms: C_17  and  C_18
REMARK                            x       y       z     vdW  Elec       q    Type
REMARK                         _______ _______ _______ _____ _____    ______ ____
ROOT
ATOM      1  C   UNL     1       1.395   8.668  20.321  0.00  0.00    +0.000 A 
ATOM      2  C   UNL     1       0.958   8.957  21.589  0.00  0.00    +0.000 A 
ATOM      3  C   UNL     1      -0.087   9.850  21.659  0.00  0.00    +0.000 A 
ATOM      4  C   UNL     1      -0.766  10.171  22.953  0.00  0.00    +0.000 C 
ATOM      5  N   UNL     1      -0.588  10.462  20.564  0.00  0.00    +0.000 NA
ATOM      6  C   UNL     1      -0.105  10.100  19.370  0.00  0.00    +0.000 A 
ATOM      7  N   UNL     1      -0.534  10.723  18.218  0.00  0.00    +0.000 N 
ATOM      8  N   UNL     1       0.824   9.161  19.206  0.00  0.00    +0.000 NA
ATOM      9  H   UNL     1      -1.019  10.035  17.652  0.00  0.00    +0.000 HD
ENDROOT
BRANCH   1  10
ATOM     10  O   UNL     1       2.489   7.814  20.191  0.00  0.00    +0.000 OA
BRANCH  10  14
ATOM     11  C   UNL     1       1.661   3.931  18.860  0.00  0.00    +0.000 A 
ATOM     12  C   UNL     1       2.170   4.870  17.963  0.00  0.00    +0.000 A 
ATOM     13  C   UNL     1       2.483   6.157  18.394  0.00  0.00    +0.000 A 
ATOM     14  C   UNL     1       2.236   6.544  19.717  0.00  0.00    +0.000 A 
ATOM     15  C   UNL     1       1.757   5.596  20.628  0.00  0.00    +0.000 A 
ATOM     16  C   UNL     1       1.464   4.291  20.201  0.00  0.00    +0.000 A 
BRANCH  11  17
ATOM     17  C   UNL     1       1.361   2.573  18.327  0.00  0.00    +0.000 C 
ATOM     18  O   UNL     1       0.285   2.008  18.490  0.00  0.00    +0.000 OA
BRANCH  17  20
ATOM     19  C   UNL     1       3.445   1.550  18.485  0.00  0.00    +0.000 C 
ATOM     20  O   UNL     1       2.415   2.069  17.644  0.00  0.00    +0.000 OA
ENDBRANCH  17  20
ENDBRANCH  11  17
ENDBRANCH  10  14
ENDBRANCH   1  10
BRANCH   7  21
ATOM     21  C   UNL     1      -1.235  11.979  18.374  0.00  0.00    +0.000 C 
BRANCH  21  22
ATOM     22  C   UNL     1      -2.722  11.782  18.142  0.00  0.00    +0.000 A 
ATOM     23  C   UNL     1      -3.634  12.126  19.150  0.00  0.00    +0.000 A 
ATOM     24  C   UNL     1      -5.009  11.980  18.947  0.00  0.00    +0.000 A 
ATOM     25  C   UNL     1      -5.491  11.500  17.730  0.00  0.00    +0.000 A 
ATOM     26  C   UNL     1      -4.601  11.185  16.708  0.00  0.00    +0.000 A 
ATOM     27  C   UNL     1      -3.227  11.337  16.908  0.00  0.00    +0.000 A 
ENDBRANCH  21  22
ENDBRANCH   7  21
TORSDOF 6
ENDMDL
MODEL 4
REMARK VINA RESULT:      -8.0      5.040      9.704
REMARK  Name = 
REMARK  8 active torsions:
REMARK  status: ('A' for Active; 'I' for Inactive)
REMARK    1  A    between atoms: C_1  and  O_2
REMARK    2  A    between atoms: O_2  and  C_3
REMARK    3  A    between atoms: C_3  and  C_5
REMARK    4  A    between atoms: C_8  and  O_9
REMARK    5  A    between atoms: O_9  and  C_10
REMARK    6  A    between atoms: C_12  and  C_13
REMARK    7  A    between atoms: N_16  and  C_17
REMARK    8  A    between atoms: C_17  and  C_18
REMARK                            x       y       z     vdW  Elec       q    Type
REMARK                         _______ _______ _______ _____ _____    ______ ____
ROOT
ATOM      1  C   UNL     1       0.221  10.142  19.733  0.00  0.00    +0.000 A 
ATOM      2  C   UNL     1      -0.281  10.297  21.001  0.00  0.00    +0.000 A 
ATOM      3  C   UNL     1       0.187   9.397  21.931  0.00  0.00    +0.000 A 
ATOM      4  C   UNL     1      -0.158   9.510  23.382  0.00  0.00    +0.000 C 
ATOM      5  N   UNL     1       1.016   8.382  21.599  0.00  0.00    +0.000 NA
ATOM      6  C   UNL     1       1.462   8.326  20.340  0.00  0.00    +0.000 A 
ATOM      7  N   UNL     1       2.266   7.287  19.922  0.00  0.00    +0.000 N 
ATOM      8  N   UNL     1       1.149   9.223  19.408  0.00  0.00    +0.000 NA
ATOM      9  H   UNL     1       3.172   7.670  19.679  0.00  0.00    +0.000 HD
ENDROOT
BRANCH   1  10
ATOM     10  O   UNL     1      -0.262  10.988  18.737  0.00  0.00    +0.000 OA
BRANCH  10  14
ATOM     11  C   UNL     1      -4.415  11.200  18.240  0.00  0.00    +0.000 A 
ATOM     12  C   UNL     1      -3.703  10.165  17.633  0.00  0.00    +0.000 A 
ATOM     13  C   UNL     1      -2.326  10.059  17.813  0.00  0.00    +0.000 A 
ATOM     14  C   UNL     1      -1.629  11.021  18.556  0.00  0.00    +0.000 A 
ATOM     15  C   UNL     1      -2.343  12.040  19.194  0.00  0.00    +0.000 A 
ATOM     16  C   UNL     1      -3.735  12.135  19.033  0.00  0.00    +0.000 A 
BRANCH  11  17
ATOM     17  C   UNL     1      -5.886  11.241  18.010  0.00  0.00    +0.000 C 
ATOM     18  O   UNL     1      -6.430  12.061  17.278  0.00  0.00    +0.000 OA
BRANCH  17  20
ATOM     19  C   UNL     1      -7.172  10.724  19.878  0.00  0.00    +0.000 C 
ATOM     20  O   UNL     1      -6.518  10.261  18.697  0.00  0.00    +0.000 OA
ENDBRANCH  17  20
ENDBRANCH  11  17
ENDBRANCH  10  14
ENDBRANCH   1  10
BRANCH   7  21
ATOM     21  C   UNL     1       2.314   6.115  20.769  0.00  0.00    +0.000 C 
BRANCH  21  22
ATOM     22  C   UNL     1       1.900   4.883  19.984  0.00  0.00    +0.000 A 
ATOM     23  C   UNL     1       1.271   3.817  20.644  0.00  0.00    +0.000 A 
ATOM     24  C   UNL     1       0.856   2.687  19.935  0.00  0.00    +0.000 A 
ATOM     25  C   UNL     1       1.053   2.611  18.557  0.00  0.00    +0.000 A 
ATOM     26  C   UNL     1       1.646   3.674  17.882  0.00  0.00    +0.000 A 
ATOM     27  C   UNL     1       2.055   4.808  18.589  0.00  0.00    +0.000 A 
ENDBRANCH  21  22
ENDBRANCH   7  21
TORSDOF 6
ENDMDL
MODEL 5
REMARK VINA RESULT:      -7.9      5.130      9.831
REMARK  Name = 
REMARK  8 active torsions:
REMARK  status: ('A' for Active; 'I' for Inactive)
REMARK    1  A    between atoms: C_1  and  O_2
REMARK    2  A    between atoms: O_2  and  C_3
REMARK    3  A    between atoms: C_3  and  C_5
REMARK    4  A    between atoms: C_8  and  O_9
REMARK    5  A    between atoms: O_9  and  C_10
REMARK    6  A    between atoms: C_12  and  C_13
REMARK    7  A    between atoms: N_16  and  C_17
REMARK    8  A    between atoms: C_17  and  C_18
REMARK                            x       y       z     vdW  Elec       q    Type
REMARK                         _______ _______ _______ _____ _____    ______ ____
ROOT
ATOM      1  C   UNL     1       0.187  10.158  19.586  0.00  0.00    +0.000 A 
ATOM      2  C   UNL     1      -0.348  10.303  20.842  0.00  0.00    +0.000 A 
ATOM      3  C   UNL     1       0.120   9.416  21.784  0.00  0.00    +0.000 A 
ATOM      4  C   UNL     1      -0.262   9.523  23.227  0.00  0.00    +0.000 C 
ATOM      5  N   UNL     1       0.979   8.420  21.474  0.00  0.00    +0.000 NA
ATOM      6  C   UNL     1       1.455   8.372  20.226  0.00  0.00    +0.000 A 
ATOM      7  N   UNL     1       2.293   7.352  19.829  0.00  0.00    +0.000 N 
ATOM      8  N   UNL     1       1.144   9.260  19.285  0.00  0.00    +0.000 NA
ATOM      9  H   UNL     1       3.195   7.756  19.606  0.00  0.00    +0.000 HD
ENDROOT
BRANCH   1  10
ATOM     10  O   UNL     1      -0.292  10.991  18.577  0.00  0.00    +0.000 OA
BRANCH  10  14
ATOM     11  C   UNL     1      -4.451  11.160  18.117  0.00  0.00    +0.000 A 
ATOM     12  C   UNL     1      -3.809  12.113  18.907  0.00  0.00    +0.000 A 
ATOM     13  C   UNL     1      -2.424  12.094  19.046  0.00  0.00    +0.000 A 
ATOM     14  C   UNL     1      -1.662  11.084  18.444  0.00  0.00    +0.000 A 
ATOM     15  C   UNL     1      -2.298  10.146  17.624  0.00  0.00    +0.000 A 
ATOM     16  C   UNL     1      -3.693  10.179  17.463  0.00  0.00    +0.000 A 
BRANCH  11  17
ATOM     17  C   UNL     1      -5.934  11.252  18.008  0.00  0.00    +0.000 C 
ATOM     18  O   UNL     1      -6.696  10.404  18.458  0.00  0.00    +0.000 OA
BRANCH  17  20
ATOM     19  C   UNL     1      -7.519  12.950  17.876  0.00  0.00    +0.000 C 
ATOM     20  O   UNL     1      -6.310  12.385  17.370  0.00  0.00    +0.000 OA
ENDBRANCH  17  20
ENDBRANCH  11  17
ENDBRANCH  10  14
ENDBRANCH   1  10
BRANCH   7  21
ATOM     21  C   UNL     1       2.349   6.183  20.679  0.00  0.00    +0.000 C 
BRANCH  21  22
ATOM     22  C   UNL     1       1.883   4.956  19.915  0.00  0.00    +0.000 A 
ATOM     23  C   UNL     1       2.297   4.765  18.589  0.00  0.00    +0.000 A 
ATOM     24  C   UNL     1       1.905   3.629  17.877  0.00  0.00    +0.000 A 
ATOM     25  C   UNL     1       1.103   2.663  18.484  0.00  0.00    +0.000 A 
ATOM     26  C   UNL     1       0.710   2.822  19.810  0.00  0.00    +0.000 A 
ATOM     27  C   UNL     1       1.108   3.954  20.524  0.00  0.00    +0.000 A 
ENDBRANCH  21  22
ENDBRANCH   7  21
TORSDOF 6
ENDMDL
MODEL 6
REMARK VINA RESULT:      -7.7      5.199      9.923
REMARK  Name = 
REMARK  8 active torsions:
REMARK  status: ('A' for Active; 'I' for Inactive)
REMARK    1  A    between atoms: C_1  and  O_2
REMARK    2  A    between atoms: O_2  and  C_3
REMARK    3  A    between atoms: C_3  and  C_5
REMARK    4  A    between atoms: C_8  and  O_9
REMARK    5  A    between atoms: O_9  and  C_10
REMARK    6  A    between atoms: C_12  and  C_13
REMARK    7  A    between atoms: N_16  and  C_17
REMARK    8  A    between atoms: C_17  and  C_18
REMARK                            x       y       z     vdW  Elec       q    Type
REMARK                         _______ _______ _______ _____ _____    ______ ____
ROOT
ATOM      1  C   UNL     1      -0.002  10.273  19.516  0.00  0.00    +0.000 A 
ATOM      2  C   UNL     1      -0.455  10.430  20.802  0.00  0.00    +0.000 A 
ATOM      3  C   UNL     1       0.100   9.576  21.727  0.00  0.00    +0.000 A 
ATOM      4  C   UNL     1      -0.186   9.702  23.190  0.00  0.00    +0.000 C 
ATOM      5  N   UNL     1       0.965   8.598  21.379  0.00  0.00    +0.000 NA
ATOM      6  C   UNL     1       1.358   8.538  20.102  0.00  0.00    +0.000 A 
ATOM      7  N   UNL     1       2.197   7.532  19.669  0.00  0.00    +0.000 N 
ATOM      8  N   UNL     1       0.958   9.397  19.168  0.00  0.00    +0.000 NA
ATOM      9  H   UNL     1       3.070   7.957  19.377  0.00  0.00    +0.000 HD
ENDROOT
BRANCH   1  10
ATOM     10  O   UNL     1      -0.572  11.072  18.526  0.00  0.00    +0.000 OA
BRANCH  10  14
ATOM     11  C   UNL     1      -4.755  11.254  18.443  0.00  0.00    +0.000 A 
ATOM     12  C   UNL     1      -4.043  12.169  19.219  0.00  0.00    +0.000 A 
ATOM     13  C   UNL     1      -2.651  12.146  19.235  0.00  0.00    +0.000 A 
ATOM     14  C   UNL     1      -1.948  11.168  18.519  0.00  0.00    +0.000 A 
ATOM     15  C   UNL     1      -2.656  10.270  17.713  0.00  0.00    +0.000 A 
ATOM     16  C   UNL     1      -4.059  10.308  17.678  0.00  0.00    +0.000 A 
BRANCH  11  17
ATOM     17  C   UNL     1      -6.241  11.348  18.470  0.00  0.00    +0.000 C 
ATOM     18  O   UNL     1      -6.904  11.800  17.542  0.00  0.00    +0.000 OA
BRANCH  17  20
ATOM     19  C   UNL     1      -7.104   9.483  19.560  0.00  0.00    +0.000 C 
ATOM     20  O   UNL     1      -6.743  10.862  19.629  0.00  0.00    +0.000 OA
ENDBRANCH  17  20
ENDBRANCH  11  17
ENDBRANCH  10  14
ENDBRANCH   1  10
BRANCH   7  21
ATOM     21  C   UNL     1       2.343   6.383  20.535  0.00  0.00    +0.000 C 
BRANCH  21  22
ATOM     22  C   UNL     1       1.873   5.127  19.824  0.00  0.00    +0.000 A 
ATOM     23  C   UNL     1       2.153   4.954  18.460  0.00  0.00    +0.000 A 
ATOM     24  C   UNL     1       1.755   3.793  17.793  0.00  0.00    +0.000 A 
ATOM     25  C   UNL     1       1.083   2.784  18.482  0.00  0.00    +0.000 A 
ATOM     26  C   UNL     1       0.826   2.926  19.842  0.00  0.00    +0.000 A 
ATOM     27  C   UNL     1       1.230   4.084  20.511  0.00  0.00    +0.000 A 
ENDBRANCH  21  22
ENDBRANCH   7  21
TORSDOF 6
ENDMDL
MODEL 7
REMARK VINA RESULT:      -7.7      4.916      7.168
REMARK  Name = 
REMARK  8 active torsions:
REMARK  status: ('A' for Active; 'I' for Inactive)
REMARK    1  A    between atoms: C_1  and  O_2
REMARK    2  A    between atoms: O_2  and  C_3
REMARK    3  A    between atoms: C_3  and  C_5
REMARK    4  A    between atoms: C_8  and  O_9
REMARK    5  A    between atoms: O_9  and  C_10
REMARK    6  A    between atoms: C_12  and  C_13
REMARK    7  A    between atoms: N_16  and  C_17
REMARK    8  A    between atoms: C_17  and  C_18
REMARK                            x       y       z     vdW  Elec       q    Type
REMARK                         _______ _______ _______ _____ _____    ______ ____
ROOT
ATOM      1  C   UNL     1       6.226   6.279  17.268  0.00  0.00    +0.000 A 
ATOM      2  C   UNL     1       6.863   5.448  18.156  0.00  0.00    +0.000 A 
ATOM      3  C   UNL     1       7.841   6.045  18.918  0.00  0.00    +0.000 A 
ATOM      4  C   UNL     1       8.538   5.314  20.022  0.00  0.00    +0.000 C 
ATOM      5  N   UNL     1       8.206   7.334  18.742  0.00  0.00    +0.000 NA
ATOM      6  C   UNL     1       7.514   8.065  17.862  0.00  0.00    +0.000 A 
ATOM      7  N   UNL     1       7.869   9.371  17.596  0.00  0.00    +0.000 N 
ATOM      8  N   UNL     1       6.480   7.597  17.169  0.00  0.00    +0.000 NA
ATOM      9  H   UNL     1       7.112   9.970  17.906  0.00  0.00    +0.000 HD
ENDROOT
BRANCH   1  10
ATOM     10  O   UNL     1       5.266   5.716  16.429  0.00  0.00    +0.000 OA
BRANCH  10  14
ATOM     11  C   UNL     1       2.065   3.765  18.297  0.00  0.00    +0.000 A 
ATOM     12  C   UNL     1       2.998   3.019  17.577  0.00  0.00    +0.000 A 
ATOM     13  C   UNL     1       4.087   3.645  16.976  0.00  0.00    +0.000 A 
ATOM     14  C   UNL     1       4.230   5.037  17.036  0.00  0.00    +0.000 A 
ATOM     15  C   UNL     1       3.315   5.786  17.785  0.00  0.00    +0.000 A 
ATOM     16  C   UNL     1       2.230   5.153  18.412  0.00  0.00    +0.000 A 
BRANCH  11  17
ATOM     17  C   UNL     1       0.934   3.024  18.920  0.00  0.00    +0.000 C 
ATOM     18  O   UNL     1       0.334   2.114  18.358  0.00  0.00    +0.000 OA
BRANCH  17  20
ATOM     19  C   UNL     1       1.399   2.782  21.186  0.00  0.00    +0.000 C 
ATOM     20  O   UNL     1       0.678   3.477  20.169  0.00  0.00    +0.000 OA
ENDBRANCH  17  20
ENDBRANCH  11  17
ENDBRANCH  10  14
ENDBRANCH   1  10
BRANCH   7  21
ATOM     21  C   UNL     1       9.186   9.792  18.023  0.00  0.00    +0.000 C 
BRANCH  21  22
ATOM     22  C   UNL     1       9.159  11.249  18.447  0.00  0.00    +0.000 A 
ATOM     23  C   UNL     1       8.481  12.190  17.657  0.00  0.00    +0.000 A 
ATOM     24  C   UNL     1       8.419  13.531  18.044  0.00  0.00    +0.000 A 
ATOM     25  C   UNL     1       9.023  13.948  19.230  0.00  0.00    +0.000 A 
ATOM     26  C   UNL     1       9.671  13.021  20.041  0.00  0.00    +0.000 A 
ATOM     27  C   UNL     1       9.727  11.679  19.658  0.00  0.00    +0.000 A 
ENDBRANCH  21  22
ENDBRANCH   7  21
TORSDOF 6
ENDMDL
MODEL 8
REMARK VINA RESULT:      -7.7      0.940      1.117
REMARK  Name = 
REMARK  8 active torsions:
REMARK  status: ('A' for Active; 'I' for Inactive)
REMARK    1  A    between atoms: C_1  and  O_2
REMARK    2  A    between atoms: O_2  and  C_3
REMARK    3  A    between atoms: C_3  and  C_5
REMARK    4  A    between atoms: C_8  and  O_9
REMARK    5  A    between atoms: O_9  and  C_10
REMARK    6  A    between atoms: C_12  and  C_13
REMARK    7  A    between atoms: N_16  and  C_17
REMARK    8  A    between atoms: C_17  and  C_18
REMARK                            x       y       z     vdW  Elec       q    Type
REMARK                         _______ _______ _______ _____ _____    ______ ____
ROOT
ATOM      1  C   UNL     1       4.372   5.133  19.274  0.00  0.00    +0.000 A 
ATOM      2  C   UNL     1       3.846   3.910  19.611  0.00  0.00    +0.000 A 
ATOM      3  C   UNL     1       2.577   3.945  20.142  0.00  0.00    +0.000 A 
ATOM      4  C   UNL     1       1.811   2.694  20.438  0.00  0.00    +0.000 C 
ATOM      5  N   UNL     1       1.930   5.105  20.392  0.00  0.00    +0.000 NA
ATOM      6  C   UNL     1       2.521   6.244  20.013  0.00  0.00    +0.000 A 
ATOM      7  N   UNL     1       1.940   7.464  20.286  0.00  0.00    +0.000 N 
ATOM      8  N   UNL     1       3.695   6.291  19.389  0.00  0.00    +0.000 NA
ATOM      9  H   UNL     1       1.699   7.900  19.404  0.00  0.00    +0.000 HD
ENDROOT
BRANCH   1  10
ATOM     10  O   UNL     1       5.677   5.165  18.785  0.00  0.00    +0.000 OA
BRANCH  10  14
ATOM     11  C   UNL     1       6.312   4.371  14.723  0.00  0.00    +0.000 A 
ATOM     12  C   UNL     1       5.017   4.319  15.238  0.00  0.00    +0.000 A 
ATOM     13  C   UNL     1       4.781   4.611  16.578  0.00  0.00    +0.000 A 
ATOM     14  C   UNL     1       5.845   4.904  17.441  0.00  0.00    +0.000 A 
ATOM     15  C   UNL     1       7.141   4.990  16.922  0.00  0.00    +0.000 A 
ATOM     16  C   UNL     1       7.378   4.719  15.564  0.00  0.00    +0.000 A 
BRANCH  11  17
ATOM     17  C   UNL     1       6.484   4.056  13.277  0.00  0.00    +0.000 C 
ATOM     18  O   UNL     1       7.286   4.634  12.553  0.00  0.00    +0.000 OA
BRANCH  17  20
ATOM     19  C   UNL     1       4.806   3.408  11.802  0.00  0.00    +0.000 C 
ATOM     20  O   UNL     1       5.658   3.055  12.891  0.00  0.00    +0.000 OA
ENDBRANCH  17  20
ENDBRANCH  11  17
ENDBRANCH  10  14
ENDBRANCH   1  10
BRANCH   7  21
ATOM     21  C   UNL     1       0.886   7.480  21.277  0.00  0.00    +0.000 C 
BRANCH  21  22
ATOM     22  C   UNL     1       0.394   8.900  21.495  0.00  0.00    +0.000 A 
ATOM     23  C   UNL     1      -0.251   9.235  22.694  0.00  0.00    +0.000 A 
ATOM     24  C   UNL     1      -0.686  10.543  22.928  0.00  0.00    +0.000 A 
ATOM     25  C   UNL     1      -0.471  11.534  21.971  0.00  0.00    +0.000 A 
ATOM     26  C   UNL     1       0.197  11.225  20.790  0.00  0.00    +0.000 A 
ATOM     27  C   UNL     1       0.637   9.920  20.559  0.00  0.00    +0.000 A 
ENDBRANCH  21  22
ENDBRANCH   7  21
TORSDOF 6
ENDMDL
MODEL 9
REMARK VINA RESULT:      -7.7      4.580      7.607
REMARK  Name = 
REMARK  8 active torsions:
REMARK  status: ('A' for Active; 'I' for Inactive)
REMARK    1  A    between atoms: C_1  and  O_2
REMARK    2  A    between atoms: O_2  and  C_3
REMARK    3  A    between atoms: C_3  and  C_5
REMARK    4  A    between atoms: C_8  and  O_9
REMARK    5  A    between atoms: O_9  and  C_10
REMARK    6  A    between atoms: C_12  and  C_13
REMARK    7  A    between atoms: N_16  and  C_17
REMARK    8  A    between atoms: C_17  and  C_18
REMARK                            x       y       z     vdW  Elec       q    Type
REMARK                         _______ _______ _______ _____ _____    ______ ____
ROOT
ATOM      1  C   UNL     1       6.614   5.316  18.189  0.00  0.00    +0.000 A 
ATOM      2  C   UNL     1       5.757   5.515  17.135  0.00  0.00    +0.000 A 
ATOM      3  C   UNL     1       5.921   6.705  16.463  0.00  0.00    +0.000 A 
ATOM      4  C   UNL     1       5.160   7.017  15.214  0.00  0.00    +0.000 C 
ATOM      5  N   UNL     1       6.804   7.645  16.866  0.00  0.00    +0.000 NA
ATOM      6  C   UNL     1       7.605   7.350  17.896  0.00  0.00    +0.000 A 
ATOM      7  N   UNL     1       8.490   8.284  18.391  0.00  0.00    +0.000 N 
ATOM      8  N   UNL     1       7.590   6.179  18.527  0.00  0.00    +0.000 NA
ATOM      9  H   UNL     1       9.430   7.940  18.230  0.00  0.00    +0.000 HD
ENDROOT
BRANCH   1  10
ATOM     10  O   UNL     1       6.455   4.154  18.943  0.00  0.00    +0.000 OA
BRANCH  10  14
ATOM     11  C   UNL     1       2.659   3.266  20.472  0.00  0.00    +0.000 A 
ATOM     12  C   UNL     1       2.983   4.588  20.164  0.00  0.00    +0.000 A 
ATOM     13  C   UNL     1       4.228   4.899  19.624  0.00  0.00    +0.000 A 
ATOM     14  C   UNL     1       5.193   3.900  19.438  0.00  0.00    +0.000 A 
ATOM     15  C   UNL     1       4.861   2.570  19.714  0.00  0.00    +0.000 A 
ATOM     16  C   UNL     1       3.597   2.251  20.235  0.00  0.00    +0.000 A 
BRANCH  11  17
ATOM     17  C   UNL     1       1.305   3.010  21.036  0.00  0.00    +0.000 C 
ATOM     18  O   UNL     1       1.117   2.601  22.177  0.00  0.00    +0.000 OA
BRANCH  17  20
ATOM     19  C   UNL     1       0.440   2.553  18.926  0.00  0.00    +0.000 C 
ATOM     20  O   UNL     1       0.335   3.300  20.137  0.00  0.00    +0.000 OA
ENDBRANCH  17  20
ENDBRANCH  11  17
ENDBRANCH  10  14
ENDBRANCH   1  10
BRANCH   7  21
ATOM     21  C   UNL     1       8.276   9.660  18.001  0.00  0.00    +0.000 C 
BRANCH  21  22
ATOM     22  C   UNL     1       9.326  10.554  18.635  0.00  0.00    +0.000 A 
ATOM     23  C   UNL     1      10.248  11.229  17.822  0.00  0.00    +0.000 A 
ATOM     24  C   UNL     1      11.204  12.080  18.383  0.00  0.00    +0.000 A 
ATOM     25  C   UNL     1      11.244  12.276  19.763  0.00  0.00    +0.000 A 
ATOM     26  C   UNL     1      10.316  11.640  20.581  0.00  0.00    +0.000 A 
ATOM     27  C   UNL     1       9.356  10.795  20.020  0.00  0.00    +0.000 A 
ENDBRANCH  21  22
ENDBRANCH   7  21
TORSDOF 6
ENDMDL
