MODEL 1
REMARK VINA RESULT:      -7.4      0.000      0.000
REMARK  Name = 
REMARK  2 active torsions:
REMARK  status: ('A' for Active; 'I' for Inactive)
REMARK    1  A    between atoms: O_1  and  C_2
REMARK    2  A    between atoms: N_9  and  C_10
REMARK                            x       y       z     vdW  Elec       q    Type
REMARK                         _______ _______ _______ _____ _____    ______ ____
ROOT
ATOM      1  C   UNL     1       1.458   2.112  19.339  0.00  0.00    +0.000 C 
ATOM      2  C   UNL     1       0.641   2.891  20.391  0.00  0.00    +0.000 C 
ATOM      3  C   UNL     1       1.510   3.384  21.559  0.00  0.00    +0.000 C 
ATOM      4  C   UNL     1       2.602   4.346  21.071  0.00  0.00    +0.000 C 
ATOM      5  C   UNL     1       3.276   3.806  19.858  0.00  0.00    +0.000 A 
ATOM      6  N   UNL     1       4.482   4.306  19.450  0.00  0.00    +0.000 NA
ATOM      7  C   UNL     1       4.893   3.696  18.357  0.00  0.00    +0.000 A 
ATOM      8  N   UNL     1       6.038   3.995  17.697  0.00  0.00    +0.000 N 
ATOM      9  S   UNL     1       3.850   2.425  17.819  0.00  0.00    +0.000 S 
ATOM     10  C   UNL     1       2.749   2.808  19.067  0.00  0.00    +0.000 A 
ATOM     11  H   UNL     1       6.343   3.386  16.948  0.00  0.00    +0.000 HD
ENDROOT
BRANCH   8  12
ATOM     12  C   UNL     1       6.659   5.260  17.723  0.00  0.00    +0.000 A 
ATOM     13  C   UNL     1       7.655   5.525  18.675  0.00  0.00    +0.000 A 
ATOM     14  C   UNL     1       8.224   6.798  18.771  0.00  0.00    +0.000 A 
ATOM     15  C   UNL     1       7.808   7.809  17.911  0.00  0.00    +0.000 A 
ATOM     16  F   UNL     1       8.349   9.030  18.013  0.00  0.00    +0.000 F 
ATOM     17  C   UNL     1       6.832   7.573  16.959  0.00  0.00    +0.000 A 
ATOM     18  C   UNL     1       6.256   6.306  16.874  0.00  0.00    +0.000 A 
ENDBRANCH   8  12
BRANCH   1  19
ATOM     19  O   UNL     1       0.718   2.046  18.128  0.00  0.00    +0.000 OA
ATOM     20  H   UNL     1      -0.153   1.675  18.344  0.00  0.00    +0.000 HD
ENDBRANCH   1  19
TORSDOF 2
ENDMDL
MODEL 2
REMARK VINA RESULT:      -7.4      0.415      1.204
REMARK  Name = 
REMARK  2 active torsions:
REMARK  status: ('A' for Active; 'I' for Inactive)
REMARK    1  A    between atoms: O_1  and  C_2
REMARK    2  A    between atoms: N_9  and  C_10
REMARK                            x       y       z     vdW  Elec       q    Type
REMARK                         _______ _______ _______ _____ _____    ______ ____
ROOT
ATOM      1  C   UNL     1       1.704   2.087  19.230  0.00  0.00    +0.000 C 
ATOM      2  C   UNL     1       0.656   2.906  20.013  0.00  0.00    +0.000 C 
ATOM      3  C   UNL     1       1.262   3.616  21.234  0.00  0.00    +0.000 C 
ATOM      4  C   UNL     1       2.352   4.612  20.812  0.00  0.00    +0.000 C 
ATOM      5  C   UNL     1       3.272   3.996  19.815  0.00  0.00    +0.000 A 
ATOM      6  N   UNL     1       4.492   4.555  19.553  0.00  0.00    +0.000 NA
ATOM      7  C   UNL     1       5.136   3.860  18.639  0.00  0.00    +0.000 A 
ATOM      8  N   UNL     1       6.357   4.184  18.148  0.00  0.00    +0.000 N 
ATOM      9  S   UNL     1       4.302   2.440  18.109  0.00  0.00    +0.000 S 
ATOM     10  C   UNL     1       2.969   2.864  19.089  0.00  0.00    +0.000 A 
ATOM     11  H   UNL     1       6.835   3.521  17.551  0.00  0.00    +0.000 HD
ENDROOT
BRANCH   8  12
ATOM     12  C   UNL     1       6.870   5.497  18.107  0.00  0.00    +0.000 A 
ATOM     13  C   UNL     1       6.460   6.369  17.086  0.00  0.00    +0.000 A 
ATOM     14  C   UNL     1       7.019   7.646  16.979  0.00  0.00    +0.000 A 
ATOM     15  C   UNL     1       7.980   8.061  17.895  0.00  0.00    +0.000 A 
ATOM     16  F   UNL     1       8.518   9.282  17.783  0.00  0.00    +0.000 F 
ATOM     17  C   UNL     1       8.396   7.223  18.914  0.00  0.00    +0.000 A 
ATOM     18  C   UNL     1       7.848   5.944  19.011  0.00  0.00    +0.000 A 
ENDBRANCH   8  12
BRANCH   1  19
ATOM     19  O   UNL     1       1.201   1.805  17.931  0.00  0.00    +0.000 OA
ATOM     20  H   UNL     1       1.741   2.308  17.299  0.00  0.00    +0.000 HD
ENDBRANCH   1  19
TORSDOF 2
ENDMDL
MODEL 3
REMARK VINA RESULT:      -6.7      4.777      6.243
REMARK  Name = 
REMARK  2 active torsions:
REMARK  status: ('A' for Active; 'I' for Inactive)
REMARK    1  A    between atoms: O_1  and  C_2
REMARK    2  A    between atoms: N_9  and  C_10
REMARK                            x       y       z     vdW  Elec       q    Type
REMARK                         _______ _______ _______ _____ _____    ______ ____
ROOT
ATOM      1  C   UNL     1       2.502   3.279  18.266  0.00  0.00    +0.000 C 
ATOM      2  C   UNL     1       1.791   2.144  19.035  0.00  0.00    +0.000 C 
ATOM      3  C   UNL     1       1.970   2.266  20.556  0.00  0.00    +0.000 C 
ATOM      4  C   UNL     1       1.370   3.578  21.082  0.00  0.00    +0.000 C 
ATOM      5  C   UNL     1       1.773   4.725  20.222  0.00  0.00    +0.000 A 
ATOM      6  N   UNL     1       1.649   6.011  20.671  0.00  0.00    +0.000 NA
ATOM      7  C   UNL     1       2.053   6.865  19.753  0.00  0.00    +0.000 A 
ATOM      8  N   UNL     1       2.021   8.212  19.893  0.00  0.00    +0.000 N 
ATOM      9  S   UNL     1       2.674   6.124  18.319  0.00  0.00    +0.000 S 
ATOM     10  C   UNL     1       2.269   4.588  18.943  0.00  0.00    +0.000 A 
ATOM     11  H   UNL     1       2.476   8.787  19.195  0.00  0.00    +0.000 HD
ENDROOT
BRANCH   8  12
ATOM     12  C   UNL     1       1.116   8.899  20.729  0.00  0.00    +0.000 A 
ATOM     13  C   UNL     1       0.208   9.810  20.168  0.00  0.00    +0.000 A 
ATOM     14  C   UNL     1      -0.640  10.563  20.986  0.00  0.00    +0.000 A 
ATOM     15  C   UNL     1      -0.591  10.400  22.367  0.00  0.00    +0.000 A 
ATOM     16  F   UNL     1      -1.399  11.130  23.148  0.00  0.00    +0.000 F 
ATOM     17  C   UNL     1       0.290   9.504  22.945  0.00  0.00    +0.000 A 
ATOM     18  C   UNL     1       1.145   8.766  22.127  0.00  0.00    +0.000 A 
ENDBRANCH   8  12
BRANCH   1  19
ATOM     19  O   UNL     1       1.975   3.353  16.949  0.00  0.00    +0.000 OA
ATOM     20  H   UNL     1       1.099   3.767  17.013  0.00  0.00    +0.000 HD
ENDBRANCH   1  19
TORSDOF 2
ENDMDL
MODEL 4
REMARK VINA RESULT:      -6.7      4.286      6.177
REMARK  Name = 
REMARK  2 active torsions:
REMARK  status: ('A' for Active; 'I' for Inactive)
REMARK    1  A    between atoms: O_1  and  C_2
REMARK    2  A    between atoms: N_9  and  C_10
REMARK                            x       y       z     vdW  Elec       q    Type
REMARK                         _______ _______ _______ _____ _____    ______ ____
ROOT
ATOM      1  C   UNL     1       6.822   4.217  17.162  0.00  0.00    +0.000 C 
ATOM      2  C   UNL     1       7.273   4.819  15.814  0.00  0.00    +0.000 C 
ATOM      3  C   UNL     1       6.089   5.115  14.880  0.00  0.00    +0.000 C 
ATOM      4  C   UNL     1       5.131   6.140  15.506  0.00  0.00    +0.000 C 
ATOM      5  C   UNL     1       4.850   5.799  16.929  0.00  0.00    +0.000 A 
ATOM      6  N   UNL     1       3.784   6.354  17.581  0.00  0.00    +0.000 NA
ATOM      7  C   UNL     1       3.726   5.926  18.826  0.00  0.00    +0.000 A 
ATOM      8  N   UNL     1       2.798   6.322  19.730  0.00  0.00    +0.000 N 
ATOM      9  S   UNL     1       4.939   4.762  19.233  0.00  0.00    +0.000 S 
ATOM     10  C   UNL     1       5.626   4.943  17.680  0.00  0.00    +0.000 A 
ATOM     11  H   UNL     1       2.746   5.841  20.619  0.00  0.00    +0.000 HD
ENDROOT
BRANCH   8  12
ATOM     12  C   UNL     1       2.134   7.565  19.689  0.00  0.00    +0.000 A 
ATOM     13  C   UNL     1       1.461   8.030  20.829  0.00  0.00    +0.000 A 
ATOM     14  C   UNL     1       0.728   9.219  20.785  0.00  0.00    +0.000 A 
ATOM     15  C   UNL     1       0.671   9.953  19.604  0.00  0.00    +0.000 A 
ATOM     16  F   UNL     1      -0.040  11.088  19.564  0.00  0.00    +0.000 F 
ATOM     17  C   UNL     1       1.331   9.521  18.468  0.00  0.00    +0.000 A 
ATOM     18  C   UNL     1       2.050   8.327  18.511  0.00  0.00    +0.000 A 
ENDBRANCH   8  12
BRANCH   1  19
ATOM     19  O   UNL     1       7.874   4.348  18.108  0.00  0.00    +0.000 OA
ATOM     20  H   UNL     1       8.053   3.462  18.463  0.00  0.00    +0.000 HD
ENDBRANCH   1  19
TORSDOF 2
ENDMDL
MODEL 5
REMARK VINA RESULT:      -6.6      4.283      6.190
REMARK  Name = 
REMARK  2 active torsions:
REMARK  status: ('A' for Active; 'I' for Inactive)
REMARK    1  A    between atoms: O_1  and  C_2
REMARK    2  A    between atoms: N_9  and  C_10
REMARK                            x       y       z     vdW  Elec       q    Type
REMARK                         _______ _______ _______ _____ _____    ______ ____
ROOT
ATOM      1  C   UNL     1       6.861   4.240  17.234  0.00  0.00    +0.000 C 
ATOM      2  C   UNL     1       7.312   4.809  15.872  0.00  0.00    +0.000 C 
ATOM      3  C   UNL     1       6.131   5.054  14.919  0.00  0.00    +0.000 C 
ATOM      4  C   UNL     1       5.150   6.080  15.505  0.00  0.00    +0.000 C 
ATOM      5  C   UNL     1       4.863   5.779  16.935  0.00  0.00    +0.000 A 
ATOM      6  N   UNL     1       3.781   6.333  17.561  0.00  0.00    +0.000 NA
ATOM      7  C   UNL     1       3.720   5.943  18.818  0.00  0.00    +0.000 A 
ATOM      8  N   UNL     1       2.778   6.350  19.702  0.00  0.00    +0.000 N 
ATOM      9  S   UNL     1       4.951   4.814  19.271  0.00  0.00    +0.000 S 
ATOM     10  C   UNL     1       5.647   4.960  17.719  0.00  0.00    +0.000 A 
ATOM     11  H   UNL     1       2.726   5.895  20.605  0.00  0.00    +0.000 HD
ENDROOT
BRANCH   8  12
ATOM     12  C   UNL     1       2.092   7.579  19.617  0.00  0.00    +0.000 A 
ATOM     13  C   UNL     1       2.077   8.282  18.402  0.00  0.00    +0.000 A 
ATOM     14  C   UNL     1       1.474   9.540  18.318  0.00  0.00    +0.000 A 
ATOM     15  C   UNL     1       0.875  10.097  19.444  0.00  0.00    +0.000 A 
ATOM     16  F   UNL     1       0.306  11.307  19.361  0.00  0.00    +0.000 F 
ATOM     17  C   UNL     1       0.870   9.422  20.651  0.00  0.00    +0.000 A 
ATOM     18  C   UNL     1       1.484   8.173  20.736  0.00  0.00    +0.000 A 
ENDBRANCH   8  12
BRANCH   1  19
ATOM     19  O   UNL     1       7.902   4.420  18.183  0.00  0.00    +0.000 OA
ATOM     20  H   UNL     1       8.627   4.882  17.731  0.00  0.00    +0.000 HD
ENDBRANCH   1  19
TORSDOF 2
ENDMDL
MODEL 6
REMARK VINA RESULT:      -6.5      3.346      4.030
REMARK  Name = 
REMARK  2 active torsions:
REMARK  status: ('A' for Active; 'I' for Inactive)
REMARK    1  A    between atoms: O_1  and  C_2
REMARK    2  A    between atoms: N_9  and  C_10
REMARK                            x       y       z     vdW  Elec       q    Type
REMARK                         _______ _______ _______ _____ _____    ______ ____
ROOT
ATOM      1  C   UNL     1       2.625   5.038  20.461  0.00  0.00    +0.000 C 
ATOM      2  C   UNL     1       1.585   6.138  20.160  0.00  0.00    +0.000 C 
ATOM      3  C   UNL     1       2.230   7.414  19.594  0.00  0.00    +0.000 C 
ATOM      4  C   UNL     1       2.946   7.130  18.265  0.00  0.00    +0.000 C 
ATOM      5  C   UNL     1       3.774   5.896  18.365  0.00  0.00    +0.000 A 
ATOM      6  N   UNL     1       4.751   5.634  17.444  0.00  0.00    +0.000 NA
ATOM      7  C   UNL     1       5.351   4.493  17.714  0.00  0.00    +0.000 A 
ATOM      8  N   UNL     1       6.339   3.951  16.962  0.00  0.00    +0.000 N 
ATOM      9  S   UNL     1       4.793   3.722  19.158  0.00  0.00    +0.000 S 
ATOM     10  C   UNL     1       3.616   4.944  19.349  0.00  0.00    +0.000 A 
ATOM     11  H   UNL     1       6.836   3.144  17.317  0.00  0.00    +0.000 HD
ENDROOT
BRANCH   8  12
ATOM     12  C   UNL     1       6.505   4.190  15.582  0.00  0.00    +0.000 A 
ATOM     13  C   UNL     1       5.723   3.482  14.657  0.00  0.00    +0.000 A 
ATOM     14  C   UNL     1       5.930   3.643  13.284  0.00  0.00    +0.000 A 
ATOM     15  C   UNL     1       6.910   4.519  12.830  0.00  0.00    +0.000 A 
ATOM     16  F   UNL     1       7.110   4.664  11.513  0.00  0.00    +0.000 F 
ATOM     17  C   UNL     1       7.690   5.235  13.721  0.00  0.00    +0.000 A 
ATOM     18  C   UNL     1       7.492   5.061  15.090  0.00  0.00    +0.000 A 
ENDBRANCH   8  12
BRANCH   1  19
ATOM     19  O   UNL     1       1.961   3.788  20.580  0.00  0.00    +0.000 OA
ATOM     20  H   UNL     1       2.022   3.518  21.512  0.00  0.00    +0.000 HD
ENDBRANCH   1  19
TORSDOF 2
ENDMDL
MODEL 7
REMARK VINA RESULT:      -6.4      4.827      6.211
REMARK  Name = 
REMARK  2 active torsions:
REMARK  status: ('A' for Active; 'I' for Inactive)
REMARK    1  A    between atoms: O_1  and  C_2
REMARK    2  A    between atoms: N_9  and  C_10
REMARK                            x       y       z     vdW  Elec       q    Type
REMARK                         _______ _______ _______ _____ _____    ______ ____
ROOT
ATOM      1  C   UNL     1       2.618   3.409  18.405  0.00  0.00    +0.000 C 
ATOM      2  C   UNL     1       2.068   2.273  19.294  0.00  0.00    +0.000 C 
ATOM      3  C   UNL     1       2.391   2.486  20.782  0.00  0.00    +0.000 C 
ATOM      4  C   UNL     1       1.758   3.783  21.307  0.00  0.00    +0.000 C 
ATOM      5  C   UNL     1       1.994   4.907  20.357  0.00  0.00    +0.000 A 
ATOM      6  N   UNL     1       1.828   6.204  20.757  0.00  0.00    +0.000 NA
ATOM      7  C   UNL     1       2.078   7.033  19.764  0.00  0.00    +0.000 A 
ATOM      8  N   UNL     1       1.968   8.381  19.844  0.00  0.00    +0.000 N 
ATOM      9  S   UNL     1       2.600   6.258  18.308  0.00  0.00    +0.000 S 
ATOM     10  C   UNL     1       2.366   4.734  19.041  0.00  0.00    +0.000 A 
ATOM     11  H   UNL     1       2.310   8.945  19.077  0.00  0.00    +0.000 HD
ENDROOT
BRANCH   8  12
ATOM     12  C   UNL     1       1.108   9.052  20.737  0.00  0.00    +0.000 A 
ATOM     13  C   UNL     1       1.278   8.887  22.121  0.00  0.00    +0.000 A 
ATOM     14  C   UNL     1       0.386   9.477  23.021  0.00  0.00    +0.000 A 
ATOM     15  C   UNL     1      -0.674  10.242  22.543  0.00  0.00    +0.000 A 
ATOM     16  F   UNL     1      -1.532  10.798  23.409  0.00  0.00    +0.000 F 
ATOM     17  C   UNL     1      -0.860  10.426  21.185  0.00  0.00    +0.000 A 
ATOM     18  C   UNL     1       0.023   9.824  20.289  0.00  0.00    +0.000 A 
ENDBRANCH   8  12
BRANCH   1  19
ATOM     19  O   UNL     1       1.958   3.379  17.148  0.00  0.00    +0.000 OA
ATOM     20  H   UNL     1       2.489   2.820  16.557  0.00  0.00    +0.000 HD
ENDBRANCH   1  19
TORSDOF 2
ENDMDL
MODEL 8
REMARK VINA RESULT:      -6.4      4.490      5.763
REMARK  Name = 
REMARK  2 active torsions:
REMARK  status: ('A' for Active; 'I' for Inactive)
REMARK    1  A    between atoms: O_1  and  C_2
REMARK    2  A    between atoms: N_9  and  C_10
REMARK                            x       y       z     vdW  Elec       q    Type
REMARK                         _______ _______ _______ _____ _____    ______ ____
ROOT
ATOM      1  C   UNL     1       3.928   2.767  18.366  0.00  0.00    +0.000 C 
ATOM      2  C   UNL     1       2.810   1.828  17.863  0.00  0.00    +0.000 C 
ATOM      3  C   UNL     1       1.608   1.784  18.820  0.00  0.00    +0.000 C 
ATOM      4  C   UNL     1       0.966   3.171  18.967  0.00  0.00    +0.000 C 
ATOM      5  C   UNL     1       2.007   4.215  19.176  0.00  0.00    +0.000 A 
ATOM      6  N   UNL     1       1.670   5.448  19.665  0.00  0.00    +0.000 NA
ATOM      7  C   UNL     1       2.736   6.217  19.763  0.00  0.00    +0.000 A 
ATOM      8  N   UNL     1       2.716   7.504  20.185  0.00  0.00    +0.000 N 
ATOM      9  S   UNL     1       4.216   5.435  19.328  0.00  0.00    +0.000 S 
ATOM     10  C   UNL     1       3.343   4.036  18.888  0.00  0.00    +0.000 A 
ATOM     11  H   UNL     1       3.595   7.974  20.359  0.00  0.00    +0.000 HD
ENDROOT
BRANCH   8  12
ATOM     12  C   UNL     1       1.599   8.357  20.068  0.00  0.00    +0.000 A 
ATOM     13  C   UNL     1       1.376   9.047  18.866  0.00  0.00    +0.000 A 
ATOM     14  C   UNL     1       0.323   9.960  18.758  0.00  0.00    +0.000 A 
ATOM     15  C   UNL     1      -0.516  10.181  19.845  0.00  0.00    +0.000 A 
ATOM     16  F   UNL     1      -1.518  11.063  19.739  0.00  0.00    +0.000 F 
ATOM     17  C   UNL     1      -0.322   9.509  21.039  0.00  0.00    +0.000 A 
ATOM     18  C   UNL     1       0.738   8.609  21.149  0.00  0.00    +0.000 A 
ENDBRANCH   8  12
BRANCH   1  19
ATOM     19  O   UNL     1       4.795   3.081  17.285  0.00  0.00    +0.000 OA
ATOM     20  H   UNL     1       4.419   2.674  16.487  0.00  0.00    +0.000 HD
ENDBRANCH   1  19
TORSDOF 2
ENDMDL
MODEL 9
REMARK VINA RESULT:      -6.4      5.281      6.988
REMARK  Name = 
REMARK  2 active torsions:
REMARK  status: ('A' for Active; 'I' for Inactive)
REMARK    1  A    between atoms: O_1  and  C_2
REMARK    2  A    between atoms: N_9  and  C_10
REMARK                            x       y       z     vdW  Elec       q    Type
REMARK                         _______ _______ _______ _____ _____    ______ ____
ROOT
ATOM      1  C   UNL     1       0.523  10.845  20.281  0.00  0.00    +0.000 C 
ATOM      2  C   UNL     1       0.515  11.459  18.865  0.00  0.00    +0.000 C 
ATOM      3  C   UNL     1       1.798  11.138  18.081  0.00  0.00    +0.000 C 
ATOM      4  C   UNL     1       1.966   9.624  17.889  0.00  0.00    +0.000 C 
ATOM      5  C   UNL     1       1.708   8.898  19.163  0.00  0.00    +0.000 A 
ATOM      6  N   UNL     1       2.120   7.604  19.325  0.00  0.00    +0.000 NA
ATOM      7  C   UNL     1       1.784   7.154  20.517  0.00  0.00    +0.000 A 
ATOM      8  N   UNL     1       2.028   5.896  20.958  0.00  0.00    +0.000 N 
ATOM      9  S   UNL     1       1.009   8.326  21.525  0.00  0.00    +0.000 S 
ATOM     10  C   UNL     1       1.041   9.447  20.237  0.00  0.00    +0.000 A 
ATOM     11  H   UNL     1       1.859   5.679  21.932  0.00  0.00    +0.000 HD
ENDROOT
BRANCH   8  12
ATOM     12  C   UNL     1       2.162   4.774  20.114  0.00  0.00    +0.000 A 
ATOM     13  C   UNL     1       3.406   4.492  19.528  0.00  0.00    +0.000 A 
ATOM     14  C   UNL     1       3.540   3.434  18.624  0.00  0.00    +0.000 A 
ATOM     15  C   UNL     1       2.436   2.648  18.310  0.00  0.00    +0.000 A 
ATOM     16  F   UNL     1       2.567   1.641  17.436  0.00  0.00    +0.000 F 
ATOM     17  C   UNL     1       1.201   2.901  18.879  0.00  0.00    +0.000 A 
ATOM     18  C   UNL     1       1.066   3.966  19.769  0.00  0.00    +0.000 A 
ENDBRANCH   8  12
BRANCH   1  19
ATOM     19  O   UNL     1      -0.804  10.819  20.786  0.00  0.00    +0.000 OA
ATOM     20  H   UNL     1      -0.861  11.495  21.481  0.00  0.00    +0.000 HD
ENDBRANCH   1  19
TORSDOF 2
ENDMDL
