MODEL 1
REMARK VINA RESULT:      -7.1      0.000      0.000
REMARK  Name = 
REMARK  9 active torsions:
REMARK  status: ('A' for Active; 'I' for Inactive)
REMARK    1  A    between atoms: C_1  and  C_2
REMARK    2  A    between atoms: C_2  and  C_3
REMARK    3  A    between atoms: C_2  and  C_4
REMARK    4  A    between atoms: N_6  and  C_7
REMARK    5  A    between atoms: C_7  and  C_8
REMARK    6  A    between atoms: C_8  and  S_9
REMARK    7  A    between atoms: S_9  and  C_10
REMARK    8  A    between atoms: C_14  and  N_15
REMARK    9  A    between atoms: C_16  and  C_18
REMARK                            x       y       z     vdW  Elec       q    Type
REMARK                         _______ _______ _______ _____ _____    ______ ____
ROOT
ATOM      1  C   UNL     1       3.122   4.751  19.026  0.00  0.00    +0.000 C 
ATOM      2  C   UNL     1       4.505   4.729  19.698  0.00  0.00    +0.000 C 
ATOM      3  N   UNL     1       5.412   5.536  18.866  0.00  0.00    +0.000 NA
ATOM      4  C   UNL     1       4.552   6.572  18.255  0.00  0.00    +0.000 C 
ATOM      5  C   UNL     1       3.071   6.210  18.532  0.00  0.00    +0.000 C 
ENDROOT
BRANCH   5   6
ATOM      6  N   UNL     1       2.455   7.090  19.530  0.00  0.00    +0.000 N 
ATOM      7  C   UNL     1       1.795   8.240  19.153  0.00  0.00    +0.000 C 
ATOM      8  O   UNL     1       1.711   8.606  17.984  0.00  0.00    +0.000 OA
ATOM      9  H   UNL     1       2.289   6.721  20.456  0.00  0.00    +0.000 HD
BRANCH   7  10
ATOM     10  C   UNL     1       1.151   9.008  20.267  0.00  0.00    +0.000 A 
ATOM     11  C   UNL     1       1.107   8.559  21.651  0.00  0.00    +0.000 A 
ATOM     12  C   UNL     1       0.534   9.313  22.603  0.00  0.00    +0.000 A 
ATOM     13  C   UNL     1      -0.053  10.632  22.253  0.00  0.00    +0.000 A 
ATOM     14  O   UNL     1      -0.586  11.336  23.101  0.00  0.00    +0.000 OA
ATOM     15  N   UNL     1       0.056  10.997  20.934  0.00  0.00    +0.000 N 
ATOM     16  C   UNL     1       0.643  10.216  19.965  0.00  0.00    +0.000 A 
ATOM     17  H   UNL     1      -0.323  11.905  20.693  0.00  0.00    +0.000 HD
ENDBRANCH   7  10
ENDBRANCH   5   6
BRANCH   1  19
ATOM     18  C   UNL     1       1.475   3.622  17.399  0.00  0.00    +0.000 C 
ATOM     19  C   UNL     1       2.924   3.702  17.893  0.00  0.00    +0.000 C 
ATOM     20  C   UNL     1       3.366   2.298  18.330  0.00  0.00    +0.000 C 
ENDBRANCH   1  19
BRANCH   3  21
ATOM     21  C   UNL     1       6.174   4.728  17.896  0.00  0.00    +0.000 C 
BRANCH  21  22
ATOM     22  C   UNL     1       7.099   5.535  16.988  0.00  0.00    +0.000 C 
BRANCH  22  23
ATOM     23  S   UNL     1       6.594   5.328  15.287  0.00  0.00    +0.000 S 
ATOM     24  C   UNL     1       5.966   3.668  15.244  0.00  0.00    +0.000 C 
ATOM     25  O   UNL     1       5.484   6.224  15.028  0.00  0.00    +0.000 OA
ATOM     26  O   UNL     1       7.783   5.361  14.451  0.00  0.00    +0.000 OA
ENDBRANCH  22  23
ENDBRANCH  21  22
ENDBRANCH   3  21
TORSDOF 6
ENDMDL
MODEL 2
REMARK VINA RESULT:      -7.0      1.312      1.703
REMARK  Name = 
REMARK  9 active torsions:
REMARK  status: ('A' for Active; 'I' for Inactive)
REMARK    1  A    between atoms: C_1  and  C_2
REMARK    2  A    between atoms: C_2  and  C_3
REMARK    3  A    between atoms: C_2  and  C_4
REMARK    4  A    between atoms: N_6  and  C_7
REMARK    5  A    between atoms: C_7  and  C_8
REMARK    6  A    between atoms: C_8  and  S_9
REMARK    7  A    between atoms: S_9  and  C_10
REMARK    8  A    between atoms: C_14  and  N_15
REMARK    9  A    between atoms: C_16  and  C_18
REMARK                            x       y       z     vdW  Elec       q    Type
REMARK                         _______ _______ _______ _____ _____    ______ ____
ROOT
ATOM      1  C   UNL     1       2.441   5.141  19.522  0.00  0.00    +0.000 C 
ATOM      2  C   UNL     1       3.889   5.104  20.040  0.00  0.00    +0.000 C 
ATOM      3  N   UNL     1       4.766   5.496  18.924  0.00  0.00    +0.000 NA
ATOM      4  C   UNL     1       3.959   6.430  18.112  0.00  0.00    +0.000 C 
ATOM      5  C   UNL     1       2.495   6.389  18.618  0.00  0.00    +0.000 C 
ENDROOT
BRANCH   5   6
ATOM      6  N   UNL     1       2.122   7.599  19.358  0.00  0.00    +0.000 N 
ATOM      7  C   UNL     1       1.613   8.701  18.706  0.00  0.00    +0.000 C 
ATOM      8  O   UNL     1       1.472   8.747  17.487  0.00  0.00    +0.000 OA
ATOM      9  H   UNL     1       1.993   7.528  20.358  0.00  0.00    +0.000 HD
BRANCH   7  10
ATOM     10  C   UNL     1       1.206   9.841  19.589  0.00  0.00    +0.000 A 
ATOM     11  C   UNL     1       1.178  11.234  19.166  0.00  0.00    +0.000 A 
ATOM     12  C   UNL     1       0.776  12.202  20.006  0.00  0.00    +0.000 A 
ATOM     13  C   UNL     1       0.337  11.856  21.383  0.00  0.00    +0.000 A 
ATOM     14  O   UNL     1      -0.029  12.720  22.169  0.00  0.00    +0.000 OA
ATOM     15  N   UNL     1       0.363  10.519  21.694  0.00  0.00    +0.000 N 
ATOM     16  C   UNL     1       0.778   9.535  20.828  0.00  0.00    +0.000 A 
ATOM     17  H   UNL     1       0.044  10.275  22.624  0.00  0.00    +0.000 HD
ENDBRANCH   7  10
ENDBRANCH   5   6
BRANCH   1  19
ATOM     18  C   UNL     1       1.362   4.145  17.405  0.00  0.00    +0.000 C 
ATOM     19  C   UNL     1       1.976   3.854  18.780  0.00  0.00    +0.000 C 
ATOM     20  C   UNL     1       0.958   3.054  19.606  0.00  0.00    +0.000 C 
ENDBRANCH   1  19
BRANCH   3  21
ATOM     21  C   UNL     1       5.295   4.340  18.177  0.00  0.00    +0.000 C 
BRANCH  21  22
ATOM     22  C   UNL     1       5.270   4.503  16.659  0.00  0.00    +0.000 C 
BRANCH  22  23
ATOM     23  S   UNL     1       6.865   5.080  16.096  0.00  0.00    +0.000 S 
ATOM     24  C   UNL     1       6.909   4.569  14.396  0.00  0.00    +0.000 C 
ATOM     25  O   UNL     1       6.860   6.530  16.120  0.00  0.00    +0.000 OA
ATOM     26  O   UNL     1       7.895   4.332  16.797  0.00  0.00    +0.000 OA
ENDBRANCH  22  23
ENDBRANCH  21  22
ENDBRANCH   3  21
TORSDOF 6
ENDMDL
MODEL 3
REMARK VINA RESULT:      -7.0      1.442      1.578
REMARK  Name = 
REMARK  9 active torsions:
REMARK  status: ('A' for Active; 'I' for Inactive)
REMARK    1  A    between atoms: C_1  and  C_2
REMARK    2  A    between atoms: C_2  and  C_3
REMARK    3  A    between atoms: C_2  and  C_4
REMARK    4  A    between atoms: N_6  and  C_7
REMARK    5  A    between atoms: C_7  and  C_8
REMARK    6  A    between atoms: C_8  and  S_9
REMARK    7  A    between atoms: S_9  and  C_10
REMARK    8  A    between atoms: C_14  and  N_15
REMARK    9  A    between atoms: C_16  and  C_18
REMARK                            x       y       z     vdW  Elec       q    Type
REMARK                         _______ _______ _______ _____ _____    ______ ____
ROOT
ATOM      1  C   UNL     1       2.380   5.167  19.363  0.00  0.00    +0.000 C 
ATOM      2  C   UNL     1       3.790   5.139  19.978  0.00  0.00    +0.000 C 
ATOM      3  N   UNL     1       4.738   5.534  18.924  0.00  0.00    +0.000 NA
ATOM      4  C   UNL     1       3.984   6.463  18.058  0.00  0.00    +0.000 C 
ATOM      5  C   UNL     1       2.489   6.414  18.463  0.00  0.00    +0.000 C 
ENDROOT
BRANCH   5   6
ATOM      6  N   UNL     1       2.060   7.623  19.175  0.00  0.00    +0.000 N 
ATOM      7  C   UNL     1       1.791   8.790  18.493  0.00  0.00    +0.000 C 
ATOM      8  O   UNL     1       1.921   8.896  17.277  0.00  0.00    +0.000 OA
ATOM      9  H   UNL     1       1.713   7.525  20.119  0.00  0.00    +0.000 HD
BRANCH   7  10
ATOM     10  C   UNL     1       1.293   9.927  19.333  0.00  0.00    +0.000 A 
ATOM     11  C   UNL     1       0.803   9.782  20.696  0.00  0.00    +0.000 A 
ATOM     12  C   UNL     1       0.396  10.851  21.400  0.00  0.00    +0.000 A 
ATOM     13  C   UNL     1       0.456  12.206  20.794  0.00  0.00    +0.000 A 
ATOM     14  O   UNL     1       0.086  13.196  21.412  0.00  0.00    +0.000 OA
ATOM     15  N   UNL     1       0.958  12.262  19.517  0.00  0.00    +0.000 N 
ATOM     16  C   UNL     1       1.372  11.161  18.804  0.00  0.00    +0.000 A 
ATOM     17  H   UNL     1       1.023  13.186  19.107  0.00  0.00    +0.000 HD
ENDBRANCH   7  10
ENDBRANCH   5   6
BRANCH   1  19
ATOM     18  C   UNL     1       1.257   4.172  17.269  0.00  0.00    +0.000 C 
ATOM     19  C   UNL     1       1.973   3.877  18.592  0.00  0.00    +0.000 C 
ATOM     20  C   UNL     1       1.073   2.965  19.438  0.00  0.00    +0.000 C 
ENDBRANCH   1  19
BRANCH   3  21
ATOM     21  C   UNL     1       5.323   4.380  18.217  0.00  0.00    +0.000 C 
BRANCH  21  22
ATOM     22  C   UNL     1       5.324   4.505  16.695  0.00  0.00    +0.000 C 
BRANCH  22  23
ATOM     23  S   UNL     1       6.928   5.068  16.144  0.00  0.00    +0.000 S 
ATOM     24  C   UNL     1       6.909   4.721  14.403  0.00  0.00    +0.000 C 
ATOM     25  O   UNL     1       6.988   6.508  16.305  0.00  0.00    +0.000 OA
ATOM     26  O   UNL     1       7.941   4.214  16.742  0.00  0.00    +0.000 OA
ENDBRANCH  22  23
ENDBRANCH  21  22
ENDBRANCH   3  21
TORSDOF 6
ENDMDL
MODEL 4
REMARK VINA RESULT:      -7.0      0.602      1.007
REMARK  Name = 
REMARK  9 active torsions:
REMARK  status: ('A' for Active; 'I' for Inactive)
REMARK    1  A    between atoms: C_1  and  C_2
REMARK    2  A    between atoms: C_2  and  C_3
REMARK    3  A    between atoms: C_2  and  C_4
REMARK    4  A    between atoms: N_6  and  C_7
REMARK    5  A    between atoms: C_7  and  C_8
REMARK    6  A    between atoms: C_8  and  S_9
REMARK    7  A    between atoms: S_9  and  C_10
REMARK    8  A    between atoms: C_14  and  N_15
REMARK    9  A    between atoms: C_16  and  C_18
REMARK                            x       y       z     vdW  Elec       q    Type
REMARK                         _______ _______ _______ _____ _____    ______ ____
ROOT
ATOM      1  C   UNL     1       3.159   4.656  19.114  0.00  0.00    +0.000 C 
ATOM      2  C   UNL     1       4.579   4.742  19.700  0.00  0.00    +0.000 C 
ATOM      3  N   UNL     1       5.401   5.508  18.749  0.00  0.00    +0.000 NA
ATOM      4  C   UNL     1       4.466   6.454  18.107  0.00  0.00    +0.000 C 
ATOM      5  C   UNL     1       3.019   6.064  18.502  0.00  0.00    +0.000 C 
ENDROOT
BRANCH   5   6
ATOM      6  N   UNL     1       2.425   7.003  19.459  0.00  0.00    +0.000 N 
ATOM      7  C   UNL     1       1.834   8.173  19.032  0.00  0.00    +0.000 C 
ATOM      8  O   UNL     1       1.795   8.507  17.852  0.00  0.00    +0.000 OA
ATOM      9  H   UNL     1       2.219   6.672  20.391  0.00  0.00    +0.000 HD
BRANCH   7  10
ATOM     10  C   UNL     1       1.203   9.005  20.107  0.00  0.00    +0.000 A 
ATOM     11  C   UNL     1       0.654  10.336  19.893  0.00  0.00    +0.000 A 
ATOM     12  C   UNL     1       0.079  11.015  20.900  0.00  0.00    +0.000 A 
ATOM     13  C   UNL     1      -0.017  10.402  22.250  0.00  0.00    +0.000 A 
ATOM     14  O   UNL     1      -0.532  11.002  23.185  0.00  0.00    +0.000 OA
ATOM     15  N   UNL     1       0.496   9.133  22.361  0.00  0.00    +0.000 N 
ATOM     16  C   UNL     1       1.085   8.447  21.325  0.00  0.00    +0.000 A 
ATOM     17  H   UNL     1       0.413   8.701  23.274  0.00  0.00    +0.000 HD
ENDBRANCH   7  10
ENDBRANCH   5   6
BRANCH   1  19
ATOM     18  C   UNL     1       1.459   3.214  17.823  0.00  0.00    +0.000 C 
ATOM     19  C   UNL     1       2.941   3.506  18.087  0.00  0.00    +0.000 C 
ATOM     20  C   UNL     1       3.620   2.203  18.535  0.00  0.00    +0.000 C 
ENDBRANCH   1  19
BRANCH   3  21
ATOM     21  C   UNL     1       6.140   4.647  17.806  0.00  0.00    +0.000 C 
BRANCH  21  22
ATOM     22  C   UNL     1       7.144   5.389  16.926  0.00  0.00    +0.000 C 
BRANCH  22  23
ATOM     23  S   UNL     1       6.640   5.267  15.216  0.00  0.00    +0.000 S 
ATOM     24  C   UNL     1       5.959   3.632  15.104  0.00  0.00    +0.000 C 
ATOM     25  O   UNL     1       5.562   6.210  14.989  0.00  0.00    +0.000 OA
ATOM     26  O   UNL     1       7.833   5.294  14.386  0.00  0.00    +0.000 OA
ENDBRANCH  22  23
ENDBRANCH  21  22
ENDBRANCH   3  21
TORSDOF 6
ENDMDL
MODEL 5
REMARK VINA RESULT:      -6.8      1.185      1.716
REMARK  Name = 
REMARK  9 active torsions:
REMARK  status: ('A' for Active; 'I' for Inactive)
REMARK    1  A    between atoms: C_1  and  C_2
REMARK    2  A    between atoms: C_2  and  C_3
REMARK    3  A    between atoms: C_2  and  C_4
REMARK    4  A    between atoms: N_6  and  C_7
REMARK    5  A    between atoms: C_7  and  C_8
REMARK    6  A    between atoms: C_8  and  S_9
REMARK    7  A    between atoms: S_9  and  C_10
REMARK    8  A    between atoms: C_14  and  N_15
REMARK    9  A    between atoms: C_16  and  C_18
REMARK                            x       y       z     vdW  Elec       q    Type
REMARK                         _______ _______ _______ _____ _____    ______ ____
ROOT
ATOM      1  C   UNL     1       2.516   4.222  19.428  0.00  0.00    +0.000 C 
ATOM      2  C   UNL     1       3.991   4.322  19.853  0.00  0.00    +0.000 C 
ATOM      3  N   UNL     1       4.719   4.988  18.761  0.00  0.00    +0.000 NA
ATOM      4  C   UNL     1       3.735   5.901  18.143  0.00  0.00    +0.000 C 
ATOM      5  C   UNL     1       2.333   5.578  18.719  0.00  0.00    +0.000 C 
ENDROOT
BRANCH   5   6
ATOM      6  N   UNL     1       1.858   6.606  19.651  0.00  0.00    +0.000 N 
ATOM      7  C   UNL     1       1.692   7.912  19.243  0.00  0.00    +0.000 C 
ATOM      8  O   UNL     1       1.955   8.293  18.106  0.00  0.00    +0.000 OA
ATOM      9  H   UNL     1       1.408   6.308  20.505  0.00  0.00    +0.000 HD
BRANCH   7  10
ATOM     10  C   UNL     1       1.133   8.844  20.276  0.00  0.00    +0.000 A 
ATOM     11  C   UNL     1       0.601  10.166  19.981  0.00  0.00    +0.000 A 
ATOM     12  C   UNL     1       0.091  10.937  20.955  0.00  0.00    +0.000 A 
ATOM     13  C   UNL     1       0.050  10.437  22.354  0.00  0.00    +0.000 A 
ATOM     14  O   UNL     1      -0.405  11.122  23.261  0.00  0.00    +0.000 OA
ATOM     15  N   UNL     1       0.541   9.169  22.544  0.00  0.00    +0.000 N 
ATOM     16  C   UNL     1       1.064   8.388  21.539  0.00  0.00    +0.000 A 
ATOM     17  H   UNL     1       0.495   8.814  23.492  0.00  0.00    +0.000 HD
ENDBRANCH   7  10
ENDBRANCH   5   6
BRANCH   1  19
ATOM     18  C   UNL     1       0.712   2.548  18.664  0.00  0.00    +0.000 C 
ATOM     19  C   UNL     1       2.172   2.997  18.530  0.00  0.00    +0.000 C 
ATOM     20  C   UNL     1       3.079   1.795  18.830  0.00  0.00    +0.000 C 
ENDBRANCH   1  19
BRANCH   3  21
ATOM     21  C   UNL     1       5.340   4.036  17.822  0.00  0.00    +0.000 C 
BRANCH  21  22
ATOM     22  C   UNL     1       5.618   4.608  16.433  0.00  0.00    +0.000 C 
BRANCH  22  23
ATOM     23  S   UNL     1       7.318   5.150  16.342  0.00  0.00    +0.000 S 
ATOM     24  C   UNL     1       7.298   6.708  17.193  0.00  0.00    +0.000 C 
ATOM     25  O   UNL     1       8.132   4.235  17.118  0.00  0.00    +0.000 OA
ATOM     26  O   UNL     1       7.635   5.424  14.950  0.00  0.00    +0.000 OA
ENDBRANCH  22  23
ENDBRANCH  21  22
ENDBRANCH   3  21
TORSDOF 6
ENDMDL
MODEL 6
REMARK VINA RESULT:      -6.7      1.352      1.913
REMARK  Name = 
REMARK  9 active torsions:
REMARK  status: ('A' for Active; 'I' for Inactive)
REMARK    1  A    between atoms: C_1  and  C_2
REMARK    2  A    between atoms: C_2  and  C_3
REMARK    3  A    between atoms: C_2  and  C_4
REMARK    4  A    between atoms: N_6  and  C_7
REMARK    5  A    between atoms: C_7  and  C_8
REMARK    6  A    between atoms: C_8  and  S_9
REMARK    7  A    between atoms: S_9  and  C_10
REMARK    8  A    between atoms: C_14  and  N_15
REMARK    9  A    between atoms: C_16  and  C_18
REMARK                            x       y       z     vdW  Elec       q    Type
REMARK                         _______ _______ _______ _____ _____    ______ ____
ROOT
ATOM      1  C   UNL     1       2.375   5.197  19.444  0.00  0.00    +0.000 C 
ATOM      2  C   UNL     1       3.844   5.156  19.899  0.00  0.00    +0.000 C 
ATOM      3  N   UNL     1       4.676   5.488  18.731  0.00  0.00    +0.000 NA
ATOM      4  C   UNL     1       3.848   6.403  17.918  0.00  0.00    +0.000 C 
ATOM      5  C   UNL     1       2.408   6.407  18.489  0.00  0.00    +0.000 C 
ENDROOT
BRANCH   5   6
ATOM      6  N   UNL     1       2.086   7.651  19.195  0.00  0.00    +0.000 N 
ATOM      7  C   UNL     1       1.753   8.795  18.501  0.00  0.00    +0.000 C 
ATOM      8  O   UNL     1       1.734   8.848  17.275  0.00  0.00    +0.000 OA
ATOM      9  H   UNL     1       1.856   7.599  20.177  0.00  0.00    +0.000 HD
BRANCH   7  10
ATOM     10  C   UNL     1       1.377   9.974  19.347  0.00  0.00    +0.000 A 
ATOM     11  C   UNL     1       1.356  11.349  18.869  0.00  0.00    +0.000 A 
ATOM     12  C   UNL     1       0.983  12.354  19.678  0.00  0.00    +0.000 A 
ATOM     13  C   UNL     1       0.569  12.069  21.076  0.00  0.00    +0.000 A 
ATOM     14  O   UNL     1       0.229  12.968  21.834  0.00  0.00    +0.000 OA
ATOM     15  N   UNL     1       0.586  10.745  21.440  0.00  0.00    +0.000 N 
ATOM     16  C   UNL     1       0.972   9.722  20.605  0.00  0.00    +0.000 A 
ATOM     17  H   UNL     1       0.283  10.542  22.385  0.00  0.00    +0.000 HD
ENDBRANCH   7  10
ENDBRANCH   5   6
BRANCH   1  19
ATOM     18  C   UNL     1       1.161   4.139  17.432  0.00  0.00    +0.000 C 
ATOM     19  C   UNL     1       1.858   3.889  18.775  0.00  0.00    +0.000 C 
ATOM     20  C   UNL     1       0.889   3.124  19.689  0.00  0.00    +0.000 C 
ENDBRANCH   1  19
BRANCH   3  21
ATOM     21  C   UNL     1       5.154   4.295  18.009  0.00  0.00    +0.000 C 
BRANCH  21  22
ATOM     22  C   UNL     1       4.752   4.243  16.537  0.00  0.00    +0.000 C 
BRANCH  22  23
ATOM     23  S   UNL     1       6.151   4.696  15.521  0.00  0.00    +0.000 S 
ATOM     24  C   UNL     1       7.522   4.599  16.645  0.00  0.00    +0.000 C 
ATOM     25  O   UNL     1       6.335   3.670  14.513  0.00  0.00    +0.000 OA
ATOM     26  O   UNL     1       6.005   6.091  15.140  0.00  0.00    +0.000 OA
ENDBRANCH  22  23
ENDBRANCH  21  22
ENDBRANCH   3  21
TORSDOF 6
ENDMDL
MODEL 7
REMARK VINA RESULT:      -6.7      0.870      1.007
REMARK  Name = 
REMARK  9 active torsions:
REMARK  status: ('A' for Active; 'I' for Inactive)
REMARK    1  A    between atoms: C_1  and  C_2
REMARK    2  A    between atoms: C_2  and  C_3
REMARK    3  A    between atoms: C_2  and  C_4
REMARK    4  A    between atoms: N_6  and  C_7
REMARK    5  A    between atoms: C_7  and  C_8
REMARK    6  A    between atoms: C_8  and  S_9
REMARK    7  A    between atoms: S_9  and  C_10
REMARK    8  A    between atoms: C_14  and  N_15
REMARK    9  A    between atoms: C_16  and  C_18
REMARK                            x       y       z     vdW  Elec       q    Type
REMARK                         _______ _______ _______ _____ _____    ______ ____
ROOT
ATOM      1  C   UNL     1       2.965   4.446  19.418  0.00  0.00    +0.000 C 
ATOM      2  C   UNL     1       4.398   4.542  19.970  0.00  0.00    +0.000 C 
ATOM      3  N   UNL     1       5.202   5.279  18.982  0.00  0.00    +0.000 NA
ATOM      4  C   UNL     1       4.256   6.211  18.334  0.00  0.00    +0.000 C 
ATOM      5  C   UNL     1       2.817   5.837  18.771  0.00  0.00    +0.000 C 
ENDROOT
BRANCH   5   6
ATOM      6  N   UNL     1       2.247   6.804  19.715  0.00  0.00    +0.000 N 
ATOM      7  C   UNL     1       1.792   8.032  19.285  0.00  0.00    +0.000 C 
ATOM      8  O   UNL     1       1.863   8.396  18.115  0.00  0.00    +0.000 OA
ATOM      9  H   UNL     1       1.950   6.471  20.622  0.00  0.00    +0.000 HD
BRANCH   7  10
ATOM     10  C   UNL     1       1.168   8.894  20.341  0.00  0.00    +0.000 A 
ATOM     11  C   UNL     1       1.127   8.553  21.755  0.00  0.00    +0.000 A 
ATOM     12  C   UNL     1       0.573   9.388  22.650  0.00  0.00    +0.000 A 
ATOM     13  C   UNL     1       0.005  10.686  22.203  0.00  0.00    +0.000 A 
ATOM     14  O   UNL     1      -0.510  11.462  22.998  0.00  0.00    +0.000 OA
ATOM     15  N   UNL     1       0.111  10.946  20.859  0.00  0.00    +0.000 N 
ATOM     16  C   UNL     1       0.678  10.084  19.950  0.00  0.00    +0.000 A 
ATOM     17  H   UNL     1      -0.255  11.840  20.552  0.00  0.00    +0.000 HD
ENDBRANCH   7  10
ENDBRANCH   5   6
BRANCH   1  19
ATOM     18  C   UNL     1       2.019   3.709  17.137  0.00  0.00    +0.000 C 
ATOM     19  C   UNL     1       2.721   3.269  18.427  0.00  0.00    +0.000 C 
ATOM     20  C   UNL     1       1.897   2.144  19.069  0.00  0.00    +0.000 C 
ENDBRANCH   1  19
BRANCH   3  21
ATOM     21  C   UNL     1       5.917   4.390  18.047  0.00  0.00    +0.000 C 
BRANCH  21  22
ATOM     22  C   UNL     1       7.018   5.075  17.240  0.00  0.00    +0.000 C 
BRANCH  22  23
ATOM     23  S   UNL     1       6.690   4.875  15.495  0.00  0.00    +0.000 S 
ATOM     24  C   UNL     1       5.328   5.977  15.204  0.00  0.00    +0.000 C 
ATOM     25  O   UNL     1       7.830   5.379  14.754  0.00  0.00    +0.000 OA
ATOM     26  O   UNL     1       6.204   3.523  15.274  0.00  0.00    +0.000 OA
ENDBRANCH  22  23
ENDBRANCH  21  22
ENDBRANCH   3  21
TORSDOF 6
ENDMDL
MODEL 8
REMARK VINA RESULT:      -6.5      1.331      1.760
REMARK  Name = 
REMARK  9 active torsions:
REMARK  status: ('A' for Active; 'I' for Inactive)
REMARK    1  A    between atoms: C_1  and  C_2
REMARK    2  A    between atoms: C_2  and  C_3
REMARK    3  A    between atoms: C_2  and  C_4
REMARK    4  A    between atoms: N_6  and  C_7
REMARK    5  A    between atoms: C_7  and  C_8
REMARK    6  A    between atoms: C_8  and  S_9
REMARK    7  A    between atoms: S_9  and  C_10
REMARK    8  A    between atoms: C_14  and  N_15
REMARK    9  A    between atoms: C_16  and  C_18
REMARK                            x       y       z     vdW  Elec       q    Type
REMARK                         _______ _______ _______ _____ _____    ______ ____
ROOT
ATOM      1  C   UNL     1       2.130   4.573  19.712  0.00  0.00    +0.000 C 
ATOM      2  C   UNL     1       3.463   4.415  20.464  0.00  0.00    +0.000 C 
ATOM      3  N   UNL     1       4.514   5.016  19.626  0.00  0.00    +0.000 NA
ATOM      4  C   UNL     1       3.841   6.105  18.888  0.00  0.00    +0.000 C 
ATOM      5  C   UNL     1       2.312   5.978  19.104  0.00  0.00    +0.000 C 
ENDROOT
BRANCH   5   6
ATOM      6  N   UNL     1       1.782   7.016  19.995  0.00  0.00    +0.000 N 
ATOM      7  C   UNL     1       1.484   8.275  19.519  0.00  0.00    +0.000 C 
ATOM      8  O   UNL     1       1.669   8.606  18.351  0.00  0.00    +0.000 OA
ATOM      9  H   UNL     1       1.394   6.732  20.883  0.00  0.00    +0.000 HD
BRANCH   7  10
ATOM     10  C   UNL     1       0.882   9.215  20.518  0.00  0.00    +0.000 A 
ATOM     11  C   UNL     1       0.414   8.816  21.838  0.00  0.00    +0.000 A 
ATOM     12  C   UNL     1      -0.091   9.720  22.693  0.00  0.00    +0.000 A 
ATOM     13  C   UNL     1      -0.164  11.152  22.303  0.00  0.00    +0.000 A 
ATOM     14  O   UNL     1      -0.625  11.995  23.062  0.00  0.00    +0.000 OA
ATOM     15  N   UNL     1       0.326  11.452  21.056  0.00  0.00    +0.000 N 
ATOM     16  C   UNL     1       0.840  10.518  20.186  0.00  0.00    +0.000 A 
ATOM     17  H   UNL     1       0.300  12.430  20.793  0.00  0.00    +0.000 HD
ENDBRANCH   7  10
ENDBRANCH   5   6
BRANCH   1  19
ATOM     18  C   UNL     1       2.664   2.197  18.873  0.00  0.00    +0.000 C 
ATOM     19  C   UNL     1       1.837   3.469  18.653  0.00  0.00    +0.000 C 
ATOM     20  C   UNL     1       2.085   3.968  17.223  0.00  0.00    +0.000 C 
ENDBRANCH   1  19
BRANCH   3  21
ATOM     21  C   UNL     1       5.197   4.030  18.768  0.00  0.00    +0.000 C 
BRANCH  21  22
ATOM     22  C   UNL     1       5.553   4.543  17.375  0.00  0.00    +0.000 C 
BRANCH  22  23
ATOM     23  S   UNL     1       7.288   4.969  17.322  0.00  0.00    +0.000 S 
ATOM     24  C   UNL     1       7.279   6.741  17.443  0.00  0.00    +0.000 C 
ATOM     25  O   UNL     1       7.923   4.449  18.517  0.00  0.00    +0.000 OA
ATOM     26  O   UNL     1       7.800   4.630  16.005  0.00  0.00    +0.000 OA
ENDBRANCH  22  23
ENDBRANCH  21  22
ENDBRANCH   3  21
TORSDOF 6
ENDMDL
MODEL 9
REMARK VINA RESULT:      -6.5      2.935      8.104
REMARK  Name = 
REMARK  9 active torsions:
REMARK  status: ('A' for Active; 'I' for Inactive)
REMARK    1  A    between atoms: C_1  and  C_2
REMARK    2  A    between atoms: C_2  and  C_3
REMARK    3  A    between atoms: C_2  and  C_4
REMARK    4  A    between atoms: N_6  and  C_7
REMARK    5  A    between atoms: C_7  and  C_8
REMARK    6  A    between atoms: C_8  and  S_9
REMARK    7  A    between atoms: S_9  and  C_10
REMARK    8  A    between atoms: C_14  and  N_15
REMARK    9  A    between atoms: C_16  and  C_18
REMARK                            x       y       z     vdW  Elec       q    Type
REMARK                         _______ _______ _______ _____ _____    ______ ____
ROOT
ATOM      1  C   UNL     1       2.095   4.530  18.608  0.00  0.00    +0.000 C 
ATOM      2  C   UNL     1       1.525   5.955  18.511  0.00  0.00    +0.000 C 
ATOM      3  N   UNL     1       2.279   6.795  19.455  0.00  0.00    +0.000 NA
ATOM      4  C   UNL     1       3.631   6.200  19.504  0.00  0.00    +0.000 C 
ATOM      5  C   UNL     1       3.596   4.835  18.772  0.00  0.00    +0.000 C 
ENDROOT
BRANCH   5   6
ATOM      6  N   UNL     1       4.276   4.877  17.473  0.00  0.00    +0.000 N 
ATOM      7  C   UNL     1       5.610   4.549  17.359  0.00  0.00    +0.000 C 
ATOM      8  O   UNL     1       6.304   4.237  18.322  0.00  0.00    +0.000 OA
ATOM      9  H   UNL     1       3.710   4.890  16.636  0.00  0.00    +0.000 HD
BRANCH   7  10
ATOM     10  C   UNL     1       6.160   4.564  15.965  0.00  0.00    +0.000 A 
ATOM     11  C   UNL     1       5.589   3.819  14.852  0.00  0.00    +0.000 A 
ATOM     12  C   UNL     1       6.120   3.901  13.621  0.00  0.00    +0.000 A 
ATOM     13  C   UNL     1       7.298   4.773  13.378  0.00  0.00    +0.000 A 
ATOM     14  O   UNL     1       7.805   4.861  12.266  0.00  0.00    +0.000 OA
ATOM     15  N   UNL     1       7.758   5.466  14.470  0.00  0.00    +0.000 N 
ATOM     16  C   UNL     1       7.207   5.374  15.727  0.00  0.00    +0.000 A 
ATOM     17  H   UNL     1       8.547   6.080  14.305  0.00  0.00    +0.000 HD
ENDBRANCH   7  10
ENDBRANCH   5   6
BRANCH   1  19
ATOM     18  C   UNL     1       2.586   3.021  20.637  0.00  0.00    +0.000 C 
ATOM     19  C   UNL     1       1.505   3.663  19.760  0.00  0.00    +0.000 C 
ATOM     20  C   UNL     1       0.588   2.552  19.228  0.00  0.00    +0.000 C 
ENDBRANCH   1  19
BRANCH   3  21
ATOM     21  C   UNL     1       1.619   6.917  20.768  0.00  0.00    +0.000 C 
BRANCH  21  22
ATOM     22  C   UNL     1       1.660   8.319  21.370  0.00  0.00    +0.000 C 
BRANCH  22  23
ATOM     23  S   UNL     1      -0.006   8.942  21.546  0.00  0.00    +0.000 S 
ATOM     24  C   UNL     1      -0.032   9.582  23.202  0.00  0.00    +0.000 C 
ATOM     25  O   UNL     1      -0.174  10.060  20.639  0.00  0.00    +0.000 OA
ATOM     26  O   UNL     1      -0.921   7.813  21.506  0.00  0.00    +0.000 OA
ENDBRANCH  22  23
ENDBRANCH  21  22
ENDBRANCH   3  21
TORSDOF 6
ENDMDL
