MODEL 1
REMARK VINA RESULT:      -8.8      0.000      0.000
REMARK  Name = 
REMARK  4 active torsions:
REMARK  status: ('A' for Active; 'I' for Inactive)
REMARK    1  A    between atoms: C_1  and  N_2
REMARK    2  A    between atoms: C_6  and  C_7
REMARK    3  A    between atoms: C_9  and  C_10
REMARK    4  A    between atoms: C_14  and  C_15
REMARK                            x       y       z     vdW  Elec       q    Type
REMARK                         _______ _______ _______ _____ _____    ______ ____
ROOT
ATOM      1  C   UNL     1       2.484   4.513  19.389  0.00  0.00    +0.000 C 
ATOM      2  C   UNL     1       2.287   3.969  17.984  0.00  0.00    +0.000 C 
ATOM      3  C   UNL     1       3.607   3.794  18.676  0.00  0.00    +0.000 C 
ENDROOT
BRANCH   1   9
ATOM      4  C   UNL     1       1.053   9.955  19.743  0.00  0.00    +0.000 C 
ATOM      5  N   UNL     1       1.552   8.593  19.683  0.00  0.00    +0.000 N 
ATOM      6  C   UNL     1       2.155   8.031  18.577  0.00  0.00    +0.000 A 
ATOM      7  N   UNL     1       2.459   8.782  17.492  0.00  0.00    +0.000 N 
ATOM      8  N   UNL     1       2.467   6.766  18.499  0.00  0.00    +0.000 NA
ATOM      9  C   UNL     1       2.168   5.946  19.552  0.00  0.00    +0.000 A 
ATOM     10  C   UNL     1       1.712   6.424  20.718  0.00  0.00    +0.000 A 
ATOM     11  C   UNL     1       1.378   7.843  20.830  0.00  0.00    +0.000 A 
ATOM     12  O   UNL     1       0.953   8.278  21.898  0.00  0.00    +0.000 OA
ATOM     13  H   UNL     1       2.323   9.776  17.410  0.00  0.00    +0.000 HD
ATOM     14  H   UNL     1       2.946   8.314  16.739  0.00  0.00    +0.000 HD
ENDBRANCH   1   9
BRANCH   3  15
ATOM     15  C   UNL     1       4.873   4.320  18.023  0.00  0.00    +0.000 A 
ATOM     16  C   UNL     1       5.759   5.102  18.789  0.00  0.00    +0.000 A 
ATOM     17  C   UNL     1       6.919   5.659  18.248  0.00  0.00    +0.000 A 
ATOM     18  C   UNL     1       7.223   5.465  16.903  0.00  0.00    +0.000 A 
ATOM     19  C   UNL     1       6.391   4.685  16.088  0.00  0.00    +0.000 A 
ATOM     20  C   UNL     1       5.250   4.100  16.690  0.00  0.00    +0.000 A 
BRANCH  19  21
ATOM     21  C   UNL     1       6.654   4.531  14.634  0.00  0.00    +0.000 A 
ATOM     22  C   UNL     1       7.592   5.311  13.935  0.00  0.00    +0.000 A 
ATOM     23  C   UNL     1       7.781   5.163  12.552  0.00  0.00    +0.000 A 
ATOM     24  C   UNL     1       7.039   4.225  11.839  0.00  0.00    +0.000 A 
ATOM     25  C   UNL     1       6.117   3.444  12.511  0.00  0.00    +0.000 A 
ATOM     26  F   UNL     1       5.390   2.540  11.842  0.00  0.00    +0.000 F 
ATOM     27  C   UNL     1       5.923   3.600  13.882  0.00  0.00    +0.000 A 
ENDBRANCH  19  21
ENDBRANCH   3  15
TORSDOF 3
ENDMDL
MODEL 2
REMARK VINA RESULT:      -8.8      1.229      1.669
REMARK  Name = 
REMARK  4 active torsions:
REMARK  status: ('A' for Active; 'I' for Inactive)
REMARK    1  A    between atoms: C_1  and  N_2
REMARK    2  A    between atoms: C_6  and  C_7
REMARK    3  A    between atoms: C_9  and  C_10
REMARK    4  A    between atoms: C_14  and  C_15
REMARK                            x       y       z     vdW  Elec       q    Type
REMARK                         _______ _______ _______ _____ _____    ______ ____
ROOT
ATOM      1  C   UNL     1       2.710   4.887  19.515  0.00  0.00    +0.000 C 
ATOM      2  C   UNL     1       2.547   4.116  18.216  0.00  0.00    +0.000 C 
ATOM      3  C   UNL     1       3.879   4.149  18.904  0.00  0.00    +0.000 C 
ENDROOT
BRANCH   1   9
ATOM      4  C   UNL     1       1.323  10.352  19.549  0.00  0.00    +0.000 C 
ATOM      5  N   UNL     1       1.546   8.918  19.513  0.00  0.00    +0.000 N 
ATOM      6  C   UNL     1       1.329   8.067  20.576  0.00  0.00    +0.000 A 
ATOM      7  N   UNL     1       0.739   8.508  21.713  0.00  0.00    +0.000 N 
ATOM      8  N   UNL     1       1.669   6.806  20.564  0.00  0.00    +0.000 NA
ATOM      9  C   UNL     1       2.289   6.301  19.455  0.00  0.00    +0.000 A 
ATOM     10  C   UNL     1       2.416   7.011  18.325  0.00  0.00    +0.000 A 
ATOM     11  C   UNL     1       2.020   8.419  18.315  0.00  0.00    +0.000 A 
ATOM     12  O   UNL     1       2.143   9.071  17.280  0.00  0.00    +0.000 OA
ATOM     13  H   UNL     1       0.381   9.437  21.866  0.00  0.00    +0.000 HD
ATOM     14  H   UNL     1       0.565   7.817  22.431  0.00  0.00    +0.000 HD
ENDBRANCH   1   9
BRANCH   3  15
ATOM     15  C   UNL     1       5.100   4.655  18.155  0.00  0.00    +0.000 A 
ATOM     16  C   UNL     1       6.000   5.510  18.821  0.00  0.00    +0.000 A 
ATOM     17  C   UNL     1       7.119   6.053  18.187  0.00  0.00    +0.000 A 
ATOM     18  C   UNL     1       7.364   5.771  16.846  0.00  0.00    +0.000 A 
ATOM     19  C   UNL     1       6.516   4.917  16.128  0.00  0.00    +0.000 A 
ATOM     20  C   UNL     1       5.419   4.350  16.824  0.00  0.00    +0.000 A 
BRANCH  19  21
ATOM     21  C   UNL     1       6.714   4.666  14.678  0.00  0.00    +0.000 A 
ATOM     22  C   UNL     1       7.658   5.358  13.900  0.00  0.00    +0.000 A 
ATOM     23  C   UNL     1       7.786   5.121  12.522  0.00  0.00    +0.000 A 
ATOM     24  C   UNL     1       6.974   4.180  11.894  0.00  0.00    +0.000 A 
ATOM     25  C   UNL     1       6.045   3.484  12.644  0.00  0.00    +0.000 A 
ATOM     26  F   UNL     1       5.251   2.578  12.058  0.00  0.00    +0.000 F 
ATOM     27  C   UNL     1       5.912   3.729  14.010  0.00  0.00    +0.000 A 
ENDBRANCH  19  21
ENDBRANCH   3  15
TORSDOF 3
ENDMDL
MODEL 3
REMARK VINA RESULT:      -8.8      1.570      2.157
REMARK  Name = 
REMARK  4 active torsions:
REMARK  status: ('A' for Active; 'I' for Inactive)
REMARK    1  A    between atoms: C_1  and  N_2
REMARK    2  A    between atoms: C_6  and  C_7
REMARK    3  A    between atoms: C_9  and  C_10
REMARK    4  A    between atoms: C_14  and  C_15
REMARK                            x       y       z     vdW  Elec       q    Type
REMARK                         _______ _______ _______ _____ _____    ______ ____
ROOT
ATOM      1  C   UNL     1       2.703   4.929  19.869  0.00  0.00    +0.000 C 
ATOM      2  C   UNL     1       2.544   4.040  18.646  0.00  0.00    +0.000 C 
ATOM      3  C   UNL     1       3.874   4.136  19.334  0.00  0.00    +0.000 C 
ENDROOT
BRANCH   1   9
ATOM      4  C   UNL     1       1.308  10.371  19.399  0.00  0.00    +0.000 C 
ATOM      5  N   UNL     1       1.534   8.940  19.490  0.00  0.00    +0.000 N 
ATOM      6  C   UNL     1       1.277   8.179  20.610  0.00  0.00    +0.000 A 
ATOM      7  N   UNL     1       0.643   8.709  21.683  0.00  0.00    +0.000 N 
ATOM      8  N   UNL     1       1.619   6.923  20.715  0.00  0.00    +0.000 NA
ATOM      9  C   UNL     1       2.282   6.331  19.677  0.00  0.00    +0.000 A 
ATOM     10  C   UNL     1       2.453   6.946  18.498  0.00  0.00    +0.000 A 
ATOM     11  C   UNL     1       2.055   8.347  18.357  0.00  0.00    +0.000 A 
ATOM     12  O   UNL     1       2.218   8.912  17.277  0.00  0.00    +0.000 OA
ATOM     13  H   UNL     1       0.278   9.645  21.745  0.00  0.00    +0.000 HD
ATOM     14  H   UNL     1       0.442   8.079  22.448  0.00  0.00    +0.000 HD
ENDBRANCH   1   9
BRANCH   3  15
ATOM     15  C   UNL     1       5.097   4.572  18.546  0.00  0.00    +0.000 A 
ATOM     16  C   UNL     1       6.099   5.314  19.201  0.00  0.00    +0.000 A 
ATOM     17  C   UNL     1       7.230   5.789  18.534  0.00  0.00    +0.000 A 
ATOM     18  C   UNL     1       7.386   5.550  17.172  0.00  0.00    +0.000 A 
ATOM     19  C   UNL     1       6.434   4.805  16.463  0.00  0.00    +0.000 A 
ATOM     20  C   UNL     1       5.326   4.302  17.189  0.00  0.00    +0.000 A 
BRANCH  19  21
ATOM     21  C   UNL     1       6.542   4.606  14.994  0.00  0.00    +0.000 A 
ATOM     22  C   UNL     1       5.787   3.653  14.291  0.00  0.00    +0.000 A 
ATOM     23  C   UNL     1       5.947   3.466  12.909  0.00  0.00    +0.000 A 
ATOM     24  C   UNL     1       6.866   4.236  12.200  0.00  0.00    +0.000 A 
ATOM     25  C   UNL     1       7.613   5.185  12.874  0.00  0.00    +0.000 A 
ATOM     26  F   UNL     1       8.505   5.932  12.210  0.00  0.00    +0.000 F 
ATOM     27  C   UNL     1       7.459   5.360  14.248  0.00  0.00    +0.000 A 
ENDBRANCH  19  21
ENDBRANCH   3  15
TORSDOF 3
ENDMDL
MODEL 4
REMARK VINA RESULT:      -8.6      5.012      7.106
REMARK  Name = 
REMARK  4 active torsions:
REMARK  status: ('A' for Active; 'I' for Inactive)
REMARK    1  A    between atoms: C_1  and  N_2
REMARK    2  A    between atoms: C_6  and  C_7
REMARK    3  A    between atoms: C_9  and  C_10
REMARK    4  A    between atoms: C_14  and  C_15
REMARK                            x       y       z     vdW  Elec       q    Type
REMARK                         _______ _______ _______ _____ _____    ______ ____
ROOT
ATOM      1  C   UNL     1      -0.336  11.105  20.491  0.00  0.00    +0.000 C 
ATOM      2  C   UNL     1      -0.386   9.951  21.478  0.00  0.00    +0.000 C 
ATOM      3  C   UNL     1       0.874  10.226  20.712  0.00  0.00    +0.000 C 
ENDROOT
BRANCH   1   9
ATOM      4  C   UNL     1      -4.337  11.397  16.529  0.00  0.00    +0.000 C 
ATOM      5  N   UNL     1      -3.389  11.231  17.617  0.00  0.00    +0.000 N 
ATOM      6  C   UNL     1      -3.446  11.915  18.812  0.00  0.00    +0.000 A 
ATOM      7  N   UNL     1      -4.505  12.703  19.115  0.00  0.00    +0.000 N 
ATOM      8  N   UNL     1      -2.506  11.853  19.717  0.00  0.00    +0.000 NA
ATOM      9  C   UNL     1      -1.399  11.092  19.465  0.00  0.00    +0.000 A 
ATOM     10  C   UNL     1      -1.316  10.285  18.398  0.00  0.00    +0.000 A 
ATOM     11  C   UNL     1      -2.372  10.325  17.387  0.00  0.00    +0.000 A 
ATOM     12  O   UNL     1      -2.292   9.590  16.405  0.00  0.00    +0.000 OA
ATOM     13  H   UNL     1      -5.327  12.825  18.547  0.00  0.00    +0.000 HD
ATOM     14  H   UNL     1      -4.503  13.133  20.030  0.00  0.00    +0.000 HD
ENDBRANCH   1   9
BRANCH   3  15
ATOM     15  C   UNL     1       1.484   9.133  19.852  0.00  0.00    +0.000 A 
ATOM     16  C   UNL     1       1.847   9.434  18.525  0.00  0.00    +0.000 A 
ATOM     17  C   UNL     1       2.371   8.473  17.659  0.00  0.00    +0.000 A 
ATOM     18  C   UNL     1       2.532   7.160  18.092  0.00  0.00    +0.000 A 
ATOM     19  C   UNL     1       2.204   6.795  19.405  0.00  0.00    +0.000 A 
ATOM     20  C   UNL     1       1.721   7.813  20.264  0.00  0.00    +0.000 A 
BRANCH  19  21
ATOM     21  C   UNL     1       2.294   5.385  19.864  0.00  0.00    +0.000 A 
ATOM     22  C   UNL     1       1.266   4.741  20.572  0.00  0.00    +0.000 A 
ATOM     23  C   UNL     1       1.405   3.419  21.025  0.00  0.00    +0.000 A 
ATOM     24  C   UNL     1       2.578   2.712  20.772  0.00  0.00    +0.000 A 
ATOM     25  C   UNL     1       3.597   3.327  20.069  0.00  0.00    +0.000 A 
ATOM     26  F   UNL     1       4.735   2.665  19.821  0.00  0.00    +0.000 F 
ATOM     27  C   UNL     1       3.460   4.642  19.631  0.00  0.00    +0.000 A 
ENDBRANCH  19  21
ENDBRANCH   3  15
TORSDOF 3
ENDMDL
MODEL 5
REMARK VINA RESULT:      -8.6      1.002      1.383
REMARK  Name = 
REMARK  4 active torsions:
REMARK  status: ('A' for Active; 'I' for Inactive)
REMARK    1  A    between atoms: C_1  and  N_2
REMARK    2  A    between atoms: C_6  and  C_7
REMARK    3  A    between atoms: C_9  and  C_10
REMARK    4  A    between atoms: C_14  and  C_15
REMARK                            x       y       z     vdW  Elec       q    Type
REMARK                         _______ _______ _______ _____ _____    ______ ____
ROOT
ATOM      1  C   UNL     1       2.131   4.567  19.377  0.00  0.00    +0.000 C 
ATOM      2  C   UNL     1       1.944   4.067  17.955  0.00  0.00    +0.000 C 
ATOM      3  C   UNL     1       3.210   3.756  18.697  0.00  0.00    +0.000 C 
ENDROOT
BRANCH   1   9
ATOM      4  C   UNL     1       1.186  10.109  19.797  0.00  0.00    +0.000 C 
ATOM      5  N   UNL     1       1.564   8.710  19.715  0.00  0.00    +0.000 N 
ATOM      6  C   UNL     1       2.076   8.105  18.587  0.00  0.00    +0.000 A 
ATOM      7  N   UNL     1       2.405   8.833  17.493  0.00  0.00    +0.000 N 
ATOM      8  N   UNL     1       2.276   6.818  18.494  0.00  0.00    +0.000 NA
ATOM      9  C   UNL     1       1.945   6.021  19.554  0.00  0.00    +0.000 A 
ATOM     10  C   UNL     1       1.574   6.529  20.738  0.00  0.00    +0.000 A 
ATOM     11  C   UNL     1       1.367   7.971  20.865  0.00  0.00    +0.000 A 
ATOM     12  O   UNL     1       1.020   8.435  21.950  0.00  0.00    +0.000 OA
ATOM     13  H   UNL     1       2.351   9.836  17.418  0.00  0.00    +0.000 HD
ATOM     14  H   UNL     1       2.823   8.329  16.722  0.00  0.00    +0.000 HD
ENDBRANCH   1   9
BRANCH   3  15
ATOM     15  C   UNL     1       4.547   4.168  18.107  0.00  0.00    +0.000 A 
ATOM     16  C   UNL     1       5.505   4.769  18.947  0.00  0.00    +0.000 A 
ATOM     17  C   UNL     1       6.738   5.217  18.471  0.00  0.00    +0.000 A 
ATOM     18  C   UNL     1       7.048   5.094  17.119  0.00  0.00    +0.000 A 
ATOM     19  C   UNL     1       6.146   4.493  16.231  0.00  0.00    +0.000 A 
ATOM     20  C   UNL     1       4.927   4.010  16.766  0.00  0.00    +0.000 A 
BRANCH  19  21
ATOM     21  C   UNL     1       6.423   4.424  14.773  0.00  0.00    +0.000 A 
ATOM     22  C   UNL     1       5.772   3.528  13.909  0.00  0.00    +0.000 A 
ATOM     23  C   UNL     1       6.092   3.464  12.543  0.00  0.00    +0.000 A 
ATOM     24  C   UNL     1       7.069   4.302  12.012  0.00  0.00    +0.000 A 
ATOM     25  C   UNL     1       7.716   5.196  12.846  0.00  0.00    +0.000 A 
ATOM     26  F   UNL     1       8.662   6.006  12.356  0.00  0.00    +0.000 F 
ATOM     27  C   UNL     1       7.404   5.249  14.203  0.00  0.00    +0.000 A 
ENDBRANCH  19  21
ENDBRANCH   3  15
TORSDOF 3
ENDMDL
MODEL 6
REMARK VINA RESULT:      -8.6      4.357      7.903
REMARK  Name = 
REMARK  4 active torsions:
REMARK  status: ('A' for Active; 'I' for Inactive)
REMARK    1  A    between atoms: C_1  and  N_2
REMARK    2  A    between atoms: C_6  and  C_7
REMARK    3  A    between atoms: C_9  and  C_10
REMARK    4  A    between atoms: C_14  and  C_15
REMARK                            x       y       z     vdW  Elec       q    Type
REMARK                         _______ _______ _______ _____ _____    ______ ____
ROOT
ATOM      1  C   UNL     1       7.237   4.491  17.089  0.00  0.00    +0.000 C 
ATOM      2  C   UNL     1       7.155   5.856  17.750  0.00  0.00    +0.000 C 
ATOM      3  C   UNL     1       6.258   4.746  18.212  0.00  0.00    +0.000 C 
ENDROOT
BRANCH   1   9
ATOM      4  C   UNL     1       6.985   4.393  11.458  0.00  0.00    +0.000 C 
ATOM      5  N   UNL     1       6.980   4.540  12.902  0.00  0.00    +0.000 N 
ATOM      6  C   UNL     1       7.896   5.286  13.614  0.00  0.00    +0.000 A 
ATOM      7  N   UNL     1       8.799   6.071  12.979  0.00  0.00    +0.000 N 
ATOM      8  N   UNL     1       7.956   5.289  14.918  0.00  0.00    +0.000 NA
ATOM      9  C   UNL     1       7.087   4.501  15.620  0.00  0.00    +0.000 A 
ATOM     10  C   UNL     1       6.076   3.852  15.026  0.00  0.00    +0.000 A 
ATOM     11  C   UNL     1       5.981   3.857  13.567  0.00  0.00    +0.000 A 
ATOM     12  O   UNL     1       5.057   3.255  13.023  0.00  0.00    +0.000 OA
ATOM     13  H   UNL     1       8.857   6.212  11.984  0.00  0.00    +0.000 HD
ATOM     14  H   UNL     1       9.405   6.629  13.566  0.00  0.00    +0.000 HD
ENDBRANCH   1   9
BRANCH   3  15
ATOM     15  C   UNL     1       4.752   4.942  18.199  0.00  0.00    +0.000 A 
ATOM     16  C   UNL     1       3.933   3.889  17.746  0.00  0.00    +0.000 A 
ATOM     17  C   UNL     1       2.545   4.009  17.660  0.00  0.00    +0.000 A 
ATOM     18  C   UNL     1       1.927   5.206  18.012  0.00  0.00    +0.000 A 
ATOM     19  C   UNL     1       2.681   6.288  18.485  0.00  0.00    +0.000 A 
ATOM     20  C   UNL     1       4.081   6.107  18.601  0.00  0.00    +0.000 A 
BRANCH  19  21
ATOM     21  C   UNL     1       2.051   7.598  18.790  0.00  0.00    +0.000 A 
ATOM     22  C   UNL     1       1.854   8.599  17.825  0.00  0.00    +0.000 A 
ATOM     23  C   UNL     1       1.292   9.841  18.162  0.00  0.00    +0.000 A 
ATOM     24  C   UNL     1       0.910  10.104  19.475  0.00  0.00    +0.000 A 
ATOM     25  C   UNL     1       1.089   9.128  20.437  0.00  0.00    +0.000 A 
ATOM     26  F   UNL     1       0.733   9.364  21.706  0.00  0.00    +0.000 F 
ATOM     27  C   UNL     1       1.657   7.901  20.101  0.00  0.00    +0.000 A 
ENDBRANCH  19  21
ENDBRANCH   3  15
TORSDOF 3
ENDMDL
MODEL 7
REMARK VINA RESULT:      -8.5      4.457      6.281
REMARK  Name = 
REMARK  4 active torsions:
REMARK  status: ('A' for Active; 'I' for Inactive)
REMARK    1  A    between atoms: C_1  and  N_2
REMARK    2  A    between atoms: C_6  and  C_7
REMARK    3  A    between atoms: C_9  and  C_10
REMARK    4  A    between atoms: C_14  and  C_15
REMARK                            x       y       z     vdW  Elec       q    Type
REMARK                         _______ _______ _______ _____ _____    ______ ____
ROOT
ATOM      1  C   UNL     1       4.874   5.034  16.047  0.00  0.00    +0.000 C 
ATOM      2  C   UNL     1       4.921   6.505  15.668  0.00  0.00    +0.000 C 
ATOM      3  C   UNL     1       6.186   5.785  16.030  0.00  0.00    +0.000 C 
ENDROOT
BRANCH   1   9
ATOM      4  C   UNL     1       1.099   4.049  20.118  0.00  0.00    +0.000 C 
ATOM      5  N   UNL     1       2.169   4.260  19.160  0.00  0.00    +0.000 N 
ATOM      6  C   UNL     1       2.951   5.394  19.100  0.00  0.00    +0.000 A 
ATOM      7  N   UNL     1       2.862   6.352  20.053  0.00  0.00    +0.000 N 
ATOM      8  N   UNL     1       3.811   5.620  18.144  0.00  0.00    +0.000 NA
ATOM      9  C   UNL     1       3.934   4.703  17.138  0.00  0.00    +0.000 A 
ATOM     10  C   UNL     1       3.322   3.511  17.181  0.00  0.00    +0.000 A 
ATOM     11  C   UNL     1       2.372   3.233  18.258  0.00  0.00    +0.000 A 
ATOM     12  O   UNL     1       1.806   2.142  18.293  0.00  0.00    +0.000 OA
ATOM     13  H   UNL     1       2.282   6.311  20.875  0.00  0.00    +0.000 HD
ATOM     14  H   UNL     1       3.502   7.131  19.973  0.00  0.00    +0.000 HD
ENDBRANCH   1   9
BRANCH   3  15
ATOM     15  C   UNL     1       7.052   6.309  17.163  0.00  0.00    +0.000 A 
ATOM     16  C   UNL     1       7.400   5.436  18.212  0.00  0.00    +0.000 A 
ATOM     17  C   UNL     1       8.153   5.855  19.310  0.00  0.00    +0.000 A 
ATOM     18  C   UNL     1       8.570   7.180  19.403  0.00  0.00    +0.000 A 
ATOM     19  C   UNL     1       8.271   8.097  18.386  0.00  0.00    +0.000 A 
ATOM     20  C   UNL     1       7.545   7.617  17.268  0.00  0.00    +0.000 A 
BRANCH  19  21
ATOM     21  C   UNL     1       8.638   9.532  18.503  0.00  0.00    +0.000 A 
ATOM     22  C   UNL     1       8.207  10.512  17.593  0.00  0.00    +0.000 A 
ATOM     23  C   UNL     1       8.610  11.851  17.714  0.00  0.00    +0.000 A 
ATOM     24  C   UNL     1       9.451  12.239  18.754  0.00  0.00    +0.000 A 
ATOM     25  C   UNL     1       9.879  11.290  19.664  0.00  0.00    +0.000 A 
ATOM     26  F   UNL     1      10.692  11.643  20.668  0.00  0.00    +0.000 F 
ATOM     27  C   UNL     1       9.486   9.959  19.534  0.00  0.00    +0.000 A 
ENDBRANCH  19  21
ENDBRANCH   3  15
TORSDOF 3
ENDMDL
MODEL 8
REMARK VINA RESULT:      -8.5      4.137      5.991
REMARK  Name = 
REMARK  4 active torsions:
REMARK  status: ('A' for Active; 'I' for Inactive)
REMARK    1  A    between atoms: C_1  and  N_2
REMARK    2  A    between atoms: C_6  and  C_7
REMARK    3  A    between atoms: C_9  and  C_10
REMARK    4  A    between atoms: C_14  and  C_15
REMARK                            x       y       z     vdW  Elec       q    Type
REMARK                         _______ _______ _______ _____ _____    ______ ____
ROOT
ATOM      1  C   UNL     1       4.847   4.888  16.069  0.00  0.00    +0.000 C 
ATOM      2  C   UNL     1       4.905   6.342  15.631  0.00  0.00    +0.000 C 
ATOM      3  C   UNL     1       6.164   5.631  16.032  0.00  0.00    +0.000 C 
ENDROOT
BRANCH   1   9
ATOM      4  C   UNL     1       1.042   4.093  20.152  0.00  0.00    +0.000 C 
ATOM      5  N   UNL     1       2.119   4.255  19.192  0.00  0.00    +0.000 N 
ATOM      6  C   UNL     1       2.929   5.367  19.108  0.00  0.00    +0.000 A 
ATOM      7  N   UNL     1       2.863   6.349  20.039  0.00  0.00    +0.000 N 
ATOM      8  N   UNL     1       3.796   5.549  18.149  0.00  0.00    +0.000 NA
ATOM      9  C   UNL     1       3.898   4.606  17.165  0.00  0.00    +0.000 A 
ATOM     10  C   UNL     1       3.256   3.432  17.234  0.00  0.00    +0.000 A 
ATOM     11  C   UNL     1       2.297   3.203  18.315  0.00  0.00    +0.000 A 
ATOM     12  O   UNL     1       1.704   2.127  18.374  0.00  0.00    +0.000 OA
ATOM     13  H   UNL     1       2.281   6.341  20.860  0.00  0.00    +0.000 HD
ATOM     14  H   UNL     1       3.523   7.110  19.942  0.00  0.00    +0.000 HD
ENDBRANCH   1   9
BRANCH   3  15
ATOM     15  C   UNL     1       7.024   6.196  17.148  0.00  0.00    +0.000 A 
ATOM     16  C   UNL     1       7.383   5.357  18.222  0.00  0.00    +0.000 A 
ATOM     17  C   UNL     1       8.132   5.815  19.307  0.00  0.00    +0.000 A 
ATOM     18  C   UNL     1       8.533   7.147  19.363  0.00  0.00    +0.000 A 
ATOM     19  C   UNL     1       8.221   8.032  18.322  0.00  0.00    +0.000 A 
ATOM     20  C   UNL     1       7.501   7.513  17.217  0.00  0.00    +0.000 A 
BRANCH  19  21
ATOM     21  C   UNL     1       8.571   9.474  18.398  0.00  0.00    +0.000 A 
ATOM     22  C   UNL     1       9.465   9.998  19.346  0.00  0.00    +0.000 A 
ATOM     23  C   UNL     1       9.738  11.374  19.413  0.00  0.00    +0.000 A 
ATOM     24  C   UNL     1       9.123  12.254  18.526  0.00  0.00    +0.000 A 
ATOM     25  C   UNL     1       8.246  11.756  17.582  0.00  0.00    +0.000 A 
ATOM     26  F   UNL     1       7.641  12.587  16.723  0.00  0.00    +0.000 F 
ATOM     27  C   UNL     1       7.969  10.391  17.525  0.00  0.00    +0.000 A 
ENDBRANCH  19  21
ENDBRANCH   3  15
TORSDOF 3
ENDMDL
MODEL 9
REMARK VINA RESULT:      -8.5      4.339      6.171
REMARK  Name = 
REMARK  4 active torsions:
REMARK  status: ('A' for Active; 'I' for Inactive)
REMARK    1  A    between atoms: C_1  and  N_2
REMARK    2  A    between atoms: C_6  and  C_7
REMARK    3  A    between atoms: C_9  and  C_10
REMARK    4  A    between atoms: C_14  and  C_15
REMARK                            x       y       z     vdW  Elec       q    Type
REMARK                         _______ _______ _______ _____ _____    ______ ____
ROOT
ATOM      1  C   UNL     1       4.236   5.152  16.709  0.00  0.00    +0.000 C 
ATOM      2  C   UNL     1       4.034   6.657  16.682  0.00  0.00    +0.000 C 
ATOM      3  C   UNL     1       5.404   6.082  16.470  0.00  0.00    +0.000 C 
ENDROOT
BRANCH   1   9
ATOM      4  C   UNL     1       2.601   2.708  21.519  0.00  0.00    +0.000 C 
ATOM      5  N   UNL     1       2.975   3.223  20.215  0.00  0.00    +0.000 N 
ATOM      6  C   UNL     1       4.151   2.918  19.563  0.00  0.00    +0.000 A 
ATOM      7  N   UNL     1       4.993   1.975  20.050  0.00  0.00    +0.000 N 
ATOM      8  N   UNL     1       4.529   3.502  18.458  0.00  0.00    +0.000 NA
ATOM      9  C   UNL     1       3.735   4.479  17.924  0.00  0.00    +0.000 A 
ATOM     10  C   UNL     1       2.513   4.746  18.406  0.00  0.00    +0.000 A 
ATOM     11  C   UNL     1       2.066   4.084  19.631  0.00  0.00    +0.000 A 
ATOM     12  O   UNL     1       0.948   4.335  20.076  0.00  0.00    +0.000 OA
ATOM     13  H   UNL     1       4.829   1.406  20.864  0.00  0.00    +0.000 HD
ATOM     14  H   UNL     1       5.811   1.767  19.493  0.00  0.00    +0.000 HD
ENDBRANCH   1   9
BRANCH   3  15
ATOM     15  C   UNL     1       6.545   6.505  17.379  0.00  0.00    +0.000 A 
ATOM     16  C   UNL     1       7.086   5.562  18.275  0.00  0.00    +0.000 A 
ATOM     17  C   UNL     1       8.104   5.887  19.173  0.00  0.00    +0.000 A 
ATOM     18  C   UNL     1       8.606   7.185  19.216  0.00  0.00    +0.000 A 
ATOM     19  C   UNL     1       8.123   8.168  18.341  0.00  0.00    +0.000 A 
ATOM     20  C   UNL     1       7.124   7.782  17.414  0.00  0.00    +0.000 A 
BRANCH  19  21
ATOM     21  C   UNL     1       8.589   9.576  18.424  0.00  0.00    +0.000 A 
ATOM     22  C   UNL     1       9.553  10.014  19.347  0.00  0.00    +0.000 A 
ATOM     23  C   UNL     1       9.936  11.362  19.422  0.00  0.00    +0.000 A 
ATOM     24  C   UNL     1       9.365  12.302  18.567  0.00  0.00    +0.000 A 
ATOM     25  C   UNL     1       8.420  11.888  17.646  0.00  0.00    +0.000 A 
ATOM     26  F   UNL     1       7.855  12.777  16.819  0.00  0.00    +0.000 F 
ATOM     27  C   UNL     1       8.033  10.551  17.583  0.00  0.00    +0.000 A 
ENDBRANCH  19  21
ENDBRANCH   3  15
TORSDOF 3
ENDMDL
