MODEL 1
REMARK VINA RESULT:      -8.1      0.000      0.000
REMARK  Name = 
REMARK  10 active torsions:
REMARK  status: ('A' for Active; 'I' for Inactive)
REMARK    1  A    between atoms: C_1  and  C_2
REMARK    2  A    between atoms: C_2  and  C_3
REMARK    3  A    between atoms: C_2  and  O_4
REMARK    4  A    between atoms: O_4  and  C_5
REMARK    5  A    between atoms: C_5  and  C_7
REMARK    6  A    between atoms: C_7  and  C_8
REMARK    7  A    between atoms: C_7  and  N_14
REMARK    8  A    between atoms: C_8  and  N_9
REMARK    9  A    between atoms: C_15  and  C_17
REMARK   10  A    between atoms: C_20  and  C_21
REMARK                            x       y       z     vdW  Elec       q    Type
REMARK                         _______ _______ _______ _____ _____    ______ ____
ROOT
ATOM      1  N   UNL     1       3.180   5.343  18.665  0.00  0.00    +0.000 N 
ATOM      2  C   UNL     1       3.133   6.625  18.175  0.00  0.00    +0.000 C 
ATOM      3  O   UNL     1       3.717   6.958  17.150  0.00  0.00    +0.000 OA
ATOM      4  H   UNL     1       2.563   5.031  19.411  0.00  0.00    +0.000 HD
ENDROOT
BRANCH   2   5
ATOM      5  C   UNL     1       2.355   7.616  18.928  0.00  0.00    +0.000 A 
ATOM      6  C   UNL     1       1.866   8.787  18.395  0.00  0.00    +0.000 A 
ATOM      7  N   UNL     1       1.156   9.687  19.109  0.00  0.00    +0.000 NA
ATOM      8  C   UNL     1       0.910   9.387  20.402  0.00  0.00    +0.000 A 
ATOM      9  N   UNL     1       1.319   8.250  21.003  0.00  0.00    +0.000 NA
ATOM     10  C   UNL     1       2.027   7.384  20.244  0.00  0.00    +0.000 A 
BRANCH   8  11
ATOM     11  C   UNL     1       0.193  10.386  21.215  0.00  0.00    +0.000 A 
ATOM     12  C   UNL     1       0.273  11.762  20.922  0.00  0.00    +0.000 A 
ATOM     13  C   UNL     1      -0.369  12.716  21.716  0.00  0.00    +0.000 A 
ATOM     14  C   UNL     1      -1.113  12.315  22.821  0.00  0.00    +0.000 A 
ATOM     15  C   UNL     1      -1.225  10.962  23.126  0.00  0.00    +0.000 A 
ATOM     16  C   UNL     1      -0.582  10.009  22.330  0.00  0.00    +0.000 A 
ENDBRANCH   8  11
ENDBRANCH   2   5
BRANCH   1  17
ATOM     17  C   UNL     1       3.953   4.291  17.988  0.00  0.00    +0.000 C 
BRANCH  17  18
ATOM     18  C   UNL     1       3.528   2.934  18.548  0.00  0.00    +0.000 C 
ATOM     19  O   UNL     1       3.636   1.878  17.930  0.00  0.00    +0.000 OA
BRANCH  18  20
ATOM     20  O   UNL     1       3.073   3.059  19.824  0.00  0.00    +0.000 OA
BRANCH  20  22
ATOM     21  C   UNL     1       1.512   2.566  21.613  0.00  0.00    +0.000 C 
ATOM     22  C   UNL     1       1.870   2.334  20.149  0.00  0.00    +0.000 C 
ATOM     23  C   UNL     1       0.767   2.863  19.238  0.00  0.00    +0.000 C 
ENDBRANCH  20  22
ENDBRANCH  18  20
ENDBRANCH  17  18
BRANCH  17  24
ATOM     24  C   UNL     1       5.473   4.486  18.089  0.00  0.00    +0.000 C 
BRANCH  24  25
ATOM     25  N   UNL     1       6.134   4.617  16.805  0.00  0.00    +0.000 N 
ATOM     26  C   UNL     1       5.885   3.874  15.686  0.00  0.00    +0.000 A 
ATOM     27  C   UNL     1       6.717   4.397  14.724  0.00  0.00    +0.000 A 
ATOM     28  N   UNL     1       7.463   5.427  15.233  0.00  0.00    +0.000 NA
ATOM     29  C   UNL     1       7.077   5.551  16.483  0.00  0.00    +0.000 A 
ENDBRANCH  24  25
ENDBRANCH  17  24
ENDBRANCH   1  17
TORSDOF 8
ENDMDL
MODEL 2
REMARK VINA RESULT:      -7.9      0.683      1.327
REMARK  Name = 
REMARK  10 active torsions:
REMARK  status: ('A' for Active; 'I' for Inactive)
REMARK    1  A    between atoms: C_1  and  C_2
REMARK    2  A    between atoms: C_2  and  C_3
REMARK    3  A    between atoms: C_2  and  O_4
REMARK    4  A    between atoms: O_4  and  C_5
REMARK    5  A    between atoms: C_5  and  C_7
REMARK    6  A    between atoms: C_7  and  C_8
REMARK    7  A    between atoms: C_7  and  N_14
REMARK    8  A    between atoms: C_8  and  N_9
REMARK    9  A    between atoms: C_15  and  C_17
REMARK   10  A    between atoms: C_20  and  C_21
REMARK                            x       y       z     vdW  Elec       q    Type
REMARK                         _______ _______ _______ _____ _____    ______ ____
ROOT
ATOM      1  N   UNL     1       3.519   5.132  19.109  0.00  0.00    +0.000 N 
ATOM      2  C   UNL     1       3.270   6.308  18.444  0.00  0.00    +0.000 C 
ATOM      3  O   UNL     1       3.732   6.544  17.333  0.00  0.00    +0.000 OA
ATOM      4  H   UNL     1       3.002   4.869  19.945  0.00  0.00    +0.000 HD
ENDROOT
BRANCH   2   5
ATOM      5  C   UNL     1       2.425   7.305  19.111  0.00  0.00    +0.000 A 
ATOM      6  C   UNL     1       1.973   8.462  18.518  0.00  0.00    +0.000 A 
ATOM      7  N   UNL     1       1.200   9.368  19.154  0.00  0.00    +0.000 NA
ATOM      8  C   UNL     1       0.851   9.090  20.429  0.00  0.00    +0.000 A 
ATOM      9  N   UNL     1       1.218   7.967  21.083  0.00  0.00    +0.000 NA
ATOM     10  C   UNL     1       1.992   7.094  20.401  0.00  0.00    +0.000 A 
BRANCH   8  11
ATOM     11  C   UNL     1       0.061  10.097  21.161  0.00  0.00    +0.000 A 
ATOM     12  C   UNL     1      -0.364   9.871  22.484  0.00  0.00    +0.000 A 
ATOM     13  C   UNL     1      -1.151  10.802  23.168  0.00  0.00    +0.000 A 
ATOM     14  C   UNL     1      -1.525  11.987  22.543  0.00  0.00    +0.000 A 
ATOM     15  C   UNL     1      -1.106  12.246  21.242  0.00  0.00    +0.000 A 
ATOM     16  C   UNL     1      -0.319  11.313  20.561  0.00  0.00    +0.000 A 
ENDBRANCH   8  11
ENDBRANCH   2   5
BRANCH   1  17
ATOM     17  C   UNL     1       4.372   4.087  18.525  0.00  0.00    +0.000 C 
BRANCH  17  18
ATOM     18  C   UNL     1       4.201   2.805  19.340  0.00  0.00    +0.000 C 
ATOM     19  O   UNL     1       5.014   2.415  20.174  0.00  0.00    +0.000 OA
BRANCH  18  20
ATOM     20  O   UNL     1       3.017   2.202  19.050  0.00  0.00    +0.000 OA
BRANCH  20  22
ATOM     21  C   UNL     1       0.613   2.344  18.759  0.00  0.00    +0.000 C 
ATOM     22  C   UNL     1       1.827   2.867  19.520  0.00  0.00    +0.000 C 
ATOM     23  C   UNL     1       1.699   2.560  21.008  0.00  0.00    +0.000 C 
ENDBRANCH  20  22
ENDBRANCH  18  20
ENDBRANCH  17  18
BRANCH  17  24
ATOM     24  C   UNL     1       5.850   4.489  18.421  0.00  0.00    +0.000 C 
BRANCH  24  25
ATOM     25  N   UNL     1       6.319   4.653  17.058  0.00  0.00    +0.000 N 
ATOM     26  C   UNL     1       5.933   3.916  15.975  0.00  0.00    +0.000 A 
ATOM     27  C   UNL     1       6.606   4.473  14.912  0.00  0.00    +0.000 A 
ATOM     28  N   UNL     1       7.388   5.519  15.327  0.00  0.00    +0.000 NA
ATOM     29  C   UNL     1       7.179   5.618  16.620  0.00  0.00    +0.000 A 
ENDBRANCH  24  25
ENDBRANCH  17  24
ENDBRANCH   1  17
TORSDOF 8
ENDMDL
MODEL 3
REMARK VINA RESULT:      -7.8      1.121      1.484
REMARK  Name = 
REMARK  10 active torsions:
REMARK  status: ('A' for Active; 'I' for Inactive)
REMARK    1  A    between atoms: C_1  and  C_2
REMARK    2  A    between atoms: C_2  and  C_3
REMARK    3  A    between atoms: C_2  and  O_4
REMARK    4  A    between atoms: O_4  and  C_5
REMARK    5  A    between atoms: C_5  and  C_7
REMARK    6  A    between atoms: C_7  and  C_8
REMARK    7  A    between atoms: C_7  and  N_14
REMARK    8  A    between atoms: C_8  and  N_9
REMARK    9  A    between atoms: C_15  and  C_17
REMARK   10  A    between atoms: C_20  and  C_21
REMARK                            x       y       z     vdW  Elec       q    Type
REMARK                         _______ _______ _______ _____ _____    ______ ____
ROOT
ATOM      1  N   UNL     1       3.501   6.115  19.729  0.00  0.00    +0.000 N 
ATOM      2  C   UNL     1       2.577   6.821  18.998  0.00  0.00    +0.000 C 
ATOM      3  O   UNL     1       2.343   6.571  17.820  0.00  0.00    +0.000 OA
ATOM      4  H   UNL     1       3.569   6.209  20.740  0.00  0.00    +0.000 HD
ENDROOT
BRANCH   2   5
ATOM      5  C   UNL     1       1.864   7.914  19.669  0.00  0.00    +0.000 A 
ATOM      6  C   UNL     1       1.482   9.085  19.055  0.00  0.00    +0.000 A 
ATOM      7  N   UNL     1       0.830  10.080  19.695  0.00  0.00    +0.000 NA
ATOM      8  C   UNL     1       0.534   9.880  20.998  0.00  0.00    +0.000 A 
ATOM      9  N   UNL     1       0.839   8.753  21.676  0.00  0.00    +0.000 NA
ATOM     10  C   UNL     1       1.491   7.790  20.989  0.00  0.00    +0.000 A 
BRANCH   8  11
ATOM     11  C   UNL     1      -0.119  10.980  21.731  0.00  0.00    +0.000 A 
ATOM     12  C   UNL     1      -1.086  10.725  22.723  0.00  0.00    +0.000 A 
ATOM     13  C   UNL     1      -1.741  11.764  23.389  0.00  0.00    +0.000 A 
ATOM     14  C   UNL     1      -1.438  13.086  23.081  0.00  0.00    +0.000 A 
ATOM     15  C   UNL     1      -0.475  13.370  22.118  0.00  0.00    +0.000 A 
ATOM     16  C   UNL     1       0.178  12.328  21.453  0.00  0.00    +0.000 A 
ENDBRANCH   8  11
ENDBRANCH   2   5
BRANCH   1  17
ATOM     17  C   UNL     1       4.277   5.019  19.131  0.00  0.00    +0.000 C 
BRANCH  17  18
ATOM     18  C   UNL     1       4.014   3.742  19.929  0.00  0.00    +0.000 C 
ATOM     19  O   UNL     1       4.770   2.774  19.933  0.00  0.00    +0.000 OA
BRANCH  18  20
ATOM     20  O   UNL     1       2.871   3.854  20.659  0.00  0.00    +0.000 OA
BRANCH  20  22
ATOM     21  C   UNL     1       1.301   2.487  21.903  0.00  0.00    +0.000 C 
ATOM     22  C   UNL     1       1.927   2.771  20.541  0.00  0.00    +0.000 C 
ATOM     23  C   UNL     1       0.861   3.212  19.544  0.00  0.00    +0.000 C 
ENDBRANCH  20  22
ENDBRANCH  18  20
ENDBRANCH  17  18
BRANCH  17  24
ATOM     24  C   UNL     1       5.780   5.316  19.033  0.00  0.00    +0.000 C 
BRANCH  24  25
ATOM     25  N   UNL     1       6.330   5.120  17.704  0.00  0.00    +0.000 N 
ATOM     26  C   UNL     1       5.767   5.523  16.527  0.00  0.00    +0.000 A 
ATOM     27  C   UNL     1       6.675   5.160  15.560  0.00  0.00    +0.000 A 
ATOM     28  N   UNL     1       7.764   4.546  16.121  0.00  0.00    +0.000 NA
ATOM     29  C   UNL     1       7.539   4.555  17.415  0.00  0.00    +0.000 A 
ENDBRANCH  24  25
ENDBRANCH  17  24
ENDBRANCH   1  17
TORSDOF 8
ENDMDL
MODEL 4
REMARK VINA RESULT:      -7.8      2.135      4.320
REMARK  Name = 
REMARK  10 active torsions:
REMARK  status: ('A' for Active; 'I' for Inactive)
REMARK    1  A    between atoms: C_1  and  C_2
REMARK    2  A    between atoms: C_2  and  C_3
REMARK    3  A    between atoms: C_2  and  O_4
REMARK    4  A    between atoms: O_4  and  C_5
REMARK    5  A    between atoms: C_5  and  C_7
REMARK    6  A    between atoms: C_7  and  C_8
REMARK    7  A    between atoms: C_7  and  N_14
REMARK    8  A    between atoms: C_8  and  N_9
REMARK    9  A    between atoms: C_15  and  C_17
REMARK   10  A    between atoms: C_20  and  C_21
REMARK                            x       y       z     vdW  Elec       q    Type
REMARK                         _______ _______ _______ _____ _____    ______ ____
ROOT
ATOM      1  N   UNL     1       4.075   6.213  17.410  0.00  0.00    +0.000 N 
ATOM      2  C   UNL     1       3.585   6.401  18.679  0.00  0.00    +0.000 C 
ATOM      3  O   UNL     1       3.941   5.711  19.628  0.00  0.00    +0.000 OA
ATOM      4  H   UNL     1       3.911   6.889  16.667  0.00  0.00    +0.000 HD
ENDROOT
BRANCH   2   5
ATOM      5  C   UNL     1       2.597   7.466  18.880  0.00  0.00    +0.000 A 
ATOM      6  C   UNL     1       1.978   7.736  20.079  0.00  0.00    +0.000 A 
ATOM      7  N   UNL     1       1.067   8.720  20.239  0.00  0.00    +0.000 NA
ATOM      8  C   UNL     1       0.783   9.474  19.156  0.00  0.00    +0.000 A 
ATOM      9  N   UNL     1       1.361   9.307  17.948  0.00  0.00    +0.000 NA
ATOM     10  C   UNL     1       2.265   8.308  17.842  0.00  0.00    +0.000 A 
BRANCH   8  11
ATOM     11  C   UNL     1      -0.257  10.512  19.294  0.00  0.00    +0.000 A 
ATOM     12  C   UNL     1      -0.337  11.317  20.446  0.00  0.00    +0.000 A 
ATOM     13  C   UNL     1      -1.347  12.271  20.601  0.00  0.00    +0.000 A 
ATOM     14  C   UNL     1      -2.298  12.445  19.601  0.00  0.00    +0.000 A 
ATOM     15  C   UNL     1      -2.234  11.676  18.443  0.00  0.00    +0.000 A 
ATOM     16  C   UNL     1      -1.223  10.723  18.291  0.00  0.00    +0.000 A 
ENDBRANCH   8  11
ENDBRANCH   2   5
BRANCH   1  17
ATOM     17  C   UNL     1       5.051   5.155  17.113  0.00  0.00    +0.000 C 
BRANCH  17  18
ATOM     18  C   UNL     1       6.113   5.720  16.170  0.00  0.00    +0.000 C 
ATOM     19  O   UNL     1       5.894   6.015  14.998  0.00  0.00    +0.000 OA
BRANCH  18  20
ATOM     20  O   UNL     1       7.295   5.894  16.820  0.00  0.00    +0.000 OA
BRANCH  20  22
ATOM     21  C   UNL     1       8.034   6.005  19.127  0.00  0.00    +0.000 C 
ATOM     22  C   UNL     1       7.256   6.700  18.015  0.00  0.00    +0.000 C 
ATOM     23  C   UNL     1       7.895   8.041  17.673  0.00  0.00    +0.000 C 
ENDBRANCH  20  22
ENDBRANCH  18  20
ENDBRANCH  17  18
BRANCH  17  24
ATOM     24  C   UNL     1       4.417   3.879  16.540  0.00  0.00    +0.000 C 
BRANCH  24  25
ATOM     25  N   UNL     1       3.540   3.192  17.470  0.00  0.00    +0.000 N 
ATOM     26  C   UNL     1       2.177   3.134  17.405  0.00  0.00    +0.000 A 
ATOM     27  C   UNL     1       1.808   2.338  18.465  0.00  0.00    +0.000 A 
ATOM     28  N   UNL     1       2.908   1.922  19.166  0.00  0.00    +0.000 NA
ATOM     29  C   UNL     1       3.938   2.434  18.533  0.00  0.00    +0.000 A 
ENDBRANCH  24  25
ENDBRANCH  17  24
ENDBRANCH   1  17
TORSDOF 8
ENDMDL
MODEL 5
REMARK VINA RESULT:      -7.8      0.851      1.518
REMARK  Name = 
REMARK  10 active torsions:
REMARK  status: ('A' for Active; 'I' for Inactive)
REMARK    1  A    between atoms: C_1  and  C_2
REMARK    2  A    between atoms: C_2  and  C_3
REMARK    3  A    between atoms: C_2  and  O_4
REMARK    4  A    between atoms: O_4  and  C_5
REMARK    5  A    between atoms: C_5  and  C_7
REMARK    6  A    between atoms: C_7  and  C_8
REMARK    7  A    between atoms: C_7  and  N_14
REMARK    8  A    between atoms: C_8  and  N_9
REMARK    9  A    between atoms: C_15  and  C_17
REMARK   10  A    between atoms: C_20  and  C_21
REMARK                            x       y       z     vdW  Elec       q    Type
REMARK                         _______ _______ _______ _____ _____    ______ ____
ROOT
ATOM      1  N   UNL     1       3.566   5.202  19.380  0.00  0.00    +0.000 N 
ATOM      2  C   UNL     1       3.100   6.264  18.644  0.00  0.00    +0.000 C 
ATOM      3  O   UNL     1       3.347   6.394  17.450  0.00  0.00    +0.000 OA
ATOM      4  H   UNL     1       3.221   5.006  20.317  0.00  0.00    +0.000 HD
ENDROOT
BRANCH   2   5
ATOM      5  C   UNL     1       2.285   7.269  19.336  0.00  0.00    +0.000 A 
ATOM      6  C   UNL     1       1.839   7.148  20.632  0.00  0.00    +0.000 A 
ATOM      7  N   UNL     1       1.085   8.085  21.248  0.00  0.00    +0.000 NA
ATOM      8  C   UNL     1       0.785   9.194  20.538  0.00  0.00    +0.000 A 
ATOM      9  N   UNL     1       1.204   9.416  19.274  0.00  0.00    +0.000 NA
ATOM     10  C   UNL     1       1.954   8.447  18.705  0.00  0.00    +0.000 A 
BRANCH   8  11
ATOM     11  C   UNL     1      -0.090  10.198  21.169  0.00  0.00    +0.000 A 
ATOM     12  C   UNL     1      -0.422  10.123  22.536  0.00  0.00    +0.000 A 
ATOM     13  C   UNL     1      -1.288  11.047  23.129  0.00  0.00    +0.000 A 
ATOM     14  C   UNL     1      -1.837  12.073  22.367  0.00  0.00    +0.000 A 
ATOM     15  C   UNL     1      -1.514  12.183  21.018  0.00  0.00    +0.000 A 
ATOM     16  C   UNL     1      -0.648  11.258  20.428  0.00  0.00    +0.000 A 
ENDBRANCH   8  11
ENDBRANCH   2   5
BRANCH   1  17
ATOM     17  C   UNL     1       4.408   4.159  18.774  0.00  0.00    +0.000 C 
BRANCH  17  18
ATOM     18  C   UNL     1       4.121   2.831  19.474  0.00  0.00    +0.000 C 
ATOM     19  O   UNL     1       4.890   2.303  20.273  0.00  0.00    +0.000 OA
BRANCH  18  20
ATOM     20  O   UNL     1       2.893   2.358  19.131  0.00  0.00    +0.000 OA
BRANCH  20  22
ATOM     21  C   UNL     1       2.538   2.761  21.496  0.00  0.00    +0.000 C 
ATOM     22  C   UNL     1       1.907   2.314  20.181  0.00  0.00    +0.000 C 
ATOM     23  C   UNL     1       0.780   3.260  19.780  0.00  0.00    +0.000 C 
ENDBRANCH  20  22
ENDBRANCH  18  20
ENDBRANCH  17  18
BRANCH  17  24
ATOM     24  C   UNL     1       5.907   4.491  18.799  0.00  0.00    +0.000 C 
BRANCH  24  25
ATOM     25  N   UNL     1       6.445   4.868  17.505  0.00  0.00    +0.000 N 
ATOM     26  C   UNL     1       6.255   4.206  16.325  0.00  0.00    +0.000 A 
ATOM     27  C   UNL     1       6.914   4.965  15.386  0.00  0.00    +0.000 A 
ATOM     28  N   UNL     1       7.497   6.060  15.968  0.00  0.00    +0.000 NA
ATOM     29  C   UNL     1       7.181   5.986  17.240  0.00  0.00    +0.000 A 
ENDBRANCH  24  25
ENDBRANCH  17  24
ENDBRANCH   1  17
TORSDOF 8
ENDMDL
MODEL 6
REMARK VINA RESULT:      -7.7      1.385      1.621
REMARK  Name = 
REMARK  10 active torsions:
REMARK  status: ('A' for Active; 'I' for Inactive)
REMARK    1  A    between atoms: C_1  and  C_2
REMARK    2  A    between atoms: C_2  and  C_3
REMARK    3  A    between atoms: C_2  and  O_4
REMARK    4  A    between atoms: O_4  and  C_5
REMARK    5  A    between atoms: C_5  and  C_7
REMARK    6  A    between atoms: C_7  and  C_8
REMARK    7  A    between atoms: C_7  and  N_14
REMARK    8  A    between atoms: C_8  and  N_9
REMARK    9  A    between atoms: C_15  and  C_17
REMARK   10  A    between atoms: C_20  and  C_21
REMARK                            x       y       z     vdW  Elec       q    Type
REMARK                         _______ _______ _______ _____ _____    ______ ____
ROOT
ATOM      1  N   UNL     1       3.830   5.822  19.606  0.00  0.00    +0.000 N 
ATOM      2  C   UNL     1       2.771   6.361  18.918  0.00  0.00    +0.000 C 
ATOM      3  O   UNL     1       2.403   5.925  17.834  0.00  0.00    +0.000 OA
ATOM      4  H   UNL     1       4.024   6.071  20.574  0.00  0.00    +0.000 HD
ENDROOT
BRANCH   2   5
ATOM      5  C   UNL     1       2.076   7.505  19.521  0.00  0.00    +0.000 A 
ATOM      6  C   UNL     1       1.794   8.678  18.860  0.00  0.00    +0.000 A 
ATOM      7  N   UNL     1       1.157   9.720  19.436  0.00  0.00    +0.000 NA
ATOM      8  C   UNL     1       0.771   9.567  20.721  0.00  0.00    +0.000 A 
ATOM      9  N   UNL     1       0.974   8.443  21.441  0.00  0.00    +0.000 NA
ATOM     10  C   UNL     1       1.616   7.432  20.816  0.00  0.00    +0.000 A 
BRANCH   8  11
ATOM     11  C   UNL     1       0.132  10.717  21.389  0.00  0.00    +0.000 A 
ATOM     12  C   UNL     1       0.415  12.039  20.997  0.00  0.00    +0.000 A 
ATOM     13  C   UNL     1      -0.153  13.134  21.655  0.00  0.00    +0.000 A 
ATOM     14  C   UNL     1      -1.025  12.928  22.719  0.00  0.00    +0.000 A 
ATOM     15  C   UNL     1      -1.337  11.632  23.119  0.00  0.00    +0.000 A 
ATOM     16  C   UNL     1      -0.767  10.540  22.458  0.00  0.00    +0.000 A 
ENDBRANCH   8  11
ENDBRANCH   2   5
BRANCH   1  17
ATOM     17  C   UNL     1       4.598   4.689  19.068  0.00  0.00    +0.000 C 
BRANCH  17  18
ATOM     18  C   UNL     1       4.141   3.411  19.771  0.00  0.00    +0.000 C 
ATOM     19  O   UNL     1       4.771   2.357  19.742  0.00  0.00    +0.000 OA
BRANCH  18  20
ATOM     20  O   UNL     1       2.990   3.625  20.462  0.00  0.00    +0.000 OA
BRANCH  20  22
ATOM     21  C   UNL     1       1.353   2.447  21.810  0.00  0.00    +0.000 C 
ATOM     22  C   UNL     1       2.024   2.554  20.444  0.00  0.00    +0.000 C 
ATOM     23  C   UNL     1       0.997   2.895  19.370  0.00  0.00    +0.000 C 
ENDBRANCH  20  22
ENDBRANCH  18  20
ENDBRANCH  17  18
BRANCH  17  24
ATOM     24  C   UNL     1       6.119   4.873  19.175  0.00  0.00    +0.000 C 
BRANCH  24  25
ATOM     25  N   UNL     1       6.634   5.972  18.380  0.00  0.00    +0.000 N 
ATOM     26  C   UNL     1       7.775   6.682  18.622  0.00  0.00    +0.000 A 
ATOM     27  C   UNL     1       7.863   7.574  17.579  0.00  0.00    +0.000 A 
ATOM     28  N   UNL     1       6.805   7.424  16.721  0.00  0.00    +0.000 NA
ATOM     29  C   UNL     1       6.092   6.439  17.217  0.00  0.00    +0.000 A 
ENDBRANCH  24  25
ENDBRANCH  17  24
ENDBRANCH   1  17
TORSDOF 8
ENDMDL
MODEL 7
REMARK VINA RESULT:      -7.6      1.190      1.759
REMARK  Name = 
REMARK  10 active torsions:
REMARK  status: ('A' for Active; 'I' for Inactive)
REMARK    1  A    between atoms: C_1  and  C_2
REMARK    2  A    between atoms: C_2  and  C_3
REMARK    3  A    between atoms: C_2  and  O_4
REMARK    4  A    between atoms: O_4  and  C_5
REMARK    5  A    between atoms: C_5  and  C_7
REMARK    6  A    between atoms: C_7  and  C_8
REMARK    7  A    between atoms: C_7  and  N_14
REMARK    8  A    between atoms: C_8  and  N_9
REMARK    9  A    between atoms: C_15  and  C_17
REMARK   10  A    between atoms: C_20  and  C_21
REMARK                            x       y       z     vdW  Elec       q    Type
REMARK                         _______ _______ _______ _____ _____    ______ ____
ROOT
ATOM      1  N   UNL     1       3.033   6.298  19.344  0.00  0.00    +0.000 N 
ATOM      2  C   UNL     1       2.649   7.428  18.663  0.00  0.00    +0.000 C 
ATOM      3  O   UNL     1       3.009   7.656  17.514  0.00  0.00    +0.000 OA
ATOM      4  H   UNL     1       2.599   6.029  20.224  0.00  0.00    +0.000 HD
ENDROOT
BRANCH   2   5
ATOM      5  C   UNL     1       1.782   8.384  19.362  0.00  0.00    +0.000 A 
ATOM      6  C   UNL     1       1.425   8.284  20.687  0.00  0.00    +0.000 A 
ATOM      7  N   UNL     1       0.621   9.174  21.309  0.00  0.00    +0.000 NA
ATOM      8  C   UNL     1       0.176  10.215  20.573  0.00  0.00    +0.000 A 
ATOM      9  N   UNL     1       0.498  10.415  19.277  0.00  0.00    +0.000 NA
ATOM     10  C   UNL     1       1.304   9.495  18.704  0.00  0.00    +0.000 A 
BRANCH   8  11
ATOM     11  C   UNL     1      -0.754  11.162  21.214  0.00  0.00    +0.000 A 
ATOM     12  C   UNL     1      -0.999  11.121  22.601  0.00  0.00    +0.000 A 
ATOM     13  C   UNL     1      -1.914  11.987  23.207  0.00  0.00    +0.000 A 
ATOM     14  C   UNL     1      -2.601  12.920  22.439  0.00  0.00    +0.000 A 
ATOM     15  C   UNL     1      -2.368  12.997  21.069  0.00  0.00    +0.000 A 
ATOM     16  C   UNL     1      -1.452  12.130  20.466  0.00  0.00    +0.000 A 
ENDBRANCH   8  11
ENDBRANCH   2   5
BRANCH   1  17
ATOM     17  C   UNL     1       3.918   5.297  18.730  0.00  0.00    +0.000 C 
BRANCH  17  18
ATOM     18  C   UNL     1       3.624   3.934  19.357  0.00  0.00    +0.000 C 
ATOM     19  O   UNL     1       4.445   3.024  19.422  0.00  0.00    +0.000 OA
BRANCH  18  20
ATOM     20  O   UNL     1       2.364   3.899  19.868  0.00  0.00    +0.000 OA
BRANCH  20  22
ATOM     21  C   UNL     1       1.402   2.546  21.636  0.00  0.00    +0.000 C 
ATOM     22  C   UNL     1       1.833   2.594  20.174  0.00  0.00    +0.000 C 
ATOM     23  C   UNL     1       0.635   2.371  19.257  0.00  0.00    +0.000 C 
ENDBRANCH  20  22
ENDBRANCH  18  20
ENDBRANCH  17  18
BRANCH  17  24
ATOM     24  C   UNL     1       5.408   5.650  18.835  0.00  0.00    +0.000 C 
BRANCH  24  25
ATOM     25  N   UNL     1       6.189   5.249  17.680  0.00  0.00    +0.000 N 
ATOM     26  C   UNL     1       5.844   5.421  16.370  0.00  0.00    +0.000 A 
ATOM     27  C   UNL     1       6.913   4.929  15.657  0.00  0.00    +0.000 A 
ATOM     28  N   UNL     1       7.886   4.462  16.500  0.00  0.00    +0.000 NA
ATOM     29  C   UNL     1       7.433   4.686  17.712  0.00  0.00    +0.000 A 
ENDBRANCH  24  25
ENDBRANCH  17  24
ENDBRANCH   1  17
TORSDOF 8
ENDMDL
MODEL 8
REMARK VINA RESULT:      -7.6      0.719      1.144
REMARK  Name = 
REMARK  10 active torsions:
REMARK  status: ('A' for Active; 'I' for Inactive)
REMARK    1  A    between atoms: C_1  and  C_2
REMARK    2  A    between atoms: C_2  and  C_3
REMARK    3  A    between atoms: C_2  and  O_4
REMARK    4  A    between atoms: O_4  and  C_5
REMARK    5  A    between atoms: C_5  and  C_7
REMARK    6  A    between atoms: C_7  and  C_8
REMARK    7  A    between atoms: C_7  and  N_14
REMARK    8  A    between atoms: C_8  and  N_9
REMARK    9  A    between atoms: C_15  and  C_17
REMARK   10  A    between atoms: C_20  and  C_21
REMARK                            x       y       z     vdW  Elec       q    Type
REMARK                         _______ _______ _______ _____ _____    ______ ____
ROOT
ATOM      1  N   UNL     1       2.711   5.451  18.588  0.00  0.00    +0.000 N 
ATOM      2  C   UNL     1       2.905   6.781  18.305  0.00  0.00    +0.000 C 
ATOM      3  O   UNL     1       3.712   7.163  17.465  0.00  0.00    +0.000 OA
ATOM      4  H   UNL     1       1.928   5.132  19.154  0.00  0.00    +0.000 HD
ENDROOT
BRANCH   2   5
ATOM      5  C   UNL     1       2.110   7.762  19.053  0.00  0.00    +0.000 A 
ATOM      6  C   UNL     1       1.750   7.623  20.375  0.00  0.00    +0.000 A 
ATOM      7  N   UNL     1       1.013   8.537  21.043  0.00  0.00    +0.000 NA
ATOM      8  C   UNL     1       0.642   9.642  20.361  0.00  0.00    +0.000 A 
ATOM      9  N   UNL     1       0.973   9.881  19.074  0.00  0.00    +0.000 NA
ATOM     10  C   UNL     1       1.711   8.934  18.453  0.00  0.00    +0.000 A 
BRANCH   8  11
ATOM     11  C   UNL     1      -0.217  10.620  21.053  0.00  0.00    +0.000 A 
ATOM     12  C   UNL     1      -0.739  11.741  20.378  0.00  0.00    +0.000 A 
ATOM     13  C   UNL     1      -1.517  12.695  21.039  0.00  0.00    +0.000 A 
ATOM     14  C   UNL     1      -1.796  12.546  22.394  0.00  0.00    +0.000 A 
ATOM     15  C   UNL     1      -1.309  11.440  23.084  0.00  0.00    +0.000 A 
ATOM     16  C   UNL     1      -0.532  10.487  22.419  0.00  0.00    +0.000 A 
ENDBRANCH   8  11
ENDBRANCH   2   5
BRANCH   1  17
ATOM     17  C   UNL     1       3.479   4.402  17.902  0.00  0.00    +0.000 C 
BRANCH  17  18
ATOM     18  C   UNL     1       2.808   3.054  18.164  0.00  0.00    +0.000 C 
ATOM     19  O   UNL     1       2.161   2.440  17.319  0.00  0.00    +0.000 OA
BRANCH  18  20
ATOM     20  O   UNL     1       3.071   2.620  19.426  0.00  0.00    +0.000 OA
BRANCH  20  22
ATOM     21  C   UNL     1       2.166   3.104  21.623  0.00  0.00    +0.000 C 
ATOM     22  C   UNL     1       1.931   2.413  20.284  0.00  0.00    +0.000 C 
ATOM     23  C   UNL     1       0.722   3.016  19.576  0.00  0.00    +0.000 C 
ENDBRANCH  20  22
ENDBRANCH  18  20
ENDBRANCH  17  18
BRANCH  17  24
ATOM     24  C   UNL     1       4.963   4.372  18.296  0.00  0.00    +0.000 C 
BRANCH  24  25
ATOM     25  N   UNL     1       5.871   4.399  17.164  0.00  0.00    +0.000 N 
ATOM     26  C   UNL     1       5.531   4.249  15.850  0.00  0.00    +0.000 A 
ATOM     27  C   UNL     1       6.713   4.397  15.162  0.00  0.00    +0.000 A 
ATOM     28  N   UNL     1       7.752   4.626  16.025  0.00  0.00    +0.000 NA
ATOM     29  C   UNL     1       7.213   4.642  17.222  0.00  0.00    +0.000 A 
ENDBRANCH  24  25
ENDBRANCH  17  24
ENDBRANCH   1  17
TORSDOF 8
ENDMDL
MODEL 9
REMARK VINA RESULT:      -7.5      0.932      1.319
REMARK  Name = 
REMARK  10 active torsions:
REMARK  status: ('A' for Active; 'I' for Inactive)
REMARK    1  A    between atoms: C_1  and  C_2
REMARK    2  A    between atoms: C_2  and  C_3
REMARK    3  A    between atoms: C_2  and  O_4
REMARK    4  A    between atoms: O_4  and  C_5
REMARK    5  A    between atoms: C_5  and  C_7
REMARK    6  A    between atoms: C_7  and  C_8
REMARK    7  A    between atoms: C_7  and  N_14
REMARK    8  A    between atoms: C_8  and  N_9
REMARK    9  A    between atoms: C_15  and  C_17
REMARK   10  A    between atoms: C_20  and  C_21
REMARK                            x       y       z     vdW  Elec       q    Type
REMARK                         _______ _______ _______ _____ _____    ______ ____
ROOT
ATOM      1  N   UNL     1       3.232   6.118  19.392  0.00  0.00    +0.000 N 
ATOM      2  C   UNL     1       2.676   7.182  18.725  0.00  0.00    +0.000 C 
ATOM      3  O   UNL     1       2.781   7.324  17.512  0.00  0.00    +0.000 OA
ATOM      4  H   UNL     1       3.001   5.913  20.362  0.00  0.00    +0.000 HD
ENDROOT
BRANCH   2   5
ATOM      5  C   UNL     1       1.941   8.176  19.517  0.00  0.00    +0.000 A 
ATOM      6  C   UNL     1       1.584   8.008  20.835  0.00  0.00    +0.000 A 
ATOM      7  N   UNL     1       0.903   8.934  21.544  0.00  0.00    +0.000 NA
ATOM      8  C   UNL     1       0.587  10.082  20.906  0.00  0.00    +0.000 A 
ATOM      9  N   UNL     1       0.922  10.351  19.627  0.00  0.00    +0.000 NA
ATOM     10  C   UNL     1       1.603   9.390  18.964  0.00  0.00    +0.000 A 
BRANCH   8  11
ATOM     11  C   UNL     1      -0.212  11.080  21.642  0.00  0.00    +0.000 A 
ATOM     12  C   UNL     1      -0.085  12.457  21.378  0.00  0.00    +0.000 A 
ATOM     13  C   UNL     1      -0.807  13.410  22.102  0.00  0.00    +0.000 A 
ATOM     14  C   UNL     1      -1.680  13.003  23.106  0.00  0.00    +0.000 A 
ATOM     15  C   UNL     1      -1.840  11.648  23.378  0.00  0.00    +0.000 A 
ATOM     16  C   UNL     1      -1.117  10.698  22.651  0.00  0.00    +0.000 A 
ENDBRANCH   8  11
ENDBRANCH   2   5
BRANCH   1  17
ATOM     17  C   UNL     1       4.004   5.087  18.682  0.00  0.00    +0.000 C 
BRANCH  17  18
ATOM     18  C   UNL     1       3.670   3.724  19.287  0.00  0.00    +0.000 C 
ATOM     19  O   UNL     1       4.297   2.697  19.039  0.00  0.00    +0.000 OA
BRANCH  18  20
ATOM     20  O   UNL     1       2.634   3.824  20.163  0.00  0.00    +0.000 OA
BRANCH  20  22
ATOM     21  C   UNL     1       1.301   2.617  21.791  0.00  0.00    +0.000 C 
ATOM     22  C   UNL     1       1.851   2.630  20.368  0.00  0.00    +0.000 C 
ATOM     23  C   UNL     1       0.712   2.661  19.355  0.00  0.00    +0.000 C 
ENDBRANCH  20  22
ENDBRANCH  18  20
ENDBRANCH  17  18
BRANCH  17  24
ATOM     24  C   UNL     1       5.518   5.344  18.686  0.00  0.00    +0.000 C 
BRANCH  24  25
ATOM     25  N   UNL     1       6.157   5.100  17.406  0.00  0.00    +0.000 N 
ATOM     26  C   UNL     1       5.607   5.308  16.174  0.00  0.00    +0.000 A 
ATOM     27  C   UNL     1       6.604   4.981  15.284  0.00  0.00    +0.000 A 
ATOM     28  N   UNL     1       7.734   4.578  15.946  0.00  0.00    +0.000 NA
ATOM     29  C   UNL     1       7.443   4.679  17.223  0.00  0.00    +0.000 A 
ENDBRANCH  24  25
ENDBRANCH  17  24
ENDBRANCH   1  17
TORSDOF 8
ENDMDL
