MODEL 1
REMARK VINA RESULT:      -8.1      0.000      0.000
REMARK  Name = 
REMARK  8 active torsions:
REMARK  status: ('A' for Active; 'I' for Inactive)
REMARK    1  A    between atoms: C_1  and  C_2
REMARK    2  A    between atoms: C_4  and  C_5
REMARK    3  A    between atoms: C_12  and  C_13
REMARK    4  A    between atoms: C_13  and  O_14
REMARK    5  A    between atoms: O_14  and  C_15
REMARK    6  A    between atoms: C_23  and  C_24
REMARK    7  A    between atoms: C_24  and  C_25
REMARK    8  A    between atoms: C_25  and  O_27
REMARK                            x       y       z     vdW  Elec       q    Type
REMARK                         _______ _______ _______ _____ _____    ______ ____
ROOT
ATOM      1  O   UNL     1       5.507   6.970  16.105  0.00  0.00    +0.000 OA
ENDROOT
BRANCH   1   2
ATOM      2  C   UNL     1       4.480   6.413  16.828  0.00  0.00    +0.000 A 
ATOM      3  C   UNL     1       4.248   5.021  16.742  0.00  0.00    +0.000 A 
ATOM      4  C   UNL     1       3.311   4.351  17.588  0.00  0.00    +0.000 A 
ATOM      5  C   UNL     1       2.617   5.089  18.542  0.00  0.00    +0.000 A 
ATOM      6  C   UNL     1       2.840   6.479  18.508  0.00  0.00    +0.000 A 
ATOM      7  C   UNL     1       3.687   7.158  17.669  0.00  0.00    +0.000 A 
ATOM      8  O   UNL     1       2.187   7.182  19.488  0.00  0.00    +0.000 OA
ATOM      9  C   UNL     1       1.961   6.121  20.398  0.00  0.00    +0.000 C 
ATOM     10  C   UNL     1       1.519   4.887  19.562  0.00  0.00    +0.000 C 
BRANCH  10  11
ATOM     11  C   UNL     1       1.121   3.940  20.705  0.00  0.00    +0.000 C 
BRANCH  11  12
ATOM     12  C   UNL     1       1.967   2.757  21.093  0.00  0.00    +0.000 C 
ATOM     13  O   UNL     1       2.405   2.575  22.218  0.00  0.00    +0.000 OA
BRANCH  12  14
ATOM     14  O   UNL     1       2.129   1.890  20.055  0.00  0.00    +0.000 OA
ATOM     15  H   UNL     1       2.054   2.268  19.154  0.00  0.00    +0.000 HD
ENDBRANCH  12  14
ENDBRANCH  11  12
ENDBRANCH  10  11
ENDBRANCH   1   2
BRANCH   1  16
ATOM     16  C   UNL     1       6.799   6.371  16.358  0.00  0.00    +0.000 C 
BRANCH  16  22
ATOM     17  C   UNL     1       7.958   5.607  19.360  0.00  0.00    +0.000 C 
ATOM     18  C   UNL     1       8.019   6.878  18.617  0.00  0.00    +0.000 A 
ATOM     19  N   UNL     1       8.636   7.990  19.129  0.00  0.00    +0.000 NA
ATOM     20  C   UNL     1       8.459   8.925  18.211  0.00  0.00    +0.000 A 
ATOM     21  O   UNL     1       7.797   8.482  17.091  0.00  0.00    +0.000 OA
ATOM     22  C   UNL     1       7.504   7.172  17.376  0.00  0.00    +0.000 A 
BRANCH  20  23
ATOM     23  C   UNL     1       8.851  10.330  18.273  0.00  0.00    +0.000 A 
ATOM     24  C   UNL     1       9.849  10.711  19.181  0.00  0.00    +0.000 A 
ATOM     25  C   UNL     1      10.209  12.050  19.341  0.00  0.00    +0.000 A 
ATOM     26  C   UNL     1       9.574  13.033  18.589  0.00  0.00    +0.000 A 
ATOM     27  C   UNL     1       8.594  12.671  17.663  0.00  0.00    +0.000 A 
ATOM     28  C   UNL     1       8.226  11.330  17.508  0.00  0.00    +0.000 A 
ENDBRANCH  20  23
ENDBRANCH  16  22
ENDBRANCH   1  16
TORSDOF 7
ENDMDL
MODEL 2
REMARK VINA RESULT:      -8.1      3.802      6.320
REMARK  Name = 
REMARK  8 active torsions:
REMARK  status: ('A' for Active; 'I' for Inactive)
REMARK    1  A    between atoms: C_1  and  C_2
REMARK    2  A    between atoms: C_4  and  C_5
REMARK    3  A    between atoms: C_12  and  C_13
REMARK    4  A    between atoms: C_13  and  O_14
REMARK    5  A    between atoms: O_14  and  C_15
REMARK    6  A    between atoms: C_23  and  C_24
REMARK    7  A    between atoms: C_24  and  C_25
REMARK    8  A    between atoms: C_25  and  O_27
REMARK                            x       y       z     vdW  Elec       q    Type
REMARK                         _______ _______ _______ _____ _____    ______ ____
ROOT
ATOM      1  O   UNL     1       3.355   5.044  18.439  0.00  0.00    +0.000 OA
ENDROOT
BRANCH   1   2
ATOM      2  C   UNL     1       2.907   6.317  18.698  0.00  0.00    +0.000 A 
ATOM      3  C   UNL     1       2.935   7.285  17.668  0.00  0.00    +0.000 A 
ATOM      4  C   UNL     1       2.334   8.572  17.816  0.00  0.00    +0.000 A 
ATOM      5  C   UNL     1       1.681   8.879  19.006  0.00  0.00    +0.000 A 
ATOM      6  C   UNL     1       1.771   7.898  20.013  0.00  0.00    +0.000 A 
ATOM      7  C   UNL     1       2.392   6.678  19.921  0.00  0.00    +0.000 A 
ATOM      8  O   UNL     1       1.080   8.197  21.159  0.00  0.00    +0.000 OA
ATOM      9  C   UNL     1       0.183   9.153  20.625  0.00  0.00    +0.000 C 
ATOM     10  C   UNL     1       1.000  10.060  19.662  0.00  0.00    +0.000 C 
BRANCH  10  11
ATOM     11  C   UNL     1      -0.061  11.131  19.366  0.00  0.00    +0.000 C 
BRANCH  11  12
ATOM     12  C   UNL     1      -1.266  10.847  18.510  0.00  0.00    +0.000 C 
ATOM     13  O   UNL     1      -2.407  11.156  18.818  0.00  0.00    +0.000 OA
BRANCH  12  14
ATOM     14  O   UNL     1      -0.920  10.262  17.329  0.00  0.00    +0.000 OA
ATOM     15  H   UNL     1      -0.066  10.541  16.937  0.00  0.00    +0.000 HD
ENDBRANCH  12  14
ENDBRANCH  11  12
ENDBRANCH  10  11
ENDBRANCH   1   2
BRANCH   1  16
ATOM     16  C   UNL     1       4.608   4.718  19.084  0.00  0.00    +0.000 C 
BRANCH  16  22
ATOM     17  C   UNL     1       7.740   5.740  19.374  0.00  0.00    +0.000 C 
ATOM     18  C   UNL     1       7.012   5.245  18.193  0.00  0.00    +0.000 A 
ATOM     19  N   UNL     1       7.613   5.126  16.967  0.00  0.00    +0.000 NA
ATOM     20  C   UNL     1       6.655   4.694  16.164  0.00  0.00    +0.000 A 
ATOM     21  O   UNL     1       5.457   4.472  16.801  0.00  0.00    +0.000 OA
ATOM     22  C   UNL     1       5.698   4.850  18.099  0.00  0.00    +0.000 A 
BRANCH  20  23
ATOM     23  C   UNL     1       6.724   4.465  14.724  0.00  0.00    +0.000 A 
ATOM     24  C   UNL     1       7.659   5.192  13.972  0.00  0.00    +0.000 A 
ATOM     25  C   UNL     1       7.718   5.075  12.582  0.00  0.00    +0.000 A 
ATOM     26  C   UNL     1       6.840   4.223  11.921  0.00  0.00    +0.000 A 
ATOM     27  C   UNL     1       5.918   3.474  12.654  0.00  0.00    +0.000 A 
ATOM     28  C   UNL     1       5.852   3.598  14.046  0.00  0.00    +0.000 A 
ENDBRANCH  20  23
ENDBRANCH  16  22
ENDBRANCH   1  16
TORSDOF 7
ENDMDL
MODEL 3
REMARK VINA RESULT:      -8.0      0.653      1.179
REMARK  Name = 
REMARK  8 active torsions:
REMARK  status: ('A' for Active; 'I' for Inactive)
REMARK    1  A    between atoms: C_1  and  C_2
REMARK    2  A    between atoms: C_4  and  C_5
REMARK    3  A    between atoms: C_12  and  C_13
REMARK    4  A    between atoms: C_13  and  O_14
REMARK    5  A    between atoms: O_14  and  C_15
REMARK    6  A    between atoms: C_23  and  C_24
REMARK    7  A    between atoms: C_24  and  C_25
REMARK    8  A    between atoms: C_25  and  O_27
REMARK                            x       y       z     vdW  Elec       q    Type
REMARK                         _______ _______ _______ _____ _____    ______ ____
ROOT
ATOM      1  O   UNL     1       5.375   6.958  16.350  0.00  0.00    +0.000 OA
ENDROOT
BRANCH   1   2
ATOM      2  C   UNL     1       4.379   6.219  16.942  0.00  0.00    +0.000 A 
ATOM      3  C   UNL     1       4.257   4.845  16.630  0.00  0.00    +0.000 A 
ATOM      4  C   UNL     1       3.358   3.983  17.329  0.00  0.00    +0.000 A 
ATOM      5  C   UNL     1       2.589   4.507  18.365  0.00  0.00    +0.000 A 
ATOM      6  C   UNL     1       2.704   5.897  18.557  0.00  0.00    +0.000 A 
ATOM      7  C   UNL     1       3.514   6.761  17.863  0.00  0.00    +0.000 A 
ATOM      8  O   UNL     1       1.979   6.386  19.613  0.00  0.00    +0.000 OA
ATOM      9  C   UNL     1       1.816   5.180  20.337  0.00  0.00    +0.000 C 
ATOM     10  C   UNL     1       1.488   4.065  19.304  0.00  0.00    +0.000 C 
BRANCH  10  11
ATOM     11  C   UNL     1       1.142   2.922  20.269  0.00  0.00    +0.000 C 
BRANCH  11  12
ATOM     12  C   UNL     1       1.987   2.610  21.475  0.00  0.00    +0.000 C 
ATOM     13  O   UNL     1       3.199   2.467  21.436  0.00  0.00    +0.000 OA
BRANCH  12  14
ATOM     14  O   UNL     1       1.243   2.566  22.615  0.00  0.00    +0.000 OA
ATOM     15  H   UNL     1       1.707   2.277  23.428  0.00  0.00    +0.000 HD
ENDBRANCH  12  14
ENDBRANCH  11  12
ENDBRANCH  10  11
ENDBRANCH   1   2
BRANCH   1  16
ATOM     16  C   UNL     1       6.696   6.388  16.491  0.00  0.00    +0.000 C 
BRANCH  16  22
ATOM     17  C   UNL     1       7.963   5.686  19.465  0.00  0.00    +0.000 C 
ATOM     18  C   UNL     1       8.025   6.932  18.679  0.00  0.00    +0.000 A 
ATOM     19  N   UNL     1       8.692   8.041  19.129  0.00  0.00    +0.000 NA
ATOM     20  C   UNL     1       8.500   8.952  18.190  0.00  0.00    +0.000 A 
ATOM     21  O   UNL     1       7.778   8.493  17.114  0.00  0.00    +0.000 OA
ATOM     22  C   UNL     1       7.465   7.200  17.453  0.00  0.00    +0.000 A 
BRANCH  20  23
ATOM     23  C   UNL     1       8.929  10.347  18.190  0.00  0.00    +0.000 A 
ATOM     24  C   UNL     1       8.059  11.318  17.673  0.00  0.00    +0.000 A 
ATOM     25  C   UNL     1       8.445  12.656  17.574  0.00  0.00    +0.000 A 
ATOM     26  C   UNL     1       9.712  13.045  17.994  0.00  0.00    +0.000 A 
ATOM     27  C   UNL     1      10.584  12.097  18.533  0.00  0.00    +0.000 A 
ATOM     28  C   UNL     1      10.201  10.754  18.625  0.00  0.00    +0.000 A 
ENDBRANCH  20  23
ENDBRANCH  16  22
ENDBRANCH   1  16
TORSDOF 7
ENDMDL
MODEL 4
REMARK VINA RESULT:      -8.0      3.736      6.796
REMARK  Name = 
REMARK  8 active torsions:
REMARK  status: ('A' for Active; 'I' for Inactive)
REMARK    1  A    between atoms: C_1  and  C_2
REMARK    2  A    between atoms: C_4  and  C_5
REMARK    3  A    between atoms: C_12  and  C_13
REMARK    4  A    between atoms: C_13  and  O_14
REMARK    5  A    between atoms: O_14  and  C_15
REMARK    6  A    between atoms: C_23  and  C_24
REMARK    7  A    between atoms: C_24  and  C_25
REMARK    8  A    between atoms: C_25  and  O_27
REMARK                            x       y       z     vdW  Elec       q    Type
REMARK                         _______ _______ _______ _____ _____    ______ ____
ROOT
ATOM      1  O   UNL     1       3.452   5.909  18.106  0.00  0.00    +0.000 OA
ENDROOT
BRANCH   1   2
ATOM      2  C   UNL     1       2.852   7.083  18.494  0.00  0.00    +0.000 A 
ATOM      3  C   UNL     1       2.745   8.145  17.567  0.00  0.00    +0.000 A 
ATOM      4  C   UNL     1       1.991   9.326  17.847  0.00  0.00    +0.000 A 
ATOM      5  C   UNL     1       1.321   9.427  19.063  0.00  0.00    +0.000 A 
ATOM      6  C   UNL     1       1.546   8.368  19.964  0.00  0.00    +0.000 A 
ATOM      7  C   UNL     1       2.313   7.250  19.747  0.00  0.00    +0.000 A 
ATOM      8  O   UNL     1       0.839   8.460  21.135  0.00  0.00    +0.000 OA
ATOM      9  C   UNL     1      -0.177   9.346  20.702  0.00  0.00    +0.000 C 
ATOM     10  C   UNL     1       0.507  10.440  19.836  0.00  0.00    +0.000 C 
BRANCH  10  11
ATOM     11  C   UNL     1      -0.682  11.395  19.651  0.00  0.00    +0.000 C 
BRANCH  11  12
ATOM     12  C   UNL     1      -0.805  12.296  18.452  0.00  0.00    +0.000 C 
ATOM     13  O   UNL     1      -0.333  13.422  18.397  0.00  0.00    +0.000 OA
BRANCH  12  14
ATOM     14  O   UNL     1      -1.450  11.682  17.422  0.00  0.00    +0.000 OA
ATOM     15  H   UNL     1      -1.744  10.760  17.578  0.00  0.00    +0.000 HD
ENDBRANCH  12  14
ENDBRANCH  11  12
ENDBRANCH  10  11
ENDBRANCH   1   2
BRANCH   1  16
ATOM     16  C   UNL     1       4.790   5.730  18.625  0.00  0.00    +0.000 C 
BRANCH  16  22
ATOM     17  C   UNL     1       7.729   7.204  18.267  0.00  0.00    +0.000 C 
ATOM     18  C   UNL     1       6.980   6.345  17.331  0.00  0.00    +0.000 A 
ATOM     19  N   UNL     1       7.472   6.017  16.095  0.00  0.00    +0.000 NA
ATOM     20  C   UNL     1       6.524   5.280  15.542  0.00  0.00    +0.000 A 
ATOM     21  O   UNL     1       5.444   5.059  16.364  0.00  0.00    +0.000 OA
ATOM     22  C   UNL     1       5.745   5.767  17.501  0.00  0.00    +0.000 A 
BRANCH  20  23
ATOM     23  C   UNL     1       6.491   4.723  14.193  0.00  0.00    +0.000 A 
ATOM     24  C   UNL     1       5.444   3.855  13.850  0.00  0.00    +0.000 A 
ATOM     25  C   UNL     1       5.401   3.230  12.602  0.00  0.00    +0.000 A 
ATOM     26  C   UNL     1       6.410   3.467  11.674  0.00  0.00    +0.000 A 
ATOM     27  C   UNL     1       7.448   4.346  11.988  0.00  0.00    +0.000 A 
ATOM     28  C   UNL     1       7.496   4.966  13.242  0.00  0.00    +0.000 A 
ENDBRANCH  20  23
ENDBRANCH  16  22
ENDBRANCH   1  16
TORSDOF 7
ENDMDL
MODEL 5
REMARK VINA RESULT:      -7.9      4.423      7.173
REMARK  Name = 
REMARK  8 active torsions:
REMARK  status: ('A' for Active; 'I' for Inactive)
REMARK    1  A    between atoms: C_1  and  C_2
REMARK    2  A    between atoms: C_4  and  C_5
REMARK    3  A    between atoms: C_12  and  C_13
REMARK    4  A    between atoms: C_13  and  O_14
REMARK    5  A    between atoms: O_14  and  C_15
REMARK    6  A    between atoms: C_23  and  C_24
REMARK    7  A    between atoms: C_24  and  C_25
REMARK    8  A    between atoms: C_25  and  O_27
REMARK                            x       y       z     vdW  Elec       q    Type
REMARK                         _______ _______ _______ _____ _____    ______ ____
ROOT
ATOM      1  O   UNL     1       5.667   4.720  19.258  0.00  0.00    +0.000 OA
ENDROOT
BRANCH   1   2
ATOM      2  C   UNL     1       5.824   4.355  17.942  0.00  0.00    +0.000 A 
ATOM      3  C   UNL     1       4.832   3.562  17.320  0.00  0.00    +0.000 A 
ATOM      4  C   UNL     1       4.847   3.286  15.918  0.00  0.00    +0.000 A 
ATOM      5  C   UNL     1       5.860   3.831  15.134  0.00  0.00    +0.000 A 
ATOM      6  C   UNL     1       6.855   4.536  15.839  0.00  0.00    +0.000 A 
ATOM      7  C   UNL     1       6.900   4.766  17.192  0.00  0.00    +0.000 A 
ATOM      8  O   UNL     1       7.816   5.108  15.046  0.00  0.00    +0.000 OA
ATOM      9  C   UNL     1       7.097   5.134  13.826  0.00  0.00    +0.000 C 
ATOM     10  C   UNL     1       6.350   3.776  13.704  0.00  0.00    +0.000 C 
BRANCH  10  11
ATOM     11  C   UNL     1       5.826   3.906  12.266  0.00  0.00    +0.000 C 
BRANCH  11  12
ATOM     12  C   UNL     1       5.068   2.796  11.588  0.00  0.00    +0.000 C 
ATOM     13  O   UNL     1       3.961   2.934  11.091  0.00  0.00    +0.000 OA
BRANCH  12  14
ATOM     14  O   UNL     1       5.792   1.643  11.546  0.00  0.00    +0.000 OA
ATOM     15  H   UNL     1       6.275   1.461  10.713  0.00  0.00    +0.000 HD
ENDBRANCH  12  14
ENDBRANCH  11  12
ENDBRANCH  10  11
ENDBRANCH   1   2
BRANCH   1  16
ATOM     16  C   UNL     1       4.681   3.939  19.973  0.00  0.00    +0.000 C 
BRANCH  16  22
ATOM     17  C   UNL     1       1.781   3.303  21.431  0.00  0.00    +0.000 C 
ATOM     18  C   UNL     1       2.260   4.531  20.772  0.00  0.00    +0.000 A 
ATOM     19  N   UNL     1       1.489   5.661  20.695  0.00  0.00    +0.000 NA
ATOM     20  C   UNL     1       2.224   6.524  20.015  0.00  0.00    +0.000 A 
ATOM     21  O   UNL     1       3.467   6.044  19.674  0.00  0.00    +0.000 OA
ATOM     22  C   UNL     1       3.466   4.756  20.151  0.00  0.00    +0.000 A 
BRANCH  20  23
ATOM     23  C   UNL     1       1.860   7.868  19.578  0.00  0.00    +0.000 A 
ATOM     24  C   UNL     1       1.181   8.705  20.475  0.00  0.00    +0.000 A 
ATOM     25  C   UNL     1       0.737   9.972  20.089  0.00  0.00    +0.000 A 
ATOM     26  C   UNL     1       0.968  10.421  18.793  0.00  0.00    +0.000 A 
ATOM     27  C   UNL     1       1.663   9.611  17.892  0.00  0.00    +0.000 A 
ATOM     28  C   UNL     1       2.100   8.339  18.276  0.00  0.00    +0.000 A 
ENDBRANCH  20  23
ENDBRANCH  16  22
ENDBRANCH   1  16
TORSDOF 7
ENDMDL
MODEL 6
REMARK VINA RESULT:      -7.9      3.904      6.665
REMARK  Name = 
REMARK  8 active torsions:
REMARK  status: ('A' for Active; 'I' for Inactive)
REMARK    1  A    between atoms: C_1  and  C_2
REMARK    2  A    between atoms: C_4  and  C_5
REMARK    3  A    between atoms: C_12  and  C_13
REMARK    4  A    between atoms: C_13  and  O_14
REMARK    5  A    between atoms: O_14  and  C_15
REMARK    6  A    between atoms: C_23  and  C_24
REMARK    7  A    between atoms: C_24  and  C_25
REMARK    8  A    between atoms: C_25  and  O_27
REMARK                            x       y       z     vdW  Elec       q    Type
REMARK                         _______ _______ _______ _____ _____    ______ ____
ROOT
ATOM      1  O   UNL     1       3.478   7.454  17.316  0.00  0.00    +0.000 OA
ENDROOT
BRANCH   1   2
ATOM      2  C   UNL     1       2.567   8.099  18.117  0.00  0.00    +0.000 A 
ATOM      3  C   UNL     1       2.283   7.579  19.401  0.00  0.00    +0.000 A 
ATOM      4  C   UNL     1       1.477   8.285  20.347  0.00  0.00    +0.000 A 
ATOM      5  C   UNL     1       0.971   9.534  20.003  0.00  0.00    +0.000 A 
ATOM      6  C   UNL     1       1.225   9.944  18.679  0.00  0.00    +0.000 A 
ATOM      7  C   UNL     1       1.944   9.262  17.729  0.00  0.00    +0.000 A 
ATOM      8  O   UNL     1       0.762  11.198  18.374  0.00  0.00    +0.000 OA
ATOM      9  C   UNL     1       0.656  11.712  19.689  0.00  0.00    +0.000 C 
ATOM     10  C   UNL     1       0.048  10.588  20.574  0.00  0.00    +0.000 C 
BRANCH  10  11
ATOM     11  C   UNL     1      -0.186  11.384  21.866  0.00  0.00    +0.000 C 
BRANCH  11  12
ATOM     12  C   UNL     1      -0.834  10.770  23.078  0.00  0.00    +0.000 C 
ATOM     13  O   UNL     1      -1.971  11.025  23.443  0.00  0.00    +0.000 OA
BRANCH  12  14
ATOM     14  O   UNL     1      -0.022   9.854  23.675  0.00  0.00    +0.000 OA
ATOM     15  H   UNL     1      -0.465   9.145  24.187  0.00  0.00    +0.000 HD
ENDBRANCH  12  14
ENDBRANCH  11  12
ENDBRANCH  10  11
ENDBRANCH   1   2
BRANCH   1  16
ATOM     16  C   UNL     1       4.367   6.566  18.032  0.00  0.00    +0.000 C 
BRANCH  16  22
ATOM     17  C   UNL     1       7.650   6.850  18.315  0.00  0.00    +0.000 C 
ATOM     18  C   UNL     1       6.841   6.257  17.235  0.00  0.00    +0.000 A 
ATOM     19  N   UNL     1       7.414   5.687  16.128  0.00  0.00    +0.000 NA
ATOM     20  C   UNL     1       6.392   5.305  15.381  0.00  0.00    +0.000 A 
ATOM     21  O   UNL     1       5.166   5.547  15.954  0.00  0.00    +0.000 OA
ATOM     22  C   UNL     1       5.472   6.176  17.135  0.00  0.00    +0.000 A 
BRANCH  20  23
ATOM     23  C   UNL     1       6.426   4.705  14.051  0.00  0.00    +0.000 A 
ATOM     24  C   UNL     1       5.395   3.829  13.682  0.00  0.00    +0.000 A 
ATOM     25  C   UNL     1       5.414   3.164  12.454  0.00  0.00    +0.000 A 
ATOM     26  C   UNL     1       6.470   3.368  11.573  0.00  0.00    +0.000 A 
ATOM     27  C   UNL     1       7.495   4.254  11.912  0.00  0.00    +0.000 A 
ATOM     28  C   UNL     1       7.480   4.914  13.146  0.00  0.00    +0.000 A 
ENDBRANCH  20  23
ENDBRANCH  16  22
ENDBRANCH   1  16
TORSDOF 7
ENDMDL
MODEL 7
REMARK VINA RESULT:      -7.9      3.880      6.537
REMARK  Name = 
REMARK  8 active torsions:
REMARK  status: ('A' for Active; 'I' for Inactive)
REMARK    1  A    between atoms: C_1  and  C_2
REMARK    2  A    between atoms: C_4  and  C_5
REMARK    3  A    between atoms: C_12  and  C_13
REMARK    4  A    between atoms: C_13  and  O_14
REMARK    5  A    between atoms: O_14  and  C_15
REMARK    6  A    between atoms: C_23  and  C_24
REMARK    7  A    between atoms: C_24  and  C_25
REMARK    8  A    between atoms: C_25  and  O_27
REMARK                            x       y       z     vdW  Elec       q    Type
REMARK                         _______ _______ _______ _____ _____    ______ ____
ROOT
ATOM      1  O   UNL     1       3.279   5.617  18.112  0.00  0.00    +0.000 OA
ENDROOT
BRANCH   1   2
ATOM      2  C   UNL     1       2.748   6.794  18.580  0.00  0.00    +0.000 A 
ATOM      3  C   UNL     1       2.570   7.877  17.688  0.00  0.00    +0.000 A 
ATOM      4  C   UNL     1       1.874   9.066  18.064  0.00  0.00    +0.000 A 
ATOM      5  C   UNL     1       1.334   9.157  19.343  0.00  0.00    +0.000 A 
ATOM      6  C   UNL     1       1.626   8.076  20.198  0.00  0.00    +0.000 A 
ATOM      7  C   UNL     1       2.343   6.948  19.885  0.00  0.00    +0.000 A 
ATOM      8  O   UNL     1       1.044   8.159  21.437  0.00  0.00    +0.000 OA
ATOM      9  C   UNL     1       0.009   9.073  21.126  0.00  0.00    +0.000 C 
ATOM     10  C   UNL     1       0.625  10.171  20.213  0.00  0.00    +0.000 C 
BRANCH  10  11
ATOM     11  C   UNL     1      -0.556  11.152  20.168  0.00  0.00    +0.000 C 
BRANCH  11  12
ATOM     12  C   UNL     1      -0.757  12.210  21.219  0.00  0.00    +0.000 C 
ATOM     13  O   UNL     1       0.022  12.412  22.138  0.00  0.00    +0.000 OA
BRANCH  12  14
ATOM     14  O   UNL     1      -1.877  12.949  20.984  0.00  0.00    +0.000 OA
ATOM     15  H   UNL     1      -2.617  12.490  20.535  0.00  0.00    +0.000 HD
ENDBRANCH  12  14
ENDBRANCH  11  12
ENDBRANCH  10  11
ENDBRANCH   1   2
BRANCH   1  16
ATOM     16  C   UNL     1       4.442   5.163  18.843  0.00  0.00    +0.000 C 
BRANCH  16  22
ATOM     17  C   UNL     1       7.669   5.719  19.307  0.00  0.00    +0.000 C 
ATOM     18  C   UNL     1       6.944   5.315  18.089  0.00  0.00    +0.000 A 
ATOM     19  N   UNL     1       7.589   5.088  16.901  0.00  0.00    +0.000 NA
ATOM     20  C   UNL     1       6.625   4.787  16.048  0.00  0.00    +0.000 A 
ATOM     21  O   UNL     1       5.373   4.755  16.616  0.00  0.00    +0.000 OA
ATOM     22  C   UNL     1       5.594   5.116  17.922  0.00  0.00    +0.000 A 
BRANCH  20  23
ATOM     23  C   UNL     1       6.741   4.526  14.616  0.00  0.00    +0.000 A 
ATOM     24  C   UNL     1       7.654   5.281  13.867  0.00  0.00    +0.000 A 
ATOM     25  C   UNL     1       7.753   5.131  12.483  0.00  0.00    +0.000 A 
ATOM     26  C   UNL     1       6.937   4.218  11.825  0.00  0.00    +0.000 A 
ATOM     27  C   UNL     1       6.037   3.441  12.556  0.00  0.00    +0.000 A 
ATOM     28  C   UNL     1       5.931   3.596  13.942  0.00  0.00    +0.000 A 
ENDBRANCH  20  23
ENDBRANCH  16  22
ENDBRANCH   1  16
TORSDOF 7
ENDMDL
MODEL 8
REMARK VINA RESULT:      -7.9      4.223      7.638
REMARK  Name = 
REMARK  8 active torsions:
REMARK  status: ('A' for Active; 'I' for Inactive)
REMARK    1  A    between atoms: C_1  and  C_2
REMARK    2  A    between atoms: C_4  and  C_5
REMARK    3  A    between atoms: C_12  and  C_13
REMARK    4  A    between atoms: C_13  and  O_14
REMARK    5  A    between atoms: O_14  and  C_15
REMARK    6  A    between atoms: C_23  and  C_24
REMARK    7  A    between atoms: C_24  and  C_25
REMARK    8  A    between atoms: C_25  and  O_27
REMARK                            x       y       z     vdW  Elec       q    Type
REMARK                         _______ _______ _______ _____ _____    ______ ____
ROOT
ATOM      1  O   UNL     1       4.587   6.216  18.327  0.00  0.00    +0.000 OA
ENDROOT
BRANCH   1   2
ATOM      2  C   UNL     1       5.101   5.508  17.268  0.00  0.00    +0.000 A 
ATOM      3  C   UNL     1       4.357   4.435  16.725  0.00  0.00    +0.000 A 
ATOM      4  C   UNL     1       4.751   3.766  15.526  0.00  0.00    +0.000 A 
ATOM      5  C   UNL     1       5.892   4.196  14.856  0.00  0.00    +0.000 A 
ATOM      6  C   UNL     1       6.624   5.211  15.504  0.00  0.00    +0.000 A 
ATOM      7  C   UNL     1       6.304   5.831  16.686  0.00  0.00    +0.000 A 
ATOM      8  O   UNL     1       7.716   5.656  14.805  0.00  0.00    +0.000 OA
ATOM      9  C   UNL     1       7.336   5.221  13.513  0.00  0.00    +0.000 C 
ATOM     10  C   UNL     1       6.736   3.795  13.667  0.00  0.00    +0.000 C 
BRANCH  10  11
ATOM     11  C   UNL     1       6.593   3.422  12.184  0.00  0.00    +0.000 C 
BRANCH  11  12
ATOM     12  C   UNL     1       5.472   2.551  11.684  0.00  0.00    +0.000 C 
ATOM     13  O   UNL     1       4.352   2.966  11.424  0.00  0.00    +0.000 OA
BRANCH  12  14
ATOM     14  O   UNL     1       5.876   1.263  11.500  0.00  0.00    +0.000 OA
ATOM     15  H   UNL     1       6.056   0.742  12.310  0.00  0.00    +0.000 HD
ENDBRANCH  12  14
ENDBRANCH  11  12
ENDBRANCH  10  11
ENDBRANCH   1   2
BRANCH   1  16
ATOM     16  C   UNL     1       3.442   7.034  17.990  0.00  0.00    +0.000 C 
BRANCH  16  22
ATOM     17  C   UNL     1       2.383   4.745  20.131  0.00  0.00    +0.000 C 
ATOM     18  C   UNL     1       2.119   6.195  20.087  0.00  0.00    +0.000 A 
ATOM     19  N   UNL     1       1.343   6.820  21.028  0.00  0.00    +0.000 NA
ATOM     20  C   UNL     1       1.306   8.085  20.645  0.00  0.00    +0.000 A 
ATOM     21  O   UNL     1       2.057   8.346  19.523  0.00  0.00    +0.000 OA
ATOM     22  C   UNL     1       2.556   7.118  19.166  0.00  0.00    +0.000 A 
BRANCH  20  23
ATOM     23  C   UNL     1       0.557   9.185  21.246  0.00  0.00    +0.000 A 
ATOM     24  C   UNL     1       0.269   9.131  22.617  0.00  0.00    +0.000 A 
ATOM     25  C   UNL     1      -0.510  10.113  23.232  0.00  0.00    +0.000 A 
ATOM     26  C   UNL     1      -1.013  11.169  22.481  0.00  0.00    +0.000 A 
ATOM     27  C   UNL     1      -0.718  11.252  21.119  0.00  0.00    +0.000 A 
ATOM     28  C   UNL     1       0.055  10.264  20.500  0.00  0.00    +0.000 A 
ENDBRANCH  20  23
ENDBRANCH  16  22
ENDBRANCH   1  16
TORSDOF 7
ENDMDL
MODEL 9
REMARK VINA RESULT:      -7.8      3.423      6.530
REMARK  Name = 
REMARK  8 active torsions:
REMARK  status: ('A' for Active; 'I' for Inactive)
REMARK    1  A    between atoms: C_1  and  C_2
REMARK    2  A    between atoms: C_4  and  C_5
REMARK    3  A    between atoms: C_12  and  C_13
REMARK    4  A    between atoms: C_13  and  O_14
REMARK    5  A    between atoms: O_14  and  C_15
REMARK    6  A    between atoms: C_23  and  C_24
REMARK    7  A    between atoms: C_24  and  C_25
REMARK    8  A    between atoms: C_25  and  O_27
REMARK                            x       y       z     vdW  Elec       q    Type
REMARK                         _______ _______ _______ _____ _____    ______ ____
ROOT
ATOM      1  O   UNL     1       4.192   4.835  18.759  0.00  0.00    +0.000 OA
ENDROOT
BRANCH   1   2
ATOM      2  C   UNL     1       3.315   5.885  18.895  0.00  0.00    +0.000 A 
ATOM      3  C   UNL     1       2.680   6.101  20.139  0.00  0.00    +0.000 A 
ATOM      4  C   UNL     1       1.891   7.263  20.399  0.00  0.00    +0.000 A 
ATOM      5  C   UNL     1       1.758   8.225  19.402  0.00  0.00    +0.000 A 
ATOM      6  C   UNL     1       2.347   7.897  18.166  0.00  0.00    +0.000 A 
ATOM      7  C   UNL     1       3.060   6.762  17.868  0.00  0.00    +0.000 A 
ATOM      8  O   UNL     1       2.250   8.878  17.213  0.00  0.00    +0.000 OA
ATOM      9  C   UNL     1       2.014   9.983  18.066  0.00  0.00    +0.000 C 
ATOM     10  C   UNL     1       1.008   9.515  19.155  0.00  0.00    +0.000 C 
BRANCH  10  11
ATOM     11  C   UNL     1       0.719  10.866  19.827  0.00  0.00    +0.000 C 
BRANCH  11  12
ATOM     12  C   UNL     1      -0.489  11.691  19.476  0.00  0.00    +0.000 C 
ATOM     13  O   UNL     1      -1.511  11.229  18.993  0.00  0.00    +0.000 OA
BRANCH  12  14
ATOM     14  O   UNL     1      -0.325  12.999  19.820  0.00  0.00    +0.000 OA
ATOM     15  H   UNL     1       0.369  13.494  19.336  0.00  0.00    +0.000 HD
ENDBRANCH  12  14
ENDBRANCH  11  12
ENDBRANCH  10  11
ENDBRANCH   1   2
BRANCH   1  16
ATOM     16  C   UNL     1       5.568   5.175  19.046  0.00  0.00    +0.000 C 
BRANCH  16  22
ATOM     17  C   UNL     1       7.919   7.373  18.284  0.00  0.00    +0.000 C 
ATOM     18  C   UNL     1       7.249   6.371  17.436  0.00  0.00    +0.000 A 
ATOM     19  N   UNL     1       7.567   6.211  16.112  0.00  0.00    +0.000 NA
ATOM     20  C   UNL     1       6.750   5.265  15.683  0.00  0.00    +0.000 A 
ATOM     21  O   UNL     1       5.935   4.751  16.663  0.00  0.00    +0.000 OA
ATOM     22  C   UNL     1       6.255   5.486  17.778  0.00  0.00    +0.000 A 
BRANCH  20  23
ATOM     23  C   UNL     1       6.607   4.750  14.324  0.00  0.00    +0.000 A 
ATOM     24  C   UNL     1       5.507   3.931  14.029  0.00  0.00    +0.000 A 
ATOM     25  C   UNL     1       5.358   3.345  12.770  0.00  0.00    +0.000 A 
ATOM     26  C   UNL     1       6.311   3.573  11.784  0.00  0.00    +0.000 A 
ATOM     27  C   UNL     1       7.401   4.405  12.051  0.00  0.00    +0.000 A 
ATOM     28  C   UNL     1       7.555   4.985  13.315  0.00  0.00    +0.000 A 
ENDBRANCH  20  23
ENDBRANCH  16  22
ENDBRANCH   1  16
TORSDOF 7
ENDMDL
