MODEL 1
REMARK VINA RESULT:      -8.0      0.000      0.000
REMARK  Name = 
REMARK  12 active torsions:
REMARK  status: ('A' for Active; 'I' for Inactive)
REMARK    1  A    between atoms: C_1  and  C_2
REMARK    2  A    between atoms: C_2  and  C_3
REMARK    3  A    between atoms: C_2  and  C_4
REMARK    4  A    between atoms: C_2  and  C_5
REMARK    5  A    between atoms: C_5  and  C_6
REMARK    6  A    between atoms: C_6  and  C_7
REMARK    7  A    between atoms: C_6  and  C_8
REMARK    8  A    between atoms: C_6  and  C_9
REMARK    9  A    between atoms: C_12  and  O_13
REMARK   10  A    between atoms: C_14  and  C_15
REMARK   11  A    between atoms: N_17  and  C_18
REMARK   12  A    between atoms: C_21  and  N_22
REMARK                            x       y       z     vdW  Elec       q    Type
REMARK                         _______ _______ _______ _____ _____    ______ ____
ROOT
ATOM      1  C   UNL     1      -0.550  11.085  19.688  0.00  0.00    +0.000 A 
ATOM      2  C   UNL     1      -0.610  10.686  21.033  0.00  0.00    +0.000 A 
ATOM      3  C   UNL     1       0.145   9.610  21.521  0.00  0.00    +0.000 A 
ATOM      4  C   UNL     1       1.008   8.916  20.675  0.00  0.00    +0.000 A 
ATOM      5  C   UNL     1       1.134   9.302  19.339  0.00  0.00    +0.000 A 
ATOM      6  C   UNL     1       0.354  10.384  18.867  0.00  0.00    +0.000 A 
ENDROOT
BRANCH   5   7
ATOM      7  C   UNL     1       2.040   8.659  18.343  0.00  0.00    +0.000 C 
ATOM      8  O   UNL     1       2.194   9.228  17.260  0.00  0.00    +0.000 OA
ATOM      9  N   UNL     1       2.617   7.447  18.684  0.00  0.00    +0.000 N 
ATOM     10  H   UNL     1       2.293   7.028  19.554  0.00  0.00    +0.000 HD
BRANCH   9  11
ATOM     11  C   UNL     1       3.529   6.715  17.893  0.00  0.00    +0.000 A 
ATOM     12  C   UNL     1       3.386   5.340  17.662  0.00  0.00    +0.000 A 
ATOM     13  C   UNL     1       4.320   4.635  16.901  0.00  0.00    +0.000 A 
ATOM     14  C   UNL     1       5.411   5.312  16.357  0.00  0.00    +0.000 A 
ATOM     15  C   UNL     1       5.555   6.691  16.553  0.00  0.00    +0.000 A 
ATOM     16  C   UNL     1       4.605   7.390  17.311  0.00  0.00    +0.000 A 
BRANCH  14  17
ATOM     17  N   UNL     1       6.401   4.569  15.570  0.00  0.00    +0.000 N 
ATOM     18  O   UNL     1       6.168   3.375  15.325  0.00  0.00    +0.000 OA
ATOM     19  O   UNL     1       7.413   5.176  15.195  0.00  0.00    +0.000 OA
ENDBRANCH  14  17
ENDBRANCH   9  11
ENDBRANCH   5   7
BRANCH   1  20
ATOM     20  C   UNL     1      -1.473  12.186  19.075  0.00  0.00    +0.000 C 
ATOM     21  C   UNL     1      -0.821  13.574  19.239  0.00  0.00    +0.000 C 
ATOM     22  C   UNL     1      -2.770  12.210  19.917  0.00  0.00    +0.000 C 
BRANCH  20  23
ATOM     23  C   UNL     1      -1.760  11.836  17.558  0.00  0.00    +0.000 C 
BRANCH  23  25
ATOM     24  C   UNL     1      -4.330  11.695  17.204  0.00  0.00    +0.000 C 
ATOM     25  C   UNL     1      -2.981  10.973  17.063  0.00  0.00    +0.000 C 
ATOM     26  C   UNL     1      -3.068   9.591  17.730  0.00  0.00    +0.000 C 
ATOM     27  C   UNL     1      -2.795  10.706  15.543  0.00  0.00    +0.000 C 
ENDBRANCH  23  25
ENDBRANCH  20  23
ENDBRANCH   1  20
BRANCH   4  28
ATOM     28  O   UNL     1       1.714   7.854  21.179  0.00  0.00    +0.000 OA
ATOM     29  H   UNL     1       2.478   7.689  20.597  0.00  0.00    +0.000 HD
ENDBRANCH   4  28
TORSDOF 7
ENDMDL
MODEL 2
REMARK VINA RESULT:      -7.7      5.316      8.417
REMARK  Name = 
REMARK  12 active torsions:
REMARK  status: ('A' for Active; 'I' for Inactive)
REMARK    1  A    between atoms: C_1  and  C_2
REMARK    2  A    between atoms: C_2  and  C_3
REMARK    3  A    between atoms: C_2  and  C_4
REMARK    4  A    between atoms: C_2  and  C_5
REMARK    5  A    between atoms: C_5  and  C_6
REMARK    6  A    between atoms: C_6  and  C_7
REMARK    7  A    between atoms: C_6  and  C_8
REMARK    8  A    between atoms: C_6  and  C_9
REMARK    9  A    between atoms: C_12  and  O_13
REMARK   10  A    between atoms: C_14  and  C_15
REMARK   11  A    between atoms: N_17  and  C_18
REMARK   12  A    between atoms: C_21  and  N_22
REMARK                            x       y       z     vdW  Elec       q    Type
REMARK                         _______ _______ _______ _____ _____    ______ ____
ROOT
ATOM      1  C   UNL     1       4.346   5.213  17.687  0.00  0.00    +0.000 A 
ATOM      2  C   UNL     1       4.569   4.547  16.471  0.00  0.00    +0.000 A 
ATOM      3  C   UNL     1       5.716   4.780  15.699  0.00  0.00    +0.000 A 
ATOM      4  C   UNL     1       6.692   5.672  16.140  0.00  0.00    +0.000 A 
ATOM      5  C   UNL     1       6.534   6.326  17.363  0.00  0.00    +0.000 A 
ATOM      6  C   UNL     1       5.364   6.083  18.119  0.00  0.00    +0.000 A 
ENDROOT
BRANCH   5   7
ATOM      7  C   UNL     1       7.517   7.280  17.957  0.00  0.00    +0.000 C 
ATOM      8  O   UNL     1       8.393   6.816  18.689  0.00  0.00    +0.000 OA
ATOM      9  N   UNL     1       7.355   8.627  17.680  0.00  0.00    +0.000 N 
ATOM     10  H   UNL     1       6.508   8.880  17.175  0.00  0.00    +0.000 HD
BRANCH   9  11
ATOM     11  C   UNL     1       8.204   9.668  18.116  0.00  0.00    +0.000 A 
ATOM     12  C   UNL     1       9.049   9.533  19.225  0.00  0.00    +0.000 A 
ATOM     13  C   UNL     1       9.856  10.589  19.652  0.00  0.00    +0.000 A 
ATOM     14  C   UNL     1       9.824  11.798  18.957  0.00  0.00    +0.000 A 
ATOM     15  C   UNL     1       9.008  11.943  17.829  0.00  0.00    +0.000 A 
ATOM     16  C   UNL     1       8.209  10.871  17.405  0.00  0.00    +0.000 A 
BRANCH  14  17
ATOM     17  N   UNL     1      10.661  12.913  19.414  0.00  0.00    +0.000 N 
ATOM     18  O   UNL     1      10.122  14.022  19.551  0.00  0.00    +0.000 OA
ATOM     19  O   UNL     1      11.857  12.683  19.637  0.00  0.00    +0.000 OA
ENDBRANCH  14  17
ENDBRANCH   9  11
ENDBRANCH   5   7
BRANCH   1  20
ATOM     20  C   UNL     1       3.022   5.085  18.507  0.00  0.00    +0.000 C 
ATOM     21  C   UNL     1       1.861   4.681  17.576  0.00  0.00    +0.000 C 
ATOM     22  C   UNL     1       2.683   6.496  19.043  0.00  0.00    +0.000 C 
BRANCH  20  23
ATOM     23  C   UNL     1       3.238   4.044  19.680  0.00  0.00    +0.000 C 
BRANCH  23  25
ATOM     24  C   UNL     1       0.753   3.977  20.433  0.00  0.00    +0.000 C 
ATOM     25  C   UNL     1       2.082   3.211  20.350  0.00  0.00    +0.000 C 
ATOM     26  C   UNL     1       2.445   2.664  21.740  0.00  0.00    +0.000 C 
ATOM     27  C   UNL     1       1.806   1.969  19.458  0.00  0.00    +0.000 C 
ENDBRANCH  23  25
ENDBRANCH  20  23
ENDBRANCH   1  20
BRANCH   4  28
ATOM     28  O   UNL     1       7.790   5.894  15.349  0.00  0.00    +0.000 OA
ATOM     29  H   UNL     1       8.491   5.272  15.616  0.00  0.00    +0.000 HD
ENDBRANCH   4  28
TORSDOF 7
ENDMDL
MODEL 3
REMARK VINA RESULT:      -7.6      1.036      2.709
REMARK  Name = 
REMARK  12 active torsions:
REMARK  status: ('A' for Active; 'I' for Inactive)
REMARK    1  A    between atoms: C_1  and  C_2
REMARK    2  A    between atoms: C_2  and  C_3
REMARK    3  A    between atoms: C_2  and  C_4
REMARK    4  A    between atoms: C_2  and  C_5
REMARK    5  A    between atoms: C_5  and  C_6
REMARK    6  A    between atoms: C_6  and  C_7
REMARK    7  A    between atoms: C_6  and  C_8
REMARK    8  A    between atoms: C_6  and  C_9
REMARK    9  A    between atoms: C_12  and  O_13
REMARK   10  A    between atoms: C_14  and  C_15
REMARK   11  A    between atoms: N_17  and  C_18
REMARK   12  A    between atoms: C_21  and  N_22
REMARK                            x       y       z     vdW  Elec       q    Type
REMARK                         _______ _______ _______ _____ _____    ______ ____
ROOT
ATOM      1  C   UNL     1      -0.361  10.588  19.840  0.00  0.00    +0.000 A 
ATOM      2  C   UNL     1      -0.409  10.126  21.166  0.00  0.00    +0.000 A 
ATOM      3  C   UNL     1       0.359   9.037  21.599  0.00  0.00    +0.000 A 
ATOM      4  C   UNL     1       1.224   8.391  20.716  0.00  0.00    +0.000 A 
ATOM      5  C   UNL     1       1.338   8.841  19.400  0.00  0.00    +0.000 A 
ATOM      6  C   UNL     1       0.545   9.935  18.983  0.00  0.00    +0.000 A 
ENDROOT
BRANCH   5   7
ATOM      7  C   UNL     1       2.245   8.254  18.370  0.00  0.00    +0.000 C 
ATOM      8  O   UNL     1       2.279   8.796  17.263  0.00  0.00    +0.000 OA
ATOM      9  N   UNL     1       2.956   7.115  18.710  0.00  0.00    +0.000 N 
ATOM     10  H   UNL     1       2.726   6.698  19.609  0.00  0.00    +0.000 HD
BRANCH   9  11
ATOM     11  C   UNL     1       3.888   6.447  17.887  0.00  0.00    +0.000 A 
ATOM     12  C   UNL     1       5.055   7.066  17.417  0.00  0.00    +0.000 A 
ATOM     13  C   UNL     1       5.944   6.391  16.579  0.00  0.00    +0.000 A 
ATOM     14  C   UNL     1       5.668   5.075  16.208  0.00  0.00    +0.000 A 
ATOM     15  C   UNL     1       4.523   4.430  16.689  0.00  0.00    +0.000 A 
ATOM     16  C   UNL     1       3.642   5.116  17.538  0.00  0.00    +0.000 A 
BRANCH  14  17
ATOM     17  N   UNL     1       6.595   4.371  15.314  0.00  0.00    +0.000 N 
ATOM     18  O   UNL     1       7.806   4.614  15.427  0.00  0.00    +0.000 OA
ATOM     19  O   UNL     1       6.113   3.573  14.498  0.00  0.00    +0.000 OA
ENDBRANCH  14  17
ENDBRANCH   9  11
ENDBRANCH   5   7
BRANCH   1  20
ATOM     20  C   UNL     1      -1.298  11.707  19.285  0.00  0.00    +0.000 C 
ATOM     21  C   UNL     1      -2.078  12.365  20.442  0.00  0.00    +0.000 C 
ATOM     22  C   UNL     1      -2.350  11.014  18.388  0.00  0.00    +0.000 C 
BRANCH  20  23
ATOM     23  C   UNL     1      -0.430  12.756  18.476  0.00  0.00    +0.000 C 
BRANCH  23  25
ATOM     24  C   UNL     1       2.015  13.628  18.391  0.00  0.00    +0.000 C 
ATOM     25  C   UNL     1       0.664  13.686  19.121  0.00  0.00    +0.000 C 
ATOM     26  C   UNL     1       0.882  13.431  20.621  0.00  0.00    +0.000 C 
ATOM     27  C   UNL     1       0.176  15.156  19.001  0.00  0.00    +0.000 C 
ENDBRANCH  23  25
ENDBRANCH  20  23
ENDBRANCH   1  20
BRANCH   4  28
ATOM     28  O   UNL     1       1.944   7.314  21.166  0.00  0.00    +0.000 OA
ATOM     29  H   UNL     1       2.698   7.175  20.565  0.00  0.00    +0.000 HD
ENDBRANCH   4  28
TORSDOF 7
ENDMDL
MODEL 4
REMARK VINA RESULT:      -7.6      5.059      8.527
REMARK  Name = 
REMARK  12 active torsions:
REMARK  status: ('A' for Active; 'I' for Inactive)
REMARK    1  A    between atoms: C_1  and  C_2
REMARK    2  A    between atoms: C_2  and  C_3
REMARK    3  A    between atoms: C_2  and  C_4
REMARK    4  A    between atoms: C_2  and  C_5
REMARK    5  A    between atoms: C_5  and  C_6
REMARK    6  A    between atoms: C_6  and  C_7
REMARK    7  A    between atoms: C_6  and  C_8
REMARK    8  A    between atoms: C_6  and  C_9
REMARK    9  A    between atoms: C_12  and  O_13
REMARK   10  A    between atoms: C_14  and  C_15
REMARK   11  A    between atoms: N_17  and  C_18
REMARK   12  A    between atoms: C_21  and  N_22
REMARK                            x       y       z     vdW  Elec       q    Type
REMARK                         _______ _______ _______ _____ _____    ______ ____
ROOT
ATOM      1  C   UNL     1       4.182   5.339  17.703  0.00  0.00    +0.000 A 
ATOM      2  C   UNL     1       4.408   4.601  16.530  0.00  0.00    +0.000 A 
ATOM      3  C   UNL     1       5.579   4.753  15.774  0.00  0.00    +0.000 A 
ATOM      4  C   UNL     1       6.576   5.634  16.189  0.00  0.00    +0.000 A 
ATOM      5  C   UNL     1       6.415   6.358  17.372  0.00  0.00    +0.000 A 
ATOM      6  C   UNL     1       5.221   6.197  18.112  0.00  0.00    +0.000 A 
ENDROOT
BRANCH   5   7
ATOM      7  C   UNL     1       7.417   7.310  17.936  0.00  0.00    +0.000 C 
ATOM      8  O   UNL     1       8.309   6.843  18.649  0.00  0.00    +0.000 OA
ATOM      9  N   UNL     1       7.256   8.656  17.659  0.00  0.00    +0.000 N 
ATOM     10  H   UNL     1       6.398   8.912  17.174  0.00  0.00    +0.000 HD
BRANCH   9  11
ATOM     11  C   UNL     1       8.122   9.694  18.068  0.00  0.00    +0.000 A 
ATOM     12  C   UNL     1       8.142  10.947  17.439  0.00  0.00    +0.000 A 
ATOM     13  C   UNL     1       9.030  11.943  17.845  0.00  0.00    +0.000 A 
ATOM     14  C   UNL     1       9.909  11.690  18.898  0.00  0.00    +0.000 A 
ATOM     15  C   UNL     1       9.885  10.455  19.557  0.00  0.00    +0.000 A 
ATOM     16  C   UNL     1       8.981   9.464  19.146  0.00  0.00    +0.000 A 
BRANCH  14  17
ATOM     17  N   UNL     1      10.854  12.732  19.314  0.00  0.00    +0.000 N 
ATOM     18  O   UNL     1      11.041  12.893  20.530  0.00  0.00    +0.000 OA
ATOM     19  O   UNL     1      11.411  13.393  18.426  0.00  0.00    +0.000 OA
ENDBRANCH  14  17
ENDBRANCH   9  11
ENDBRANCH   5   7
BRANCH   1  20
ATOM     20  C   UNL     1       2.837   5.302  18.498  0.00  0.00    +0.000 C 
ATOM     21  C   UNL     1       1.746   4.609  17.656  0.00  0.00    +0.000 C 
ATOM     22  C   UNL     1       2.380   6.767  18.685  0.00  0.00    +0.000 C 
BRANCH  20  23
ATOM     23  C   UNL     1       3.075   4.575  19.884  0.00  0.00    +0.000 C 
BRANCH  23  25
ATOM     24  C   UNL     1       4.452   2.378  20.052  0.00  0.00    +0.000 C 
ATOM     25  C   UNL     1       3.053   3.013  20.081  0.00  0.00    +0.000 C 
ATOM     26  C   UNL     1       2.139   2.280  19.087  0.00  0.00    +0.000 C 
ATOM     27  C   UNL     1       2.478   2.715  21.494  0.00  0.00    +0.000 C 
ENDBRANCH  23  25
ENDBRANCH  20  23
ENDBRANCH   1  20
BRANCH   4  28
ATOM     28  O   UNL     1       7.697   5.775  15.414  0.00  0.00    +0.000 OA
ATOM     29  H   UNL     1       8.123   6.622  15.640  0.00  0.00    +0.000 HD
ENDBRANCH   4  28
TORSDOF 7
ENDMDL
MODEL 5
REMARK VINA RESULT:      -7.6      5.412      8.615
REMARK  Name = 
REMARK  12 active torsions:
REMARK  status: ('A' for Active; 'I' for Inactive)
REMARK    1  A    between atoms: C_1  and  C_2
REMARK    2  A    between atoms: C_2  and  C_3
REMARK    3  A    between atoms: C_2  and  C_4
REMARK    4  A    between atoms: C_2  and  C_5
REMARK    5  A    between atoms: C_5  and  C_6
REMARK    6  A    between atoms: C_6  and  C_7
REMARK    7  A    between atoms: C_6  and  C_8
REMARK    8  A    between atoms: C_6  and  C_9
REMARK    9  A    between atoms: C_12  and  O_13
REMARK   10  A    between atoms: C_14  and  C_15
REMARK   11  A    between atoms: N_17  and  C_18
REMARK   12  A    between atoms: C_21  and  N_22
REMARK                            x       y       z     vdW  Elec       q    Type
REMARK                         _______ _______ _______ _____ _____    ______ ____
ROOT
ATOM      1  C   UNL     1       4.882   4.025  17.636  0.00  0.00    +0.000 A 
ATOM      2  C   UNL     1       5.119   3.634  16.307  0.00  0.00    +0.000 A 
ATOM      3  C   UNL     1       6.075   4.274  15.507  0.00  0.00    +0.000 A 
ATOM      4  C   UNL     1       6.845   5.314  16.026  0.00  0.00    +0.000 A 
ATOM      5  C   UNL     1       6.674   5.710  17.353  0.00  0.00    +0.000 A 
ATOM      6  C   UNL     1       5.697   5.056  18.139  0.00  0.00    +0.000 A 
ENDROOT
BRANCH   5   7
ATOM      7  C   UNL     1       7.453   6.788  18.032  0.00  0.00    +0.000 C 
ATOM      8  O   UNL     1       8.062   6.490  19.062  0.00  0.00    +0.000 OA
ATOM      9  N   UNL     1       7.406   8.059  17.485  0.00  0.00    +0.000 N 
ATOM     10  H   UNL     1       6.754   8.190  16.715  0.00  0.00    +0.000 HD
BRANCH   9  11
ATOM     11  C   UNL     1       8.106   9.189  17.961  0.00  0.00    +0.000 A 
ATOM     12  C   UNL     1       8.995   9.121  19.042  0.00  0.00    +0.000 A 
ATOM     13  C   UNL     1       9.650  10.261  19.511  0.00  0.00    +0.000 A 
ATOM     14  C   UNL     1       9.421  11.487  18.888  0.00  0.00    +0.000 A 
ATOM     15  C   UNL     1       8.559  11.571  17.788  0.00  0.00    +0.000 A 
ATOM     16  C   UNL     1       7.913  10.416  17.320  0.00  0.00    +0.000 A 
BRANCH  14  17
ATOM     17  N   UNL     1      10.098  12.688  19.390  0.00  0.00    +0.000 N 
ATOM     18  O   UNL     1      10.092  12.887  20.614  0.00  0.00    +0.000 OA
ATOM     19  O   UNL     1      10.636  13.435  18.561  0.00  0.00    +0.000 OA
ENDBRANCH  14  17
ENDBRANCH   9  11
ENDBRANCH   5   7
BRANCH   1  20
ATOM     20  C   UNL     1       3.736   3.431  18.515  0.00  0.00    +0.000 C 
ATOM     21  C   UNL     1       4.308   2.382  19.490  0.00  0.00    +0.000 C 
ATOM     22  C   UNL     1       2.782   2.670  17.564  0.00  0.00    +0.000 C 
BRANCH  20  23
ATOM     23  C   UNL     1       2.999   4.611  19.271  0.00  0.00    +0.000 C 
BRANCH  23  25
ATOM     24  C   UNL     1       2.380   3.748  21.642  0.00  0.00    +0.000 C 
ATOM     25  C   UNL     1       1.871   4.404  20.350  0.00  0.00    +0.000 C 
ATOM     26  C   UNL     1       0.654   3.625  19.826  0.00  0.00    +0.000 C 
ATOM     27  C   UNL     1       1.339   5.805  20.763  0.00  0.00    +0.000 C 
ENDBRANCH  23  25
ENDBRANCH  20  23
ENDBRANCH   1  20
BRANCH   4  28
ATOM     28  O   UNL     1       7.754   5.934  15.208  0.00  0.00    +0.000 OA
ATOM     29  H   UNL     1       8.490   6.260  15.758  0.00  0.00    +0.000 HD
ENDBRANCH   4  28
TORSDOF 7
ENDMDL
MODEL 6
REMARK VINA RESULT:      -7.5      5.504      8.618
REMARK  Name = 
REMARK  12 active torsions:
REMARK  status: ('A' for Active; 'I' for Inactive)
REMARK    1  A    between atoms: C_1  and  C_2
REMARK    2  A    between atoms: C_2  and  C_3
REMARK    3  A    between atoms: C_2  and  C_4
REMARK    4  A    between atoms: C_2  and  C_5
REMARK    5  A    between atoms: C_5  and  C_6
REMARK    6  A    between atoms: C_6  and  C_7
REMARK    7  A    between atoms: C_6  and  C_8
REMARK    8  A    between atoms: C_6  and  C_9
REMARK    9  A    between atoms: C_12  and  O_13
REMARK   10  A    between atoms: C_14  and  C_15
REMARK   11  A    between atoms: N_17  and  C_18
REMARK   12  A    between atoms: C_21  and  N_22
REMARK                            x       y       z     vdW  Elec       q    Type
REMARK                         _______ _______ _______ _____ _____    ______ ____
ROOT
ATOM      1  C   UNL     1       4.745   4.042  17.393  0.00  0.00    +0.000 A 
ATOM      2  C   UNL     1       5.067   3.618  16.093  0.00  0.00    +0.000 A 
ATOM      3  C   UNL     1       6.097   4.216  15.353  0.00  0.00    +0.000 A 
ATOM      4  C   UNL     1       6.856   5.245  15.909  0.00  0.00    +0.000 A 
ATOM      5  C   UNL     1       6.601   5.672  17.213  0.00  0.00    +0.000 A 
ATOM      6  C   UNL     1       5.551   5.061  17.936  0.00  0.00    +0.000 A 
ENDROOT
BRANCH   5   7
ATOM      7  C   UNL     1       7.358   6.742  17.927  0.00  0.00    +0.000 C 
ATOM      8  O   UNL     1       7.917   6.438  18.984  0.00  0.00    +0.000 OA
ATOM      9  N   UNL     1       7.349   8.014  17.380  0.00  0.00    +0.000 N 
ATOM     10  H   UNL     1       6.735   8.151  16.580  0.00  0.00    +0.000 HD
BRANCH   9  11
ATOM     11  C   UNL     1       8.039   9.137  17.888  0.00  0.00    +0.000 A 
ATOM     12  C   UNL     1       7.899  10.417  17.335  0.00  0.00    +0.000 A 
ATOM     13  C   UNL     1       8.617  11.503  17.837  0.00  0.00    +0.000 A 
ATOM     14  C   UNL     1       9.483  11.311  18.913  0.00  0.00    +0.000 A 
ATOM     15  C   UNL     1       9.616  10.046  19.497  0.00  0.00    +0.000 A 
ATOM     16  C   UNL     1       8.882   8.964  18.989  0.00  0.00    +0.000 A 
BRANCH  14  17
ATOM     17  N   UNL     1      10.250  12.450  19.432  0.00  0.00    +0.000 N 
ATOM     18  O   UNL     1      10.510  13.377  18.651  0.00  0.00    +0.000 OA
ATOM     19  O   UNL     1      10.593  12.419  20.622  0.00  0.00    +0.000 OA
ENDBRANCH  14  17
ENDBRANCH   9  11
ENDBRANCH   5   7
BRANCH   1  20
ATOM     20  C   UNL     1       3.522   3.498  18.197  0.00  0.00    +0.000 C 
ATOM     21  C   UNL     1       3.758   2.023  18.584  0.00  0.00    +0.000 C 
ATOM     22  C   UNL     1       2.308   3.510  17.239  0.00  0.00    +0.000 C 
BRANCH  20  23
ATOM     23  C   UNL     1       3.283   4.417  19.464  0.00  0.00    +0.000 C 
BRANCH  23  25
ATOM     24  C   UNL     1       0.842   3.576  19.746  0.00  0.00    +0.000 C 
ATOM     25  C   UNL     1       2.009   4.344  20.385  0.00  0.00    +0.000 C 
ATOM     26  C   UNL     1       1.515   5.719  20.863  0.00  0.00    +0.000 C 
ATOM     27  C   UNL     1       2.389   3.554  21.669  0.00  0.00    +0.000 C 
ENDBRANCH  23  25
ENDBRANCH  20  23
ENDBRANCH   1  20
BRANCH   4  28
ATOM     28  O   UNL     1       7.840   5.824  15.149  0.00  0.00    +0.000 OA
ATOM     29  H   UNL     1       7.526   6.698  14.852  0.00  0.00    +0.000 HD
ENDBRANCH   4  28
TORSDOF 7
ENDMDL
MODEL 7
REMARK VINA RESULT:      -7.5      3.635      9.101
REMARK  Name = 
REMARK  12 active torsions:
REMARK  status: ('A' for Active; 'I' for Inactive)
REMARK    1  A    between atoms: C_1  and  C_2
REMARK    2  A    between atoms: C_2  and  C_3
REMARK    3  A    between atoms: C_2  and  C_4
REMARK    4  A    between atoms: C_2  and  C_5
REMARK    5  A    between atoms: C_5  and  C_6
REMARK    6  A    between atoms: C_6  and  C_7
REMARK    7  A    between atoms: C_6  and  C_8
REMARK    8  A    between atoms: C_6  and  C_9
REMARK    9  A    between atoms: C_12  and  O_13
REMARK   10  A    between atoms: C_14  and  C_15
REMARK   11  A    between atoms: N_17  and  C_18
REMARK   12  A    between atoms: C_21  and  N_22
REMARK                            x       y       z     vdW  Elec       q    Type
REMARK                         _______ _______ _______ _____ _____    ______ ____
ROOT
ATOM      1  C   UNL     1       5.417   5.424  18.548  0.00  0.00    +0.000 A 
ATOM      2  C   UNL     1       5.030   4.120  18.903  0.00  0.00    +0.000 A 
ATOM      3  C   UNL     1       3.789   3.853  19.498  0.00  0.00    +0.000 A 
ATOM      4  C   UNL     1       2.883   4.886  19.732  0.00  0.00    +0.000 A 
ATOM      5  C   UNL     1       3.206   6.192  19.358  0.00  0.00    +0.000 A 
ATOM      6  C   UNL     1       4.467   6.439  18.769  0.00  0.00    +0.000 A 
ENDROOT
BRANCH   5   7
ATOM      7  C   UNL     1       2.314   7.377  19.529  0.00  0.00    +0.000 C 
ATOM      8  O   UNL     1       1.972   7.985  18.512  0.00  0.00    +0.000 OA
ATOM      9  N   UNL     1       1.965   7.741  20.818  0.00  0.00    +0.000 N 
ATOM     10  H   UNL     1       2.432   7.232  21.567  0.00  0.00    +0.000 HD
BRANCH   9  11
ATOM     11  C   UNL     1       1.102   8.801  21.173  0.00  0.00    +0.000 A 
ATOM     12  C   UNL     1       1.026   9.987  20.430  0.00  0.00    +0.000 A 
ATOM     13  C   UNL     1       0.187  11.031  20.822  0.00  0.00    +0.000 A 
ATOM     14  C   UNL     1      -0.594  10.888  21.969  0.00  0.00    +0.000 A 
ATOM     15  C   UNL     1      -0.553   9.700  22.708  0.00  0.00    +0.000 A 
ATOM     16  C   UNL     1       0.288   8.654  22.299  0.00  0.00    +0.000 A 
BRANCH  14  17
ATOM     17  N   UNL     1      -1.465  11.992  22.389  0.00  0.00    +0.000 N 
ATOM     18  O   UNL     1      -1.092  12.693  23.342  0.00  0.00    +0.000 OA
ATOM     19  O   UNL     1      -2.523  12.159  21.768  0.00  0.00    +0.000 OA
ENDBRANCH  14  17
ENDBRANCH   9  11
ENDBRANCH   5   7
BRANCH   1  20
ATOM     20  C   UNL     1       6.839   5.782  18.011  0.00  0.00    +0.000 C 
ATOM     21  C   UNL     1       7.876   5.672  19.147  0.00  0.00    +0.000 C 
ATOM     22  C   UNL     1       6.804   7.270  17.592  0.00  0.00    +0.000 C 
BRANCH  20  23
ATOM     23  C   UNL     1       7.186   4.833  16.791  0.00  0.00    +0.000 C 
BRANCH  23  25
ATOM     24  C   UNL     1       7.263   4.803  14.195  0.00  0.00    +0.000 C 
ATOM     25  C   UNL     1       6.371   4.786  15.445  0.00  0.00    +0.000 C 
ATOM     26  C   UNL     1       5.308   5.891  15.331  0.00  0.00    +0.000 C 
ATOM     27  C   UNL     1       5.597   3.439  15.399  0.00  0.00    +0.000 C 
ENDBRANCH  23  25
ENDBRANCH  20  23
ENDBRANCH   1  20
BRANCH   4  28
ATOM     28  O   UNL     1       1.688   4.593  20.337  0.00  0.00    +0.000 OA
ATOM     29  H   UNL     1       1.854   3.948  21.048  0.00  0.00    +0.000 HD
ENDBRANCH   4  28
TORSDOF 7
ENDMDL
MODEL 8
REMARK VINA RESULT:      -7.5      1.409      2.829
REMARK  Name = 
REMARK  12 active torsions:
REMARK  status: ('A' for Active; 'I' for Inactive)
REMARK    1  A    between atoms: C_1  and  C_2
REMARK    2  A    between atoms: C_2  and  C_3
REMARK    3  A    between atoms: C_2  and  C_4
REMARK    4  A    between atoms: C_2  and  C_5
REMARK    5  A    between atoms: C_5  and  C_6
REMARK    6  A    between atoms: C_6  and  C_7
REMARK    7  A    between atoms: C_6  and  C_8
REMARK    8  A    between atoms: C_6  and  C_9
REMARK    9  A    between atoms: C_12  and  O_13
REMARK   10  A    between atoms: C_14  and  C_15
REMARK   11  A    between atoms: N_17  and  C_18
REMARK   12  A    between atoms: C_21  and  N_22
REMARK                            x       y       z     vdW  Elec       q    Type
REMARK                         _______ _______ _______ _____ _____    ______ ____
ROOT
ATOM      1  C   UNL     1       0.085  10.735  20.245  0.00  0.00    +0.000 A 
ATOM      2  C   UNL     1      -0.082  10.101  21.487  0.00  0.00    +0.000 A 
ATOM      3  C   UNL     1       0.466   8.838  21.754  0.00  0.00    +0.000 A 
ATOM      4  C   UNL     1       1.224   8.182  20.785  0.00  0.00    +0.000 A 
ATOM      5  C   UNL     1       1.453   8.791  19.550  0.00  0.00    +0.000 A 
ATOM      6  C   UNL     1       0.881  10.060  19.300  0.00  0.00    +0.000 A 
ENDROOT
BRANCH   5   7
ATOM      7  C   UNL     1       2.267   8.205  18.445  0.00  0.00    +0.000 C 
ATOM      8  O   UNL     1       2.230   8.768  17.348  0.00  0.00    +0.000 OA
ATOM      9  N   UNL     1       2.976   7.046  18.710  0.00  0.00    +0.000 N 
ATOM     10  H   UNL     1       2.805   6.616  19.617  0.00  0.00    +0.000 HD
BRANCH   9  11
ATOM     11  C   UNL     1       3.830   6.374  17.807  0.00  0.00    +0.000 A 
ATOM     12  C   UNL     1       3.637   5.033  17.449  0.00  0.00    +0.000 A 
ATOM     13  C   UNL     1       4.515   4.386  16.578  0.00  0.00    +0.000 A 
ATOM     14  C   UNL     1       5.598   5.088  16.051  0.00  0.00    +0.000 A 
ATOM     15  C   UNL     1       5.791   6.436  16.375  0.00  0.00    +0.000 A 
ATOM     16  C   UNL     1       4.897   7.079  17.244  0.00  0.00    +0.000 A 
BRANCH  14  17
ATOM     17  N   UNL     1       6.530   4.403  15.147  0.00  0.00    +0.000 N 
ATOM     18  O   UNL     1       7.730   4.711  15.212  0.00  0.00    +0.000 OA
ATOM     19  O   UNL     1       6.064   3.557  14.372  0.00  0.00    +0.000 OA
ENDBRANCH  14  17
ENDBRANCH   9  11
ENDBRANCH   5   7
BRANCH   1  20
ATOM     20  C   UNL     1      -0.621  12.074  19.861  0.00  0.00    +0.000 C 
ATOM     21  C   UNL     1      -0.922  12.895  21.132  0.00  0.00    +0.000 C 
ATOM     22  C   UNL     1      -1.991  11.705  19.244  0.00  0.00    +0.000 C 
BRANCH  20  23
ATOM     23  C   UNL     1       0.293  12.867  18.840  0.00  0.00    +0.000 C 
BRANCH  23  25
ATOM     24  C   UNL     1       2.180  13.399  20.544  0.00  0.00    +0.000 C 
ATOM     25  C   UNL     1       1.457  13.839  19.262  0.00  0.00    +0.000 C 
ATOM     26  C   UNL     1       1.015  15.305  19.401  0.00  0.00    +0.000 C 
ATOM     27  C   UNL     1       2.531  13.820  18.138  0.00  0.00    +0.000 C 
ENDBRANCH  23  25
ENDBRANCH  20  23
ENDBRANCH   1  20
BRANCH   4  28
ATOM     28  O   UNL     1       1.725   6.938  21.071  0.00  0.00    +0.000 OA
ATOM     29  H   UNL     1       1.880   6.469  20.231  0.00  0.00    +0.000 HD
ENDBRANCH   4  28
TORSDOF 7
ENDMDL
MODEL 9
REMARK VINA RESULT:      -7.4      4.946      8.251
REMARK  Name = 
REMARK  12 active torsions:
REMARK  status: ('A' for Active; 'I' for Inactive)
REMARK    1  A    between atoms: C_1  and  C_2
REMARK    2  A    between atoms: C_2  and  C_3
REMARK    3  A    between atoms: C_2  and  C_4
REMARK    4  A    between atoms: C_2  and  C_5
REMARK    5  A    between atoms: C_5  and  C_6
REMARK    6  A    between atoms: C_6  and  C_7
REMARK    7  A    between atoms: C_6  and  C_8
REMARK    8  A    between atoms: C_6  and  C_9
REMARK    9  A    between atoms: C_12  and  O_13
REMARK   10  A    between atoms: C_14  and  C_15
REMARK   11  A    between atoms: N_17  and  C_18
REMARK   12  A    between atoms: C_21  and  N_22
REMARK                            x       y       z     vdW  Elec       q    Type
REMARK                         _______ _______ _______ _____ _____    ______ ____
ROOT
ATOM      1  C   UNL     1       4.209   5.582  17.686  0.00  0.00    +0.000 A 
ATOM      2  C   UNL     1       4.429   4.820  16.526  0.00  0.00    +0.000 A 
ATOM      3  C   UNL     1       5.608   4.937  15.777  0.00  0.00    +0.000 A 
ATOM      4  C   UNL     1       6.619   5.805  16.187  0.00  0.00    +0.000 A 
ATOM      5  C   UNL     1       6.463   6.551  17.356  0.00  0.00    +0.000 A 
ATOM      6  C   UNL     1       5.261   6.425  18.090  0.00  0.00    +0.000 A 
ENDROOT
BRANCH   5   7
ATOM      7  C   UNL     1       7.480   7.492  17.913  0.00  0.00    +0.000 C 
ATOM      8  O   UNL     1       8.366   7.018  18.627  0.00  0.00    +0.000 OA
ATOM      9  N   UNL     1       7.337   8.839  17.627  0.00  0.00    +0.000 N 
ATOM     10  H   UNL     1       6.482   9.104  17.142  0.00  0.00    +0.000 HD
BRANCH   9  11
ATOM     11  C   UNL     1       8.218   9.867  18.028  0.00  0.00    +0.000 A 
ATOM     12  C   UNL     1       9.201   9.673  19.009  0.00  0.00    +0.000 A 
ATOM     13  C   UNL     1      10.038  10.716  19.408  0.00  0.00    +0.000 A 
ATOM     14  C   UNL     1       9.897  11.971  18.816  0.00  0.00    +0.000 A 
ATOM     15  C   UNL     1       8.940  12.178  17.816  0.00  0.00    +0.000 A 
ATOM     16  C   UNL     1       8.111  11.119  17.416  0.00  0.00    +0.000 A 
BRANCH  14  17
ATOM     17  N   UNL     1      10.767  13.072  19.247  0.00  0.00    +0.000 N 
ATOM     18  O   UNL     1      11.086  13.922  18.403  0.00  0.00    +0.000 OA
ATOM     19  O   UNL     1      11.132  13.088  20.431  0.00  0.00    +0.000 OA
ENDBRANCH  14  17
ENDBRANCH   9  11
ENDBRANCH   5   7
BRANCH   1  20
ATOM     20  C   UNL     1       2.858   5.583  18.470  0.00  0.00    +0.000 C 
ATOM     21  C   UNL     1       2.035   6.835  18.104  0.00  0.00    +0.000 C 
ATOM     22  C   UNL     1       3.205   5.711  19.972  0.00  0.00    +0.000 C 
BRANCH  20  23
ATOM     23  C   UNL     1       2.076   4.241  18.157  0.00  0.00    +0.000 C 
BRANCH  23  25
ATOM     24  C   UNL     1       0.605   2.172  18.706  0.00  0.00    +0.000 C 
ATOM     25  C   UNL     1       1.572   3.232  19.255  0.00  0.00    +0.000 C 
ATOM     26  C   UNL     1       0.938   3.918  20.476  0.00  0.00    +0.000 C 
ATOM     27  C   UNL     1       2.804   2.451  19.792  0.00  0.00    +0.000 C 
ENDBRANCH  23  25
ENDBRANCH  20  23
ENDBRANCH   1  20
BRANCH   4  28
ATOM     28  O   UNL     1       7.749   5.912  15.418  0.00  0.00    +0.000 OA
ATOM     29  H   UNL     1       8.097   5.016  15.257  0.00  0.00    +0.000 HD
ENDBRANCH   4  28
TORSDOF 7
ENDMDL
