MODEL 1
REMARK VINA RESULT:      -8.1      0.000      0.000
REMARK  Name = 
REMARK  10 active torsions:
REMARK  status: ('A' for Active; 'I' for Inactive)
REMARK    1  A    between atoms: C_1  and  C_2
REMARK    2  A    between atoms: N_12  and  C_13
REMARK    3  A    between atoms: C_13  and  C_14
REMARK    4  A    between atoms: C_14  and  C_15
REMARK    5  A    between atoms: C_15  and  N_16
REMARK    6  A    between atoms: C_17  and  C_19
REMARK    7  A    between atoms: C_21  and  C_22
REMARK    8  A    between atoms: C_21  and  C_23
REMARK    9  A    between atoms: C_25  and  C_26
REMARK   10  A    between atoms: C_25  and  C_27
REMARK                            x       y       z     vdW  Elec       q    Type
REMARK                         _______ _______ _______ _____ _____    ______ ____
ROOT
ATOM      1  C   UNL     1       8.420   8.818  18.520  0.00  0.00    +0.000 C 
ENDROOT
BRANCH   1   2
ATOM      2  N   UNL     1       8.991  10.127  18.223  0.00  0.00    +0.000 N 
ATOM      3  C   UNL     1       9.496  10.920  19.230  0.00  0.00    +0.000 C 
ATOM      4  O   UNL     1       9.572  10.503  20.387  0.00  0.00    +0.000 OA
ATOM      5  H   UNL     1       8.829  10.525  17.308  0.00  0.00    +0.000 HD
BRANCH   3   6
ATOM      6  C   UNL     1       9.846  12.362  18.855  0.00  0.00    +0.000 C 
ATOM      7  C   UNL     1       9.389  13.310  19.962  0.00  0.00    +0.000 C 
ATOM      8  C   UNL     1      10.171  14.593  19.721  0.00  0.00    +0.000 C 
ATOM      9  C   UNL     1      10.356  15.365  21.032  0.00  0.00    +0.000 C 
ATOM     10  C   UNL     1       9.486  15.501  18.691  0.00  0.00    +0.000 C 
ATOM     11  N   UNL     1      11.465  14.146  19.178  0.00  0.00    +0.000 NA
ATOM     12  C   UNL     1      11.327  12.757  18.655  0.00  0.00    +0.000 C 
ATOM     13  C   UNL     1      12.330  11.857  19.389  0.00  0.00    +0.000 C 
ATOM     14  C   UNL     1      11.702  12.817  17.165  0.00  0.00    +0.000 C 
ATOM     15  H   UNL     1      12.172  14.170  19.914  0.00  0.00    +0.000 HD
ENDBRANCH   3   6
ENDBRANCH   1   2
BRANCH   1  16
ATOM     16  C   UNL     1       7.402   8.405  17.449  0.00  0.00    +0.000 C 
BRANCH  16  17
ATOM     17  C   UNL     1       7.425   6.899  17.157  0.00  0.00    +0.000 C 
BRANCH  17  29
ATOM     18  C   UNL     1       8.035   5.535  19.710  0.00  0.00    +0.000 C 
ATOM     19  C   UNL     1       6.651   5.495  19.105  0.00  0.00    +0.000 A 
ATOM     20  N   UNL     1       5.767   4.812  19.758  0.00  0.00    +0.000 NA
ATOM     21  C   UNL     1       4.485   4.674  19.216  0.00  0.00    +0.000 A 
ATOM     22  C   UNL     1       3.563   3.860  19.881  0.00  0.00    +0.000 A 
ATOM     23  C   UNL     1       2.291   3.640  19.343  0.00  0.00    +0.000 A 
ATOM     24  C   UNL     1       1.934   4.244  18.139  0.00  0.00    +0.000 A 
ATOM     25  C   UNL     1       2.841   5.077  17.481  0.00  0.00    +0.000 A 
ATOM     26  C   UNL     1       4.115   5.283  18.026  0.00  0.00    +0.000 A 
ATOM     27  C   UNL     1       5.123   6.123  17.348  0.00  0.00    +0.000 A 
ATOM     28  O   UNL     1       4.806   6.744  16.334  0.00  0.00    +0.000 OA
ATOM     29  N   UNL     1       6.404   6.148  17.910  0.00  0.00    +0.000 N 
ENDBRANCH  17  29
ENDBRANCH  16  17
ENDBRANCH   1  16
TORSDOF 5
ENDMDL
MODEL 2
REMARK VINA RESULT:      -7.9      5.087      7.458
REMARK  Name = 
REMARK  10 active torsions:
REMARK  status: ('A' for Active; 'I' for Inactive)
REMARK    1  A    between atoms: C_1  and  C_2
REMARK    2  A    between atoms: N_12  and  C_13
REMARK    3  A    between atoms: C_13  and  C_14
REMARK    4  A    between atoms: C_14  and  C_15
REMARK    5  A    between atoms: C_15  and  N_16
REMARK    6  A    between atoms: C_17  and  C_19
REMARK    7  A    between atoms: C_21  and  C_22
REMARK    8  A    between atoms: C_21  and  C_23
REMARK    9  A    between atoms: C_25  and  C_26
REMARK   10  A    between atoms: C_25  and  C_27
REMARK                            x       y       z     vdW  Elec       q    Type
REMARK                         _______ _______ _______ _____ _____    ______ ____
ROOT
ATOM      1  C   UNL     1       4.620   2.823  19.722  0.00  0.00    +0.000 C 
ENDROOT
BRANCH   1   2
ATOM      2  N   UNL     1       5.348   3.275  18.541  0.00  0.00    +0.000 N 
ATOM      3  C   UNL     1       6.175   4.375  18.602  0.00  0.00    +0.000 C 
ATOM      4  O   UNL     1       6.400   4.940  19.673  0.00  0.00    +0.000 OA
ATOM      5  H   UNL     1       5.084   2.898  17.640  0.00  0.00    +0.000 HD
BRANCH   3   6
ATOM      6  C   UNL     1       6.698   4.912  17.267  0.00  0.00    +0.000 C 
ATOM      7  C   UNL     1       6.134   4.079  16.118  0.00  0.00    +0.000 C 
ATOM      8  C   UNL     1       6.323   4.946  14.882  0.00  0.00    +0.000 C 
ATOM      9  C   UNL     1       5.273   4.604  13.818  0.00  0.00    +0.000 C 
ATOM     10  C   UNL     1       7.724   4.791  14.277  0.00  0.00    +0.000 C 
ATOM     11  N   UNL     1       6.161   6.327  15.365  0.00  0.00    +0.000 NA
ATOM     12  C   UNL     1       6.354   6.358  16.843  0.00  0.00    +0.000 C 
ATOM     13  C   UNL     1       5.082   6.925  17.488  0.00  0.00    +0.000 C 
ATOM     14  C   UNL     1       7.524   7.321  17.105  0.00  0.00    +0.000 C 
ATOM     15  H   UNL     1       5.226   6.665  15.130  0.00  0.00    +0.000 HD
ENDBRANCH   3   6
ENDBRANCH   1   2
BRANCH   1  16
ATOM     16  C   UNL     1       3.551   1.788  19.347  0.00  0.00    +0.000 C 
BRANCH  16  17
ATOM     17  C   UNL     1       2.210   2.430  18.969  0.00  0.00    +0.000 C 
BRANCH  17  29
ATOM     18  C   UNL     1       1.535   3.029  21.786  0.00  0.00    +0.000 C 
ATOM     19  C   UNL     1       1.752   4.131  20.774  0.00  0.00    +0.000 A 
ATOM     20  N   UNL     1       1.600   5.340  21.213  0.00  0.00    +0.000 NA
ATOM     21  C   UNL     1       1.716   6.403  20.312  0.00  0.00    +0.000 A 
ATOM     22  C   UNL     1       1.461   7.699  20.773  0.00  0.00    +0.000 A 
ATOM     23  C   UNL     1       1.499   8.786  19.894  0.00  0.00    +0.000 A 
ATOM     24  C   UNL     1       1.804   8.580  18.550  0.00  0.00    +0.000 A 
ATOM     25  C   UNL     1       2.083   7.293  18.088  0.00  0.00    +0.000 A 
ATOM     26  C   UNL     1       2.033   6.210  18.976  0.00  0.00    +0.000 A 
ATOM     27  C   UNL     1       2.280   4.825  18.527  0.00  0.00    +0.000 A 
ATOM     28  O   UNL     1       2.644   4.623  17.368  0.00  0.00    +0.000 OA
ATOM     29  N   UNL     1       2.069   3.811  19.467  0.00  0.00    +0.000 N 
ENDBRANCH  17  29
ENDBRANCH  16  17
ENDBRANCH   1  16
TORSDOF 5
ENDMDL
MODEL 3
REMARK VINA RESULT:      -7.8      5.524      9.631
REMARK  Name = 
REMARK  10 active torsions:
REMARK  status: ('A' for Active; 'I' for Inactive)
REMARK    1  A    between atoms: C_1  and  C_2
REMARK    2  A    between atoms: N_12  and  C_13
REMARK    3  A    between atoms: C_13  and  C_14
REMARK    4  A    between atoms: C_14  and  C_15
REMARK    5  A    between atoms: C_15  and  N_16
REMARK    6  A    between atoms: C_17  and  C_19
REMARK    7  A    between atoms: C_21  and  C_22
REMARK    8  A    between atoms: C_21  and  C_23
REMARK    9  A    between atoms: C_25  and  C_26
REMARK   10  A    between atoms: C_25  and  C_27
REMARK                            x       y       z     vdW  Elec       q    Type
REMARK                         _______ _______ _______ _____ _____    ______ ____
ROOT
ATOM      1  C   UNL     1       1.345   6.808  20.945  0.00  0.00    +0.000 C 
ENDROOT
BRANCH   1   2
ATOM      2  N   UNL     1       2.376   6.385  20.003  0.00  0.00    +0.000 N 
ATOM      3  C   UNL     1       2.247   5.208  19.299  0.00  0.00    +0.000 C 
ATOM      4  O   UNL     1       1.216   4.538  19.369  0.00  0.00    +0.000 OA
ATOM      5  H   UNL     1       3.269   6.859  20.024  0.00  0.00    +0.000 HD
BRANCH   3   6
ATOM      6  C   UNL     1       3.481   4.734  18.527  0.00  0.00    +0.000 C 
ATOM      7  C   UNL     1       4.633   5.714  18.742  0.00  0.00    +0.000 C 
ATOM      8  C   UNL     1       5.881   4.939  18.344  0.00  0.00    +0.000 C 
ATOM      9  C   UNL     1       7.108   5.474  19.089  0.00  0.00    +0.000 C 
ATOM     10  C   UNL     1       6.140   5.000  16.833  0.00  0.00    +0.000 C 
ATOM     11  N   UNL     1       5.593   3.546  18.723  0.00  0.00    +0.000 NA
ATOM     12  C   UNL     1       4.120   3.372  18.879  0.00  0.00    +0.000 C 
ATOM     13  C   UNL     1       3.836   2.885  20.307  0.00  0.00    +0.000 C 
ATOM     14  C   UNL     1       3.707   2.276  17.882  0.00  0.00    +0.000 C 
ATOM     15  H   UNL     1       6.063   3.326  19.602  0.00  0.00    +0.000 HD
ENDBRANCH   3   6
ENDBRANCH   1   2
BRANCH   1  16
ATOM     16  C   UNL     1       1.481   8.298  21.279  0.00  0.00    +0.000 C 
BRANCH  16  17
ATOM     17  C   UNL     1       0.418   9.162  20.586  0.00  0.00    +0.000 C 
BRANCH  17  29
ATOM     18  C   UNL     1       1.502   9.148  17.834  0.00  0.00    +0.000 C 
ATOM     19  C   UNL     1       1.496  10.405  18.673  0.00  0.00    +0.000 A 
ATOM     20  N   UNL     1       2.012  11.456  18.123  0.00  0.00    +0.000 NA
ATOM     21  C   UNL     1       2.103  12.634  18.871  0.00  0.00    +0.000 A 
ATOM     22  C   UNL     1       2.744  13.739  18.302  0.00  0.00    +0.000 A 
ATOM     23  C   UNL     1       2.917  14.916  19.036  0.00  0.00    +0.000 A 
ATOM     24  C   UNL     1       2.438  14.995  20.342  0.00  0.00    +0.000 A 
ATOM     25  C   UNL     1       1.776  13.904  20.909  0.00  0.00    +0.000 A 
ATOM     26  C   UNL     1       1.616  12.727  20.167  0.00  0.00    +0.000 A 
ATOM     27  C   UNL     1       0.960  11.533  20.735  0.00  0.00    +0.000 A 
ATOM     28  O   UNL     1       0.443  11.603  21.851  0.00  0.00    +0.000 OA
ATOM     29  N   UNL     1       0.977  10.372  19.956  0.00  0.00    +0.000 N 
ENDBRANCH  17  29
ENDBRANCH  16  17
ENDBRANCH   1  16
TORSDOF 5
ENDMDL
MODEL 4
REMARK VINA RESULT:      -7.8      1.636      2.375
REMARK  Name = 
REMARK  10 active torsions:
REMARK  status: ('A' for Active; 'I' for Inactive)
REMARK    1  A    between atoms: C_1  and  C_2
REMARK    2  A    between atoms: N_12  and  C_13
REMARK    3  A    between atoms: C_13  and  C_14
REMARK    4  A    between atoms: C_14  and  C_15
REMARK    5  A    between atoms: C_15  and  N_16
REMARK    6  A    between atoms: C_17  and  C_19
REMARK    7  A    between atoms: C_21  and  C_22
REMARK    8  A    between atoms: C_21  and  C_23
REMARK    9  A    between atoms: C_25  and  C_26
REMARK   10  A    between atoms: C_25  and  C_27
REMARK                            x       y       z     vdW  Elec       q    Type
REMARK                         _______ _______ _______ _____ _____    ______ ____
ROOT
ATOM      1  C   UNL     1       7.178   8.440  17.798  0.00  0.00    +0.000 C 
ENDROOT
BRANCH   1   2
ATOM      2  N   UNL     1       8.109   9.547  17.608  0.00  0.00    +0.000 N 
ATOM      3  C   UNL     1       9.019   9.877  18.589  0.00  0.00    +0.000 C 
ATOM      4  O   UNL     1       9.139   9.186  19.601  0.00  0.00    +0.000 OA
ATOM      5  H   UNL     1       7.945  10.188  16.844  0.00  0.00    +0.000 HD
BRANCH   3   6
ATOM      6  C   UNL     1       9.779  11.193  18.401  0.00  0.00    +0.000 C 
ATOM      7  C   UNL     1       8.864  12.230  17.753  0.00  0.00    +0.000 C 
ATOM      8  C   UNL     1       9.532  13.567  18.035  0.00  0.00    +0.000 C 
ATOM      9  C   UNL     1       8.493  14.694  18.065  0.00  0.00    +0.000 C 
ATOM     10  C   UNL     1      10.612  13.903  16.998  0.00  0.00    +0.000 C 
ATOM     11  N   UNL     1      10.171  13.396  19.351  0.00  0.00    +0.000 NA
ATOM     12  C   UNL     1      10.320  11.941  19.640  0.00  0.00    +0.000 C 
ATOM     13  C   UNL     1       9.579  11.626  20.947  0.00  0.00    +0.000 C 
ATOM     14  C   UNL     1      11.824  11.693  19.841  0.00  0.00    +0.000 C 
ATOM     15  H   UNL     1       9.595  13.835  20.071  0.00  0.00    +0.000 HD
ENDBRANCH   3   6
ENDBRANCH   1   2
BRANCH   1  16
ATOM     16  C   UNL     1       7.553   7.247  16.909  0.00  0.00    +0.000 C 
BRANCH  16  17
ATOM     17  C   UNL     1       7.527   5.912  17.666  0.00  0.00    +0.000 C 
BRANCH  17  29
ATOM     18  C   UNL     1       6.691   4.583  15.159  0.00  0.00    +0.000 C 
ATOM     19  C   UNL     1       5.813   4.572  16.389  0.00  0.00    +0.000 A 
ATOM     20  N   UNL     1       4.673   3.970  16.266  0.00  0.00    +0.000 NA
ATOM     21  C   UNL     1       3.783   3.985  17.344  0.00  0.00    +0.000 A 
ATOM     22  C   UNL     1       2.519   3.412  17.174  0.00  0.00    +0.000 A 
ATOM     23  C   UNL     1       1.571   3.462  18.201  0.00  0.00    +0.000 A 
ATOM     24  C   UNL     1       1.891   4.078  19.409  0.00  0.00    +0.000 A 
ATOM     25  C   UNL     1       3.159   4.631  19.595  0.00  0.00    +0.000 A 
ATOM     26  C   UNL     1       4.097   4.582  18.556  0.00  0.00    +0.000 A 
ATOM     27  C   UNL     1       5.437   5.189  18.689  0.00  0.00    +0.000 A 
ATOM     28  O   UNL     1       5.782   5.655  19.775  0.00  0.00    +0.000 OA
ATOM     29  N   UNL     1       6.240   5.202  17.544  0.00  0.00    +0.000 N 
ENDBRANCH  17  29
ENDBRANCH  16  17
ENDBRANCH   1  16
TORSDOF 5
ENDMDL
MODEL 5
REMARK VINA RESULT:      -7.7      1.223      1.865
REMARK  Name = 
REMARK  10 active torsions:
REMARK  status: ('A' for Active; 'I' for Inactive)
REMARK    1  A    between atoms: C_1  and  C_2
REMARK    2  A    between atoms: N_12  and  C_13
REMARK    3  A    between atoms: C_13  and  C_14
REMARK    4  A    between atoms: C_14  and  C_15
REMARK    5  A    between atoms: C_15  and  N_16
REMARK    6  A    between atoms: C_17  and  C_19
REMARK    7  A    between atoms: C_21  and  C_22
REMARK    8  A    between atoms: C_21  and  C_23
REMARK    9  A    between atoms: C_25  and  C_26
REMARK   10  A    between atoms: C_25  and  C_27
REMARK                            x       y       z     vdW  Elec       q    Type
REMARK                         _______ _______ _______ _____ _____    ______ ____
ROOT
ATOM      1  C   UNL     1       8.681   9.240  18.251  0.00  0.00    +0.000 C 
ENDROOT
BRANCH   1   2
ATOM      2  N   UNL     1       8.671  10.697  18.166  0.00  0.00    +0.000 N 
ATOM      3  C   UNL     1       9.739  11.436  18.625  0.00  0.00    +0.000 C 
ATOM      4  O   UNL     1      10.766  10.886  19.023  0.00  0.00    +0.000 OA
ATOM      5  H   UNL     1       7.797  11.160  17.954  0.00  0.00    +0.000 HD
BRANCH   3   6
ATOM      6  C   UNL     1       9.532  12.950  18.717  0.00  0.00    +0.000 C 
ATOM      7  C   UNL     1       8.284  13.350  17.933  0.00  0.00    +0.000 C 
ATOM      8  C   UNL     1       7.923  14.732  18.458  0.00  0.00    +0.000 C 
ATOM      9  C   UNL     1       6.420  14.990  18.305  0.00  0.00    +0.000 C 
ATOM     10  C   UNL     1       8.702  15.843  17.742  0.00  0.00    +0.000 C 
ATOM     11  N   UNL     1       8.318  14.709  19.876  0.00  0.00    +0.000 NA
ATOM     12  C   UNL     1       9.293  13.603  20.097  0.00  0.00    +0.000 C 
ATOM     13  C   UNL     1       8.721  12.653  21.158  0.00  0.00    +0.000 C 
ATOM     14  C   UNL     1      10.572  14.258  20.645  0.00  0.00    +0.000 C 
ATOM     15  H   UNL     1       7.493  14.565  20.459  0.00  0.00    +0.000 HD
ENDBRANCH   3   6
ENDBRANCH   1   2
BRANCH   1  16
ATOM     16  C   UNL     1       7.387   8.646  17.680  0.00  0.00    +0.000 C 
BRANCH  16  17
ATOM     17  C   UNL     1       7.543   7.178  17.259  0.00  0.00    +0.000 C 
BRANCH  17  29
ATOM     18  C   UNL     1       8.236   5.722  19.739  0.00  0.00    +0.000 C 
ATOM     19  C   UNL     1       6.878   5.579  19.093  0.00  0.00    +0.000 A 
ATOM     20  N   UNL     1       6.056   4.766  19.676  0.00  0.00    +0.000 NA
ATOM     21  C   UNL     1       4.808   4.533  19.091  0.00  0.00    +0.000 A 
ATOM     22  C   UNL     1       3.962   3.586  19.677  0.00  0.00    +0.000 A 
ATOM     23  C   UNL     1       2.733   3.271  19.089  0.00  0.00    +0.000 A 
ATOM     24  C   UNL     1       2.342   3.911  17.916  0.00  0.00    +0.000 A 
ATOM     25  C   UNL     1       3.170   4.875  17.337  0.00  0.00    +0.000 A 
ATOM     26  C   UNL     1       4.403   5.176  17.931  0.00  0.00    +0.000 A 
ATOM     27  C   UNL     1       5.332   6.157  17.335  0.00  0.00    +0.000 A 
ATOM     28  O   UNL     1       4.974   6.808  16.353  0.00  0.00    +0.000 OA
ATOM     29  N   UNL     1       6.590   6.278  17.934  0.00  0.00    +0.000 N 
ENDBRANCH  17  29
ENDBRANCH  16  17
ENDBRANCH   1  16
TORSDOF 5
ENDMDL
MODEL 6
REMARK VINA RESULT:      -7.7      5.304      7.664
REMARK  Name = 
REMARK  10 active torsions:
REMARK  status: ('A' for Active; 'I' for Inactive)
REMARK    1  A    between atoms: C_1  and  C_2
REMARK    2  A    between atoms: N_12  and  C_13
REMARK    3  A    between atoms: C_13  and  C_14
REMARK    4  A    between atoms: C_14  and  C_15
REMARK    5  A    between atoms: C_15  and  N_16
REMARK    6  A    between atoms: C_17  and  C_19
REMARK    7  A    between atoms: C_21  and  C_22
REMARK    8  A    between atoms: C_21  and  C_23
REMARK    9  A    between atoms: C_25  and  C_26
REMARK   10  A    between atoms: C_25  and  C_27
REMARK                            x       y       z     vdW  Elec       q    Type
REMARK                         _______ _______ _______ _____ _____    ______ ____
ROOT
ATOM      1  C   UNL     1       2.746   6.821  18.174  0.00  0.00    +0.000 C 
ENDROOT
BRANCH   1   2
ATOM      2  N   UNL     1       2.117   7.892  18.939  0.00  0.00    +0.000 N 
ATOM      3  C   UNL     1       1.798   9.091  18.340  0.00  0.00    +0.000 C 
ATOM      4  O   UNL     1       1.939   9.251  17.127  0.00  0.00    +0.000 OA
ATOM      5  H   UNL     1       2.105   7.819  19.948  0.00  0.00    +0.000 HD
BRANCH   3   6
ATOM      6  C   UNL     1       1.371  10.228  19.272  0.00  0.00    +0.000 C 
ATOM      7  C   UNL     1       1.796  11.570  18.679  0.00  0.00    +0.000 C 
ATOM      8  C   UNL     1       0.948  12.602  19.407  0.00  0.00    +0.000 C 
ATOM      9  C   UNL     1       0.744  13.845  18.534  0.00  0.00    +0.000 C 
ATOM     10  C   UNL     1       1.572  13.020  20.745  0.00  0.00    +0.000 C 
ATOM     11  N   UNL     1      -0.330  11.919  19.669  0.00  0.00    +0.000 NA
ATOM     12  C   UNL     1      -0.130  10.445  19.568  0.00  0.00    +0.000 C 
ATOM     13  C   UNL     1      -1.076   9.897  18.491  0.00  0.00    +0.000 C 
ATOM     14  C   UNL     1      -0.530   9.860  20.933  0.00  0.00    +0.000 C 
ATOM     15  H   UNL     1      -1.026  12.221  18.987  0.00  0.00    +0.000 HD
ENDBRANCH   3   6
ENDBRANCH   1   2
BRANCH   1  16
ATOM     16  C   UNL     1       4.273   6.868  18.312  0.00  0.00    +0.000 C 
BRANCH  16  17
ATOM     17  C   UNL     1       4.923   5.483  18.195  0.00  0.00    +0.000 C 
BRANCH  17  29
ATOM     18  C   UNL     1       7.472   6.889  17.668  0.00  0.00    +0.000 C 
ATOM     19  C   UNL     1       6.868   5.942  16.656  0.00  0.00    +0.000 A 
ATOM     20  N   UNL     1       7.521   5.809  15.546  0.00  0.00    +0.000 NA
ATOM     21  C   UNL     1       6.981   5.003  14.539  0.00  0.00    +0.000 A 
ATOM     22  C   UNL     1       7.645   4.935  13.311  0.00  0.00    +0.000 A 
ATOM     23  C   UNL     1       7.109   4.196  12.252  0.00  0.00    +0.000 A 
ATOM     24  C   UNL     1       5.907   3.511  12.424  0.00  0.00    +0.000 A 
ATOM     25  C   UNL     1       5.250   3.554  13.655  0.00  0.00    +0.000 A 
ATOM     26  C   UNL     1       5.794   4.306  14.706  0.00  0.00    +0.000 A 
ATOM     27  C   UNL     1       5.116   4.416  16.013  0.00  0.00    +0.000 A 
ATOM     28  O   UNL     1       4.105   3.747  16.226  0.00  0.00    +0.000 OA
ATOM     29  N   UNL     1       5.676   5.301  16.941  0.00  0.00    +0.000 N 
ENDBRANCH  17  29
ENDBRANCH  16  17
ENDBRANCH   1  16
TORSDOF 5
ENDMDL
MODEL 7
REMARK VINA RESULT:      -7.6      1.177      1.467
REMARK  Name = 
REMARK  10 active torsions:
REMARK  status: ('A' for Active; 'I' for Inactive)
REMARK    1  A    between atoms: C_1  and  C_2
REMARK    2  A    between atoms: N_12  and  C_13
REMARK    3  A    between atoms: C_13  and  C_14
REMARK    4  A    between atoms: C_14  and  C_15
REMARK    5  A    between atoms: C_15  and  N_16
REMARK    6  A    between atoms: C_17  and  C_19
REMARK    7  A    between atoms: C_21  and  C_22
REMARK    8  A    between atoms: C_21  and  C_23
REMARK    9  A    between atoms: C_25  and  C_26
REMARK   10  A    between atoms: C_25  and  C_27
REMARK                            x       y       z     vdW  Elec       q    Type
REMARK                         _______ _______ _______ _____ _____    ______ ____
ROOT
ATOM      1  C   UNL     1       8.123   9.603  17.521  0.00  0.00    +0.000 C 
ENDROOT
BRANCH   1   2
ATOM      2  N   UNL     1       9.163  10.485  18.041  0.00  0.00    +0.000 N 
ATOM      3  C   UNL     1       9.040  11.853  17.943  0.00  0.00    +0.000 C 
ATOM      4  O   UNL     1       8.008  12.367  17.509  0.00  0.00    +0.000 OA
ATOM      5  H   UNL     1      10.056  10.081  18.289  0.00  0.00    +0.000 HD
BRANCH   3   6
ATOM      6  C   UNL     1      10.281  12.679  18.293  0.00  0.00    +0.000 C 
ATOM      7  C   UNL     1       9.969  14.167  18.153  0.00  0.00    +0.000 C 
ATOM      8  C   UNL     1      11.064  14.869  18.942  0.00  0.00    +0.000 C 
ATOM      9  C   UNL     1      10.570  16.224  19.460  0.00  0.00    +0.000 C 
ATOM     10  C   UNL     1      12.333  15.079  18.106  0.00  0.00    +0.000 C 
ATOM     11  N   UNL     1      11.370  13.953  20.053  0.00  0.00    +0.000 NA
ATOM     12  C   UNL     1      10.878  12.586  19.715  0.00  0.00    +0.000 C 
ATOM     13  C   UNL     1       9.882  12.145  20.796  0.00  0.00    +0.000 C 
ATOM     14  C   UNL     1      12.107  11.663  19.756  0.00  0.00    +0.000 C 
ATOM     15  H   UNL     1      10.914  14.283  20.905  0.00  0.00    +0.000 HD
ENDBRANCH   3   6
ENDBRANCH   1   2
BRANCH   1  16
ATOM     16  C   UNL     1       8.136   8.250  18.243  0.00  0.00    +0.000 C 
BRANCH  16  17
ATOM     17  C   UNL     1       7.583   7.110  17.377  0.00  0.00    +0.000 C 
BRANCH  17  29
ATOM     18  C   UNL     1       8.181   5.383  19.703  0.00  0.00    +0.000 C 
ATOM     19  C   UNL     1       6.781   5.500  19.146  0.00  0.00    +0.000 A 
ATOM     20  N   UNL     1       5.877   4.783  19.732  0.00  0.00    +0.000 NA
ATOM     21  C   UNL     1       4.575   4.790  19.222  0.00  0.00    +0.000 A 
ATOM     22  C   UNL     1       3.625   3.944  19.804  0.00  0.00    +0.000 A 
ATOM     23  C   UNL     1       2.329   3.868  19.285  0.00  0.00    +0.000 A 
ATOM     24  C   UNL     1       1.976   4.647  18.186  0.00  0.00    +0.000 A 
ATOM     25  C   UNL     1       2.911   5.511  17.614  0.00  0.00    +0.000 A 
ATOM     26  C   UNL     1       4.209   5.573  18.137  0.00  0.00    +0.000 A 
ATOM     27  C   UNL     1       5.246   6.440  17.543  0.00  0.00    +0.000 A 
ATOM     28  O   UNL     1       4.938   7.210  16.632  0.00  0.00    +0.000 OA
ATOM     29  N   UNL     1       6.540   6.320  18.058  0.00  0.00    +0.000 N 
ENDBRANCH  17  29
ENDBRANCH  16  17
ENDBRANCH   1  16
TORSDOF 5
ENDMDL
MODEL 8
REMARK VINA RESULT:      -7.6      1.616      2.300
REMARK  Name = 
REMARK  10 active torsions:
REMARK  status: ('A' for Active; 'I' for Inactive)
REMARK    1  A    between atoms: C_1  and  C_2
REMARK    2  A    between atoms: N_12  and  C_13
REMARK    3  A    between atoms: C_13  and  C_14
REMARK    4  A    between atoms: C_14  and  C_15
REMARK    5  A    between atoms: C_15  and  N_16
REMARK    6  A    between atoms: C_17  and  C_19
REMARK    7  A    between atoms: C_21  and  C_22
REMARK    8  A    between atoms: C_21  and  C_23
REMARK    9  A    between atoms: C_25  and  C_26
REMARK   10  A    between atoms: C_25  and  C_27
REMARK                            x       y       z     vdW  Elec       q    Type
REMARK                         _______ _______ _______ _____ _____    ______ ____
ROOT
ATOM      1  C   UNL     1       8.412   8.193  18.253  0.00  0.00    +0.000 C 
ENDROOT
BRANCH   1   2
ATOM      2  N   UNL     1       8.236   9.641  18.280  0.00  0.00    +0.000 N 
ATOM      3  C   UNL     1       9.064  10.437  19.041  0.00  0.00    +0.000 C 
ATOM      4  O   UNL     1      10.033   9.960  19.632  0.00  0.00    +0.000 OA
ATOM      5  H   UNL     1       7.383  10.029  17.899  0.00  0.00    +0.000 HD
BRANCH   3   6
ATOM      6  C   UNL     1       8.650  11.903  19.195  0.00  0.00    +0.000 C 
ATOM      7  C   UNL     1       9.300  12.495  20.444  0.00  0.00    +0.000 C 
ATOM      8  C   UNL     1       9.213  14.001  20.250  0.00  0.00    +0.000 C 
ATOM      9  C   UNL     1      10.342  14.709  21.008  0.00  0.00    +0.000 C 
ATOM     10  C   UNL     1       7.863  14.566  20.711  0.00  0.00    +0.000 C 
ATOM     11  N   UNL     1       9.341  14.199  18.796  0.00  0.00    +0.000 NA
ATOM     12  C   UNL     1       9.032  12.920  18.096  0.00  0.00    +0.000 C 
ATOM     13  C   UNL     1      10.251  12.519  17.254  0.00  0.00    +0.000 C 
ATOM     14  C   UNL     1       7.849  13.215  17.159  0.00  0.00    +0.000 C 
ATOM     15  H   UNL     1      10.293  14.495  18.573  0.00  0.00    +0.000 HD
ENDBRANCH   3   6
ENDBRANCH   1   2
BRANCH   1  16
ATOM     16  C   UNL     1       7.332   7.522  17.396  0.00  0.00    +0.000 C 
BRANCH  16  17
ATOM     17  C   UNL     1       7.396   5.990  17.451  0.00  0.00    +0.000 C 
BRANCH  17  29
ATOM     18  C   UNL     1       6.095   5.032  14.973  0.00  0.00    +0.000 C 
ATOM     19  C   UNL     1       5.423   4.897  16.321  0.00  0.00    +0.000 A 
ATOM     20  N   UNL     1       4.244   4.363  16.315  0.00  0.00    +0.000 NA
ATOM     21  C   UNL     1       3.538   4.274  17.518  0.00  0.00    +0.000 A 
ATOM     22  C   UNL     1       2.231   3.780  17.490  0.00  0.00    +0.000 A 
ATOM     23  C   UNL     1       1.463   3.734  18.658  0.00  0.00    +0.000 A 
ATOM     24  C   UNL     1       2.007   4.175  19.862  0.00  0.00    +0.000 A 
ATOM     25  C   UNL     1       3.319   4.647  19.903  0.00  0.00    +0.000 A 
ATOM     26  C   UNL     1       4.076   4.696  18.725  0.00  0.00    +0.000 A 
ATOM     27  C   UNL     1       5.455   5.225  18.709  0.00  0.00    +0.000 A 
ATOM     28  O   UNL     1       5.995   5.533  19.772  0.00  0.00    +0.000 OA
ATOM     29  N   UNL     1       6.066   5.355  17.457  0.00  0.00    +0.000 N 
ENDBRANCH  17  29
ENDBRANCH  16  17
ENDBRANCH   1  16
TORSDOF 5
ENDMDL
MODEL 9
REMARK VINA RESULT:      -7.6      5.309      7.928
REMARK  Name = 
REMARK  10 active torsions:
REMARK  status: ('A' for Active; 'I' for Inactive)
REMARK    1  A    between atoms: C_1  and  C_2
REMARK    2  A    between atoms: N_12  and  C_13
REMARK    3  A    between atoms: C_13  and  C_14
REMARK    4  A    between atoms: C_14  and  C_15
REMARK    5  A    between atoms: C_15  and  N_16
REMARK    6  A    between atoms: C_17  and  C_19
REMARK    7  A    between atoms: C_21  and  C_22
REMARK    8  A    between atoms: C_21  and  C_23
REMARK    9  A    between atoms: C_25  and  C_26
REMARK   10  A    between atoms: C_25  and  C_27
REMARK                            x       y       z     vdW  Elec       q    Type
REMARK                         _______ _______ _______ _____ _____    ______ ____
ROOT
ATOM      1  C   UNL     1       2.739   6.190  18.917  0.00  0.00    +0.000 C 
ENDROOT
BRANCH   1   2
ATOM      2  N   UNL     1       2.218   7.305  19.700  0.00  0.00    +0.000 N 
ATOM      3  C   UNL     1       1.647   8.395  19.081  0.00  0.00    +0.000 C 
ATOM      4  O   UNL     1       1.468   8.409  17.862  0.00  0.00    +0.000 OA
ATOM      5  H   UNL     1       2.462   7.359  20.680  0.00  0.00    +0.000 HD
BRANCH   3   6
ATOM      6  C   UNL     1       1.356   9.610  19.965  0.00  0.00    +0.000 C 
ATOM      7  C   UNL     1       0.567  10.650  19.172  0.00  0.00    +0.000 C 
ATOM      8  C   UNL     1      -0.049  11.556  20.228  0.00  0.00    +0.000 C 
ATOM      9  C   UNL     1      -1.340  12.195  19.703  0.00  0.00    +0.000 C 
ATOM     10  C   UNL     1       0.917  12.662  20.674  0.00  0.00    +0.000 C 
ATOM     11  N   UNL     1      -0.321  10.669  21.371  0.00  0.00    +0.000 NA
ATOM     12  C   UNL     1       0.503   9.433  21.242  0.00  0.00    +0.000 C 
ATOM     13  C   UNL     1      -0.437   8.221  21.215  0.00  0.00    +0.000 C 
ATOM     14  C   UNL     1       1.378   9.364  22.504  0.00  0.00    +0.000 C 
ATOM     15  H   UNL     1      -1.312  10.424  21.387  0.00  0.00    +0.000 HD
ENDBRANCH   3   6
ENDBRANCH   1   2
BRANCH   1  16
ATOM     16  C   UNL     1       4.023   6.588  18.178  0.00  0.00    +0.000 C 
BRANCH  16  17
ATOM     17  C   UNL     1       5.104   5.499  18.237  0.00  0.00    +0.000 C 
BRANCH  17  29
ATOM     18  C   UNL     1       7.614   6.930  17.603  0.00  0.00    +0.000 C 
ATOM     19  C   UNL     1       6.984   5.969  16.622  0.00  0.00    +0.000 A 
ATOM     20  N   UNL     1       7.596   5.834  15.490  0.00  0.00    +0.000 NA
ATOM     21  C   UNL     1       7.028   5.014  14.509  0.00  0.00    +0.000 A 
ATOM     22  C   UNL     1       7.646   4.944  13.257  0.00  0.00    +0.000 A 
ATOM     23  C   UNL     1       7.078   4.191  12.225  0.00  0.00    +0.000 A 
ATOM     24  C   UNL     1       5.892   3.495  12.447  0.00  0.00    +0.000 A 
ATOM     25  C   UNL     1       5.281   3.540  13.702  0.00  0.00    +0.000 A 
ATOM     26  C   UNL     1       5.855   4.305  14.726  0.00  0.00    +0.000 A 
ATOM     27  C   UNL     1       5.226   4.418  16.057  0.00  0.00    +0.000 A 
ATOM     28  O   UNL     1       4.231   3.740  16.313  0.00  0.00    +0.000 OA
ATOM     29  N   UNL     1       5.811   5.316  16.956  0.00  0.00    +0.000 N 
ENDBRANCH  17  29
ENDBRANCH  16  17
ENDBRANCH   1  16
TORSDOF 5
ENDMDL
