MODEL 1
REMARK VINA RESULT:      -7.1      0.000      0.000
REMARK  Name = 
REMARK  5 active torsions:
REMARK  status: ('A' for Active; 'I' for Inactive)
REMARK    1  A    between atoms: C_2  and  C_3
REMARK    2  A    between atoms: C_7  and  N_8
REMARK    3  A    between atoms: C_9  and  C_11
REMARK    4  A    between atoms: C_11  and  C_12
REMARK    5  A    between atoms: C_12  and  C_13
REMARK                            x       y       z     vdW  Elec       q    Type
REMARK                         _______ _______ _______ _____ _____    ______ ____
ROOT
ATOM      1  N   UNL     1       4.860   4.817  17.894  0.00  0.00    +0.000 N 
ATOM      2  C   UNL     1       6.219   4.815  18.159  0.00  0.00    +0.000 C 
ATOM      3  O   UNL     1       6.750   5.062  19.236  0.00  0.00    +0.000 OA
ATOM      4  H   UNL     1       4.577   4.716  16.928  0.00  0.00    +0.000 HD
ENDROOT
BRANCH   1   9
ATOM      5  C   UNL     1       2.398   4.277  20.606  0.00  0.00    +0.000 A 
ATOM      6  C   UNL     1       1.770   5.523  20.681  0.00  0.00    +0.000 A 
ATOM      7  C   UNL     1       2.180   6.553  19.840  0.00  0.00    +0.000 A 
ATOM      8  C   UNL     1       3.204   6.338  18.916  0.00  0.00    +0.000 A 
ATOM      9  C   UNL     1       3.833   5.094  18.822  0.00  0.00    +0.000 A 
ATOM     10  C   UNL     1       3.436   4.067  19.687  0.00  0.00    +0.000 A 
BRANCH   5  12
ATOM     11  N   UNL     1       1.628   2.340  22.149  0.00  0.00    +0.000 NA
ATOM     12  C   UNL     1       1.970   3.210  21.458  0.00  0.00    +0.000 C 
ENDBRANCH   5  12
ENDBRANCH   1   9
BRANCH   2  13
ATOM     13  C   UNL     1       7.074   4.489  16.947  0.00  0.00    +0.000 C 
BRANCH  13  14
ATOM     14  C   UNL     1       6.594   5.151  15.655  0.00  0.00    +0.000 C 
BRANCH  14  15
ATOM     15  C   UNL     1       6.751   4.266  14.417  0.00  0.00    +0.000 C 
ATOM     16  C   UNL     1       5.435   3.874  13.750  0.00  0.00    +0.000 C 
ATOM     17  C   UNL     1       5.870   3.374  12.379  0.00  0.00    +0.000 C 
ATOM     18  C   UNL     1       7.140   4.154  12.036  0.00  0.00    +0.000 C 
ATOM     19  C   UNL     1       7.492   4.966  13.280  0.00  0.00    +0.000 C 
ENDBRANCH  14  15
ENDBRANCH  13  14
ENDBRANCH   2  13
TORSDOF 5
ENDMDL
MODEL 2
REMARK VINA RESULT:      -7.0      5.146      6.862
REMARK  Name = 
REMARK  5 active torsions:
REMARK  status: ('A' for Active; 'I' for Inactive)
REMARK    1  A    between atoms: C_2  and  C_3
REMARK    2  A    between atoms: C_7  and  N_8
REMARK    3  A    between atoms: C_9  and  C_11
REMARK    4  A    between atoms: C_11  and  C_12
REMARK    5  A    between atoms: C_12  and  C_13
REMARK                            x       y       z     vdW  Elec       q    Type
REMARK                         _______ _______ _______ _____ _____    ______ ____
ROOT
ATOM      1  N   UNL     1       6.861   7.604  16.934  0.00  0.00    +0.000 N 
ATOM      2  C   UNL     1       7.821   7.890  17.891  0.00  0.00    +0.000 C 
ATOM      3  O   UNL     1       8.280   7.108  18.715  0.00  0.00    +0.000 OA
ATOM      4  H   UNL     1       6.491   8.383  16.404  0.00  0.00    +0.000 HD
ENDROOT
BRANCH   1   9
ATOM      5  C   UNL     1       4.307   4.929  17.093  0.00  0.00    +0.000 A 
ATOM      6  C   UNL     1       4.932   3.889  16.401  0.00  0.00    +0.000 A 
ATOM      7  C   UNL     1       6.201   4.084  15.862  0.00  0.00    +0.000 A 
ATOM      8  C   UNL     1       6.851   5.308  16.025  0.00  0.00    +0.000 A 
ATOM      9  C   UNL     1       6.243   6.354  16.724  0.00  0.00    +0.000 A 
ATOM     10  C   UNL     1       4.956   6.163  17.243  0.00  0.00    +0.000 A 
BRANCH   5  12
ATOM     11  N   UNL     1       1.953   4.573  18.122  0.00  0.00    +0.000 NA
ATOM     12  C   UNL     1       3.009   4.729  17.660  0.00  0.00    +0.000 C 
ENDBRANCH   5  12
ENDBRANCH   1   9
BRANCH   2  13
ATOM     13  C   UNL     1       8.287   9.335  17.872  0.00  0.00    +0.000 C 
BRANCH  13  14
ATOM     14  C   UNL     1       9.124   9.731  19.089  0.00  0.00    +0.000 C 
BRANCH  14  15
ATOM     15  C   UNL     1       9.611  11.181  19.053  0.00  0.00    +0.000 C 
ATOM     16  C   UNL     1      10.481  11.584  20.241  0.00  0.00    +0.000 C 
ATOM     17  C   UNL     1      11.142  12.874  19.772  0.00  0.00    +0.000 C 
ATOM     18  C   UNL     1      11.266  12.748  18.252  0.00  0.00    +0.000 C 
ATOM     19  C   UNL     1      10.532  11.465  17.868  0.00  0.00    +0.000 C 
ENDBRANCH  14  15
ENDBRANCH  13  14
ENDBRANCH   2  13
TORSDOF 5
ENDMDL
MODEL 3
REMARK VINA RESULT:      -6.7      1.368      1.397
REMARK  Name = 
REMARK  5 active torsions:
REMARK  status: ('A' for Active; 'I' for Inactive)
REMARK    1  A    between atoms: C_2  and  C_3
REMARK    2  A    between atoms: C_7  and  N_8
REMARK    3  A    between atoms: C_9  and  C_11
REMARK    4  A    between atoms: C_11  and  C_12
REMARK    5  A    between atoms: C_12  and  C_13
REMARK                            x       y       z     vdW  Elec       q    Type
REMARK                         _______ _______ _______ _____ _____    ______ ____
ROOT
ATOM      1  N   UNL     1       4.995   3.884  17.364  0.00  0.00    +0.000 N 
ATOM      2  C   UNL     1       6.034   4.684  17.810  0.00  0.00    +0.000 C 
ATOM      3  O   UNL     1       6.009   5.432  18.780  0.00  0.00    +0.000 OA
ATOM      4  H   UNL     1       5.122   3.414  16.477  0.00  0.00    +0.000 HD
ENDROOT
BRANCH   1   9
ATOM      5  C   UNL     1       2.398   3.197  19.911  0.00  0.00    +0.000 A 
ATOM      6  C   UNL     1       1.223   3.487  19.213  0.00  0.00    +0.000 A 
ATOM      7  C   UNL     1       1.294   3.932  17.896  0.00  0.00    +0.000 A 
ATOM      8  C   UNL     1       2.535   4.073  17.271  0.00  0.00    +0.000 A 
ATOM      9  C   UNL     1       3.718   3.776  17.953  0.00  0.00    +0.000 A 
ATOM     10  C   UNL     1       3.643   3.354  19.286  0.00  0.00    +0.000 A 
BRANCH   5  12
ATOM     11  N   UNL     1       2.277   2.346  22.358  0.00  0.00    +0.000 NA
ATOM     12  C   UNL     1       2.328   2.726  21.260  0.00  0.00    +0.000 C 
ENDBRANCH   5  12
ENDBRANCH   1   9
BRANCH   2  13
ATOM     13  C   UNL     1       7.285   4.589  16.954  0.00  0.00    +0.000 C 
BRANCH  13  14
ATOM     14  C   UNL     1       7.178   5.329  15.619  0.00  0.00    +0.000 C 
BRANCH  14  15
ATOM     15  C   UNL     1       7.110   4.399  14.407  0.00  0.00    +0.000 C 
ATOM     16  C   UNL     1       5.694   4.029  13.973  0.00  0.00    +0.000 C 
ATOM     17  C   UNL     1       5.890   3.470  12.569  0.00  0.00    +0.000 C 
ATOM     18  C   UNL     1       7.110   4.195  11.999  0.00  0.00    +0.000 C 
ATOM     19  C   UNL     1       7.679   5.036  13.140  0.00  0.00    +0.000 C 
ENDBRANCH  14  15
ENDBRANCH  13  14
ENDBRANCH   2  13
TORSDOF 5
ENDMDL
MODEL 4
REMARK VINA RESULT:      -6.7      2.010      2.755
REMARK  Name = 
REMARK  5 active torsions:
REMARK  status: ('A' for Active; 'I' for Inactive)
REMARK    1  A    between atoms: C_2  and  C_3
REMARK    2  A    between atoms: C_7  and  N_8
REMARK    3  A    between atoms: C_9  and  C_11
REMARK    4  A    between atoms: C_11  and  C_12
REMARK    5  A    between atoms: C_12  and  C_13
REMARK                            x       y       z     vdW  Elec       q    Type
REMARK                         _______ _______ _______ _____ _____    ______ ____
ROOT
ATOM      1  N   UNL     1       5.412   3.774  18.838  0.00  0.00    +0.000 N 
ATOM      2  C   UNL     1       5.721   5.080  19.180  0.00  0.00    +0.000 C 
ATOM      3  O   UNL     1       4.934   5.934  19.572  0.00  0.00    +0.000 OA
ATOM      4  H   UNL     1       6.146   3.222  18.413  0.00  0.00    +0.000 HD
ENDROOT
BRANCH   1   9
ATOM      5  C   UNL     1       2.208   2.555  20.235  0.00  0.00    +0.000 A 
ATOM      6  C   UNL     1       1.597   1.993  19.112  0.00  0.00    +0.000 A 
ATOM      7  C   UNL     1       2.243   2.036  17.880  0.00  0.00    +0.000 A 
ATOM      8  C   UNL     1       3.503   2.626  17.772  0.00  0.00    +0.000 A 
ATOM      9  C   UNL     1       4.133   3.182  18.889  0.00  0.00    +0.000 A 
ATOM     10  C   UNL     1       3.468   3.160  20.121  0.00  0.00    +0.000 A 
BRANCH   5  12
ATOM     11  N   UNL     1       1.017   2.450  22.537  0.00  0.00    +0.000 NA
ATOM     12  C   UNL     1       1.553   2.500  21.506  0.00  0.00    +0.000 C 
ENDBRANCH   5  12
ENDBRANCH   1   9
BRANCH   2  13
ATOM     13  C   UNL     1       7.190   5.423  19.007  0.00  0.00    +0.000 C 
BRANCH  13  14
ATOM     14  C   UNL     1       7.456   6.490  17.945  0.00  0.00    +0.000 C 
BRANCH  14  15
ATOM     15  C   UNL     1       7.125   6.035  16.522  0.00  0.00    +0.000 C 
ATOM     16  C   UNL     1       7.334   4.543  16.273  0.00  0.00    +0.000 C 
ATOM     17  C   UNL     1       6.573   4.293  14.978  0.00  0.00    +0.000 C 
ATOM     18  C   UNL     1       5.428   5.306  14.965  0.00  0.00    +0.000 C 
ATOM     19  C   UNL     1       5.650   6.217  16.171  0.00  0.00    +0.000 C 
ENDBRANCH  14  15
ENDBRANCH  13  14
ENDBRANCH   2  13
TORSDOF 5
ENDMDL
MODEL 5
REMARK VINA RESULT:      -6.7      5.254      7.431
REMARK  Name = 
REMARK  5 active torsions:
REMARK  status: ('A' for Active; 'I' for Inactive)
REMARK    1  A    between atoms: C_2  and  C_3
REMARK    2  A    between atoms: C_7  and  N_8
REMARK    3  A    between atoms: C_9  and  C_11
REMARK    4  A    between atoms: C_11  and  C_12
REMARK    5  A    between atoms: C_12  and  C_13
REMARK                            x       y       z     vdW  Elec       q    Type
REMARK                         _______ _______ _______ _____ _____    ______ ____
ROOT
ATOM      1  N   UNL     1       6.792   7.705  17.052  0.00  0.00    +0.000 N 
ATOM      2  C   UNL     1       7.829   7.948  17.937  0.00  0.00    +0.000 C 
ATOM      3  O   UNL     1       8.358   7.129  18.679  0.00  0.00    +0.000 OA
ATOM      4  H   UNL     1       6.376   8.506  16.596  0.00  0.00    +0.000 HD
ENDROOT
BRANCH   1   9
ATOM      5  C   UNL     1       5.756   4.595  15.331  0.00  0.00    +0.000 A 
ATOM      6  C   UNL     1       4.920   4.002  16.280  0.00  0.00    +0.000 A 
ATOM      7  C   UNL     1       4.715   4.629  17.506  0.00  0.00    +0.000 A 
ATOM      8  C   UNL     1       5.331   5.851  17.779  0.00  0.00    +0.000 A 
ATOM      9  C   UNL     1       6.160   6.462  16.835  0.00  0.00    +0.000 A 
ATOM     10  C   UNL     1       6.385   5.816  15.613  0.00  0.00    +0.000 A 
BRANCH   5  12
ATOM     11  N   UNL     1       6.117   3.450  13.032  0.00  0.00    +0.000 NA
ATOM     12  C   UNL     1       5.958   3.961  14.064  0.00  0.00    +0.000 C 
ENDBRANCH   5  12
ENDBRANCH   1   9
BRANCH   2  13
ATOM     13  C   UNL     1       8.288   9.396  17.950  0.00  0.00    +0.000 C 
BRANCH  13  14
ATOM     14  C   UNL     1       9.072   9.784  19.205  0.00  0.00    +0.000 C 
BRANCH  14  15
ATOM     15  C   UNL     1      10.085  10.907  18.972  0.00  0.00    +0.000 C 
ATOM     16  C   UNL     1       9.579  12.039  18.083  0.00  0.00    +0.000 C 
ATOM     17  C   UNL     1      10.574  13.163  18.343  0.00  0.00    +0.000 C 
ATOM     18  C   UNL     1      11.059  12.965  19.780  0.00  0.00    +0.000 C 
ATOM     19  C   UNL     1      10.455  11.646  20.257  0.00  0.00    +0.000 C 
ENDBRANCH  14  15
ENDBRANCH  13  14
ENDBRANCH   2  13
TORSDOF 5
ENDMDL
MODEL 6
REMARK VINA RESULT:      -6.7      3.224      6.411
REMARK  Name = 
REMARK  5 active torsions:
REMARK  status: ('A' for Active; 'I' for Inactive)
REMARK    1  A    between atoms: C_2  and  C_3
REMARK    2  A    between atoms: C_7  and  N_8
REMARK    3  A    between atoms: C_9  and  C_11
REMARK    4  A    between atoms: C_11  and  C_12
REMARK    5  A    between atoms: C_12  and  C_13
REMARK                            x       y       z     vdW  Elec       q    Type
REMARK                         _______ _______ _______ _____ _____    ______ ____
ROOT
ATOM      1  N   UNL     1       3.818   4.878  17.369  0.00  0.00    +0.000 N 
ATOM      2  C   UNL     1       2.657   5.193  18.055  0.00  0.00    +0.000 C 
ATOM      3  O   UNL     1       2.526   6.077  18.895  0.00  0.00    +0.000 OA
ATOM      4  H   UNL     1       3.805   4.044  16.798  0.00  0.00    +0.000 HD
ENDROOT
BRANCH   1   9
ATOM      5  C   UNL     1       7.114   5.799  18.781  0.00  0.00    +0.000 A 
ATOM      6  C   UNL     1       7.548   6.781  17.887  0.00  0.00    +0.000 A 
ATOM      7  C   UNL     1       6.751   7.126  16.800  0.00  0.00    +0.000 A 
ATOM      8  C   UNL     1       5.517   6.502  16.611  0.00  0.00    +0.000 A 
ATOM      9  C   UNL     1       5.064   5.526  17.503  0.00  0.00    +0.000 A 
ATOM     10  C   UNL     1       5.880   5.164  18.581  0.00  0.00    +0.000 A 
BRANCH   5  12
ATOM     11  N   UNL     1       8.578   5.175  20.829  0.00  0.00    +0.000 NA
ATOM     12  C   UNL     1       7.924   5.452  19.908  0.00  0.00    +0.000 C 
ENDBRANCH   5  12
ENDBRANCH   1   9
BRANCH   2  13
ATOM     13  C   UNL     1       1.480   4.303  17.699  0.00  0.00    +0.000 C 
BRANCH  13  14
ATOM     14  C   UNL     1       1.759   2.809  17.872  0.00  0.00    +0.000 C 
BRANCH  14  15
ATOM     15  C   UNL     1       1.780   2.355  19.333  0.00  0.00    +0.000 C 
ATOM     16  C   UNL     1       3.121   2.552  20.036  0.00  0.00    +0.000 C 
ATOM     17  C   UNL     1       2.768   2.420  21.512  0.00  0.00    +0.000 C 
ATOM     18  C   UNL     1       1.325   2.911  21.640  0.00  0.00    +0.000 C 
ATOM     19  C   UNL     1       0.832   3.163  20.217  0.00  0.00    +0.000 C 
ENDBRANCH  14  15
ENDBRANCH  13  14
ENDBRANCH   2  13
TORSDOF 5
ENDMDL
MODEL 7
REMARK VINA RESULT:      -6.6      0.484      1.058
REMARK  Name = 
REMARK  5 active torsions:
REMARK  status: ('A' for Active; 'I' for Inactive)
REMARK    1  A    between atoms: C_2  and  C_3
REMARK    2  A    between atoms: C_7  and  N_8
REMARK    3  A    between atoms: C_9  and  C_11
REMARK    4  A    between atoms: C_11  and  C_12
REMARK    5  A    between atoms: C_12  and  C_13
REMARK                            x       y       z     vdW  Elec       q    Type
REMARK                         _______ _______ _______ _____ _____    ______ ____
ROOT
ATOM      1  N   UNL     1       4.467   4.942  17.607  0.00  0.00    +0.000 N 
ATOM      2  C   UNL     1       5.756   4.463  17.770  0.00  0.00    +0.000 C 
ATOM      3  O   UNL     1       6.315   4.232  18.835  0.00  0.00    +0.000 OA
ATOM      4  H   UNL     1       4.185   5.202  16.670  0.00  0.00    +0.000 HD
ENDROOT
BRANCH   1   9
ATOM      5  C   UNL     1       2.259   4.446  20.537  0.00  0.00    +0.000 A 
ATOM      6  C   UNL     1       1.716   5.721  20.711  0.00  0.00    +0.000 A 
ATOM      7  C   UNL     1       2.100   6.756  19.863  0.00  0.00    +0.000 A 
ATOM      8  C   UNL     1       3.013   6.516  18.834  0.00  0.00    +0.000 A 
ATOM      9  C   UNL     1       3.555   5.243  18.641  0.00  0.00    +0.000 A 
ATOM     10  C   UNL     1       3.187   4.211  19.512  0.00  0.00    +0.000 A 
BRANCH   5  12
ATOM     11  N   UNL     1       1.535   2.506  22.099  0.00  0.00    +0.000 NA
ATOM     12  C   UNL     1       1.856   3.376  21.397  0.00  0.00    +0.000 C 
ENDBRANCH   5  12
ENDBRANCH   1   9
BRANCH   2  13
ATOM     13  C   UNL     1       6.494   4.247  16.460  0.00  0.00    +0.000 C 
BRANCH  13  14
ATOM     14  C   UNL     1       6.458   5.455  15.524  0.00  0.00    +0.000 C 
BRANCH  14  15
ATOM     15  C   UNL     1       6.290   5.083  14.049  0.00  0.00    +0.000 C 
ATOM     16  C   UNL     1       7.602   4.913  13.288  0.00  0.00    +0.000 C 
ATOM     17  C   UNL     1       7.183   4.172  12.024  0.00  0.00    +0.000 C 
ATOM     18  C   UNL     1       5.971   3.328  12.421  0.00  0.00    +0.000 C 
ATOM     19  C   UNL     1       5.626   3.721  13.855  0.00  0.00    +0.000 C 
ENDBRANCH  14  15
ENDBRANCH  13  14
ENDBRANCH   2  13
TORSDOF 5
ENDMDL
MODEL 8
REMARK VINA RESULT:      -6.6      2.095      6.908
REMARK  Name = 
REMARK  5 active torsions:
REMARK  status: ('A' for Active; 'I' for Inactive)
REMARK    1  A    between atoms: C_2  and  C_3
REMARK    2  A    between atoms: C_7  and  N_8
REMARK    3  A    between atoms: C_9  and  C_11
REMARK    4  A    between atoms: C_11  and  C_12
REMARK    5  A    between atoms: C_12  and  C_13
REMARK                            x       y       z     vdW  Elec       q    Type
REMARK                         _______ _______ _______ _____ _____    ______ ____
ROOT
ATOM      1  N   UNL     1       3.955   5.512  18.262  0.00  0.00    +0.000 N 
ATOM      2  C   UNL     1       3.279   6.715  18.141  0.00  0.00    +0.000 C 
ATOM      3  O   UNL     1       3.616   7.670  17.451  0.00  0.00    +0.000 OA
ATOM      4  H   UNL     1       3.622   4.864  18.964  0.00  0.00    +0.000 HD
ENDROOT
BRANCH   1   9
ATOM      5  C   UNL     1       6.226   4.397  15.559  0.00  0.00    +0.000 A 
ATOM      6  C   UNL     1       7.467   4.403  16.201  0.00  0.00    +0.000 A 
ATOM      7  C   UNL     1       7.552   4.798  17.533  0.00  0.00    +0.000 A 
ATOM      8  C   UNL     1       6.401   5.173  18.227  0.00  0.00    +0.000 A 
ATOM      9  C   UNL     1       5.151   5.160  17.602  0.00  0.00    +0.000 A 
ATOM     10  C   UNL     1       5.073   4.787  16.254  0.00  0.00    +0.000 A 
BRANCH   5  12
ATOM     11  N   UNL     1       6.053   3.643  13.083  0.00  0.00    +0.000 NA
ATOM     12  C   UNL     1       6.132   3.977  14.194  0.00  0.00    +0.000 C 
ENDBRANCH   5  12
ENDBRANCH   1   9
BRANCH   2  13
ATOM     13  C   UNL     1       2.023   6.794  18.990  0.00  0.00    +0.000 C 
BRANCH  13  14
ATOM     14  C   UNL     1       2.184   6.200  20.390  0.00  0.00    +0.000 C 
BRANCH  14  15
ATOM     15  C   UNL     1       1.421   4.890  20.591  0.00  0.00    +0.000 C 
ATOM     16  C   UNL     1       1.217   4.076  19.316  0.00  0.00    +0.000 C 
ATOM     17  C   UNL     1       0.825   2.699  19.836  0.00  0.00    +0.000 C 
ATOM     18  C   UNL     1       1.521   2.552  21.189  0.00  0.00    +0.000 C 
ATOM     19  C   UNL     1       2.166   3.903  21.488  0.00  0.00    +0.000 C 
ENDBRANCH  14  15
ENDBRANCH  13  14
ENDBRANCH   2  13
TORSDOF 5
ENDMDL
MODEL 9
REMARK VINA RESULT:      -6.5      1.611      2.371
REMARK  Name = 
REMARK  5 active torsions:
REMARK  status: ('A' for Active; 'I' for Inactive)
REMARK    1  A    between atoms: C_2  and  C_3
REMARK    2  A    between atoms: C_7  and  N_8
REMARK    3  A    between atoms: C_9  and  C_11
REMARK    4  A    between atoms: C_11  and  C_12
REMARK    5  A    between atoms: C_12  and  C_13
REMARK                            x       y       z     vdW  Elec       q    Type
REMARK                         _______ _______ _______ _____ _____    ______ ____
ROOT
ATOM      1  N   UNL     1       4.327   4.394  17.660  0.00  0.00    +0.000 N 
ATOM      2  C   UNL     1       5.691   4.438  17.899  0.00  0.00    +0.000 C 
ATOM      3  O   UNL     1       6.233   4.560  18.992  0.00  0.00    +0.000 OA
ATOM      4  H   UNL     1       4.027   4.415  16.694  0.00  0.00    +0.000 HD
ENDROOT
BRANCH   1   9
ATOM      5  C   UNL     1       1.989   5.868  20.124  0.00  0.00    +0.000 A 
ATOM      6  C   UNL     1       1.325   4.737  20.606  0.00  0.00    +0.000 A 
ATOM      7  C   UNL     1       1.642   3.481  20.096  0.00  0.00    +0.000 A 
ATOM      8  C   UNL     1       2.629   3.351  19.118  0.00  0.00    +0.000 A 
ATOM      9  C   UNL     1       3.310   4.471  18.634  0.00  0.00    +0.000 A 
ATOM     10  C   UNL     1       2.970   5.736  19.130  0.00  0.00    +0.000 A 
BRANCH   5  12
ATOM     11  N   UNL     1       1.416   8.206  21.088  0.00  0.00    +0.000 NA
ATOM     12  C   UNL     1       1.677   7.159  20.655  0.00  0.00    +0.000 C 
ENDBRANCH   5  12
ENDBRANCH   1   9
BRANCH   2  13
ATOM     13  C   UNL     1       6.532   4.342  16.639  0.00  0.00    +0.000 C 
BRANCH  13  14
ATOM     14  C   UNL     1       5.788   3.750  15.442  0.00  0.00    +0.000 C 
BRANCH  14  15
ATOM     15  C   UNL     1       6.136   4.420  14.111  0.00  0.00    +0.000 C 
ATOM     16  C   UNL     1       7.526   5.049  14.066  0.00  0.00    +0.000 C 
ATOM     17  C   UNL     1       7.768   5.264  12.577  0.00  0.00    +0.000 C 
ATOM     18  C   UNL     1       6.988   4.157  11.866  0.00  0.00    +0.000 C 
ATOM     19  C   UNL     1       6.192   3.431  12.948  0.00  0.00    +0.000 C 
ENDBRANCH  14  15
ENDBRANCH  13  14
ENDBRANCH   2  13
TORSDOF 5
ENDMDL
