MODEL 1
REMARK VINA RESULT:      -9.3      0.000      0.000
REMARK  Name = 
REMARK  7 active torsions:
REMARK  status: ('A' for Active; 'I' for Inactive)
REMARK    1  A    between atoms: C_1  and  C_2
REMARK    2  A    between atoms: C_6  and  C_7
REMARK    3  A    between atoms: C_8  and  N_9
REMARK    4  A    between atoms: C_10  and  C_12
REMARK    5  A    between atoms: C_12  and  C_13
REMARK    6  A    between atoms: C_12  and  N_16
REMARK    7  A    between atoms: C_19  and  C_20
REMARK                            x       y       z     vdW  Elec       q    Type
REMARK                         _______ _______ _______ _____ _____    ______ ____
ROOT
ATOM      1  N   UNL     1       0.163  10.105  19.223  0.00  0.00    +0.000 N 
ATOM      2  C   UNL     1       1.204   9.468  18.555  0.00  0.00    +0.000 A 
ATOM      3  O   UNL     1       1.659   9.821  17.472  0.00  0.00    +0.000 OA
ATOM      4  C   UNL     1       1.775   8.229  19.234  0.00  0.00    +0.000 A 
ATOM      5  N   UNL     1       1.622   7.984  20.497  0.00  0.00    +0.000 NA
ATOM      6  C   UNL     1       0.841   8.884  21.237  0.00  0.00    +0.000 A 
ATOM      7  C   UNL     1       0.850   8.730  22.627  0.00  0.00    +0.000 A 
ATOM      8  C   UNL     1       0.119   9.590  23.442  0.00  0.00    +0.000 A 
ATOM      9  C   UNL     1      -0.652  10.594  22.864  0.00  0.00    +0.000 A 
ATOM     10  C   UNL     1      -0.701  10.738  21.473  0.00  0.00    +0.000 A 
ATOM     11  C   UNL     1       0.057   9.901  20.640  0.00  0.00    +0.000 A 
ENDROOT
BRANCH   4  12
ATOM     12  C   UNL     1       2.524   7.336  18.385  0.00  0.00    +0.000 A 
ATOM     13  C   UNL     1       2.390   5.972  18.204  0.00  0.00    +0.000 A 
ATOM     14  C   UNL     1       3.601   5.525  17.611  0.00  0.00    +0.000 A 
ATOM     15  C   UNL     1       4.269   4.293  17.517  0.00  0.00    +0.000 A 
ATOM     16  C   UNL     1       5.462   4.232  16.787  0.00  0.00    +0.000 A 
ATOM     17  C   UNL     1       5.909   5.329  16.050  0.00  0.00    +0.000 A 
ATOM     18  C   UNL     1       5.280   6.569  16.159  0.00  0.00    +0.000 A 
ATOM     19  C   UNL     1       4.206   6.640  17.045  0.00  0.00    +0.000 A 
ATOM     20  N   UNL     1       3.631   7.720  17.658  0.00  0.00    +0.000 N 
ATOM     21  H   UNL     1       4.090   8.619  17.755  0.00  0.00    +0.000 HD
ENDBRANCH   4  12
BRANCH   1  22
ATOM     22  C   UNL     1      -0.569  11.147  18.478  0.00  0.00    +0.000 C 
BRANCH  22  24
ATOM     23  N   UNL     1      -2.876  12.065  18.672  0.00  0.00    +0.000 N 
ATOM     24  C   UNL     1      -2.117  10.926  18.449  0.00  0.00    +0.000 C 
ATOM     25  O   UNL     1      -2.597   9.796  18.364  0.00  0.00    +0.000 OA
ATOM     26  H   UNL     1      -2.443  12.751  19.272  0.00  0.00    +0.000 HD
BRANCH  23  34
ATOM     27  C   UNL     1      -4.389  11.481  16.220  0.00  0.00    +0.000 C 
ATOM     28  C   UNL     1      -5.033  11.755  17.552  0.00  0.00    +0.000 A 
ATOM     29  C   UNL     1      -6.437  11.777  17.629  0.00  0.00    +0.000 A 
ATOM     30  C   UNL     1      -7.081  12.096  18.823  0.00  0.00    +0.000 A 
ATOM     31  C   UNL     1      -6.337  12.388  19.970  0.00  0.00    +0.000 A 
ATOM     32  C   UNL     1      -4.934  12.355  19.921  0.00  0.00    +0.000 A 
ATOM     33  C   UNL     1      -4.169  12.598  21.199  0.00  0.00    +0.000 C 
ATOM     34  C   UNL     1      -4.284  12.035  18.715  0.00  0.00    +0.000 A 
ENDBRANCH  23  34
ENDBRANCH  22  24
BRANCH  22  35
ATOM     35  C   UNL     1      -0.279  12.551  19.018  0.00  0.00    +0.000 C 
ATOM     36  C   UNL     1       1.073  13.231  19.012  0.00  0.00    +0.000 C 
ATOM     37  C   UNL     1      -0.002  13.692  18.068  0.00  0.00    +0.000 C 
ENDBRANCH  22  35
ENDBRANCH   1  22
TORSDOF 5
ENDMDL
MODEL 2
REMARK VINA RESULT:      -9.2      0.070      1.474
REMARK  Name = 
REMARK  7 active torsions:
REMARK  status: ('A' for Active; 'I' for Inactive)
REMARK    1  A    between atoms: C_1  and  C_2
REMARK    2  A    between atoms: C_6  and  C_7
REMARK    3  A    between atoms: C_8  and  N_9
REMARK    4  A    between atoms: C_10  and  C_12
REMARK    5  A    between atoms: C_12  and  C_13
REMARK    6  A    between atoms: C_12  and  N_16
REMARK    7  A    between atoms: C_19  and  C_20
REMARK                            x       y       z     vdW  Elec       q    Type
REMARK                         _______ _______ _______ _____ _____    ______ ____
ROOT
ATOM      1  N   UNL     1       0.142  10.120  19.229  0.00  0.00    +0.000 N 
ATOM      2  C   UNL     1       1.184   9.486  18.559  0.00  0.00    +0.000 A 
ATOM      3  O   UNL     1       1.632   9.838  17.474  0.00  0.00    +0.000 OA
ATOM      4  C   UNL     1       1.763   8.252  19.240  0.00  0.00    +0.000 A 
ATOM      5  N   UNL     1       1.617   8.011  20.504  0.00  0.00    +0.000 NA
ATOM      6  C   UNL     1       0.834   8.909  21.245  0.00  0.00    +0.000 A 
ATOM      7  C   UNL     1       0.848   8.760  22.635  0.00  0.00    +0.000 A 
ATOM      8  C   UNL     1       0.116   9.619  23.450  0.00  0.00    +0.000 A 
ATOM      9  C   UNL     1      -0.663  10.616  22.871  0.00  0.00    +0.000 A 
ATOM     10  C   UNL     1      -0.717  10.756  21.480  0.00  0.00    +0.000 A 
ATOM     11  C   UNL     1       0.042   9.920  20.647  0.00  0.00    +0.000 A 
ENDROOT
BRANCH   4  12
ATOM     12  C   UNL     1       2.514   7.361  18.391  0.00  0.00    +0.000 A 
ATOM     13  C   UNL     1       2.388   5.995  18.218  0.00  0.00    +0.000 A 
ATOM     14  C   UNL     1       3.600   5.553  17.621  0.00  0.00    +0.000 A 
ATOM     15  C   UNL     1       4.275   4.326  17.528  0.00  0.00    +0.000 A 
ATOM     16  C   UNL     1       5.464   4.269  16.792  0.00  0.00    +0.000 A 
ATOM     17  C   UNL     1       5.900   5.365  16.047  0.00  0.00    +0.000 A 
ATOM     18  C   UNL     1       5.263   6.602  16.154  0.00  0.00    +0.000 A 
ATOM     19  C   UNL     1       4.193   6.669  17.046  0.00  0.00    +0.000 A 
ATOM     20  N   UNL     1       3.615   7.749  17.657  0.00  0.00    +0.000 N 
ATOM     21  H   UNL     1       4.068   8.651  17.747  0.00  0.00    +0.000 HD
ENDBRANCH   4  12
BRANCH   1  22
ATOM     22  C   UNL     1      -0.599  11.156  18.483  0.00  0.00    +0.000 C 
BRANCH  22  24
ATOM     23  N   UNL     1      -2.896  12.091  18.711  0.00  0.00    +0.000 N 
ATOM     24  C   UNL     1      -2.148  10.945  18.488  0.00  0.00    +0.000 C 
ATOM     25  O   UNL     1      -2.637   9.817  18.428  0.00  0.00    +0.000 OA
ATOM     26  H   UNL     1      -2.446  12.783  19.292  0.00  0.00    +0.000 HD
BRANCH  23  34
ATOM     27  C   UNL     1      -4.221  12.622  21.280  0.00  0.00    +0.000 C 
ATOM     28  C   UNL     1      -4.963  12.326  20.004  0.00  0.00    +0.000 A 
ATOM     29  C   UNL     1      -6.367  12.256  20.043  0.00  0.00    +0.000 A 
ATOM     30  C   UNL     1      -7.095  11.915  18.905  0.00  0.00    +0.000 A 
ATOM     31  C   UNL     1      -6.438  11.648  17.700  0.00  0.00    +0.000 A 
ATOM     32  C   UNL     1      -5.038  11.730  17.633  0.00  0.00    +0.000 A 
ATOM     33  C   UNL     1      -4.372  11.513  16.297  0.00  0.00    +0.000 C 
ATOM     34  C   UNL     1      -4.302  12.071  18.783  0.00  0.00    +0.000 A 
ENDBRANCH  23  34
ENDBRANCH  22  24
BRANCH  22  35
ATOM     35  C   UNL     1      -0.289  12.566  18.996  0.00  0.00    +0.000 C 
ATOM     36  C   UNL     1       1.057  13.253  18.914  0.00  0.00    +0.000 C 
ATOM     37  C   UNL     1      -0.069  13.700  18.024  0.00  0.00    +0.000 C 
ENDBRANCH  22  35
ENDBRANCH   1  22
TORSDOF 5
ENDMDL
MODEL 3
REMARK VINA RESULT:      -8.5      1.133      2.009
REMARK  Name = 
REMARK  7 active torsions:
REMARK  status: ('A' for Active; 'I' for Inactive)
REMARK    1  A    between atoms: C_1  and  C_2
REMARK    2  A    between atoms: C_6  and  C_7
REMARK    3  A    between atoms: C_8  and  N_9
REMARK    4  A    between atoms: C_10  and  C_12
REMARK    5  A    between atoms: C_12  and  C_13
REMARK    6  A    between atoms: C_12  and  N_16
REMARK    7  A    between atoms: C_19  and  C_20
REMARK                            x       y       z     vdW  Elec       q    Type
REMARK                         _______ _______ _______ _____ _____    ______ ____
ROOT
ATOM      1  N   UNL     1       0.978  10.677  19.227  0.00  0.00    +0.000 N 
ATOM      2  C   UNL     1       1.893   9.791  18.667  0.00  0.00    +0.000 A 
ATOM      3  O   UNL     1       2.681  10.074  17.772  0.00  0.00    +0.000 OA
ATOM      4  C   UNL     1       1.863   8.368  19.211  0.00  0.00    +0.000 A 
ATOM      5  N   UNL     1       1.344   8.062  20.358  0.00  0.00    +0.000 NA
ATOM      6  C   UNL     1       0.733   9.096  21.083  0.00  0.00    +0.000 A 
ATOM      7  C   UNL     1       0.359   8.806  22.400  0.00  0.00    +0.000 A 
ATOM      8  C   UNL     1      -0.236   9.778  23.199  0.00  0.00    +0.000 A 
ATOM      9  C   UNL     1      -0.490  11.041  22.672  0.00  0.00    +0.000 A 
ATOM     10  C   UNL     1      -0.155  11.335  21.346  0.00  0.00    +0.000 A 
ATOM     11  C   UNL     1       0.476  10.378  20.537  0.00  0.00    +0.000 A 
ENDROOT
BRANCH   4  12
ATOM     12  C   UNL     1       2.473   7.363  18.376  0.00  0.00    +0.000 A 
ATOM     13  C   UNL     1       2.081   6.060  18.135  0.00  0.00    +0.000 A 
ATOM     14  C   UNL     1       3.215   5.391  17.601  0.00  0.00    +0.000 A 
ATOM     15  C   UNL     1       3.626   4.052  17.500  0.00  0.00    +0.000 A 
ATOM     16  C   UNL     1       4.828   3.768  16.843  0.00  0.00    +0.000 A 
ATOM     17  C   UNL     1       5.535   4.770  16.177  0.00  0.00    +0.000 A 
ATOM     18  C   UNL     1       5.163   6.109  16.295  0.00  0.00    +0.000 A 
ATOM     19  C   UNL     1       4.068   6.374  17.116  0.00  0.00    +0.000 A 
ATOM     20  N   UNL     1       3.682   7.533  17.733  0.00  0.00    +0.000 N 
ATOM     21  H   UNL     1       4.304   8.317  17.892  0.00  0.00    +0.000 HD
ENDBRANCH   4  12
BRANCH   1  22
ATOM     22  C   UNL     1       0.812  11.979  18.552  0.00  0.00    +0.000 C 
BRANCH  22  24
ATOM     23  N   UNL     1      -1.585  11.355  18.298  0.00  0.00    +0.000 N 
ATOM     24  C   UNL     1      -0.682  12.404  18.366  0.00  0.00    +0.000 C 
ATOM     25  O   UNL     1      -0.989  13.579  18.167  0.00  0.00    +0.000 OA
ATOM     26  H   UNL     1      -1.215  10.503  17.901  0.00  0.00    +0.000 HD
BRANCH  23  34
ATOM     27  C   UNL     1      -3.223  12.439  20.485  0.00  0.00    +0.000 C 
ATOM     28  C   UNL     1      -3.772  12.081  19.129  0.00  0.00    +0.000 A 
ATOM     29  C   UNL     1      -5.151  12.231  18.901  0.00  0.00    +0.000 A 
ATOM     30  C   UNL     1      -5.719  11.847  17.688  0.00  0.00    +0.000 A 
ATOM     31  C   UNL     1      -4.919  11.316  16.671  0.00  0.00    +0.000 A 
ATOM     32  C   UNL     1      -3.537  11.174  16.870  0.00  0.00    +0.000 A 
ATOM     33  C   UNL     1      -2.697  10.672  15.722  0.00  0.00    +0.000 C 
ATOM     34  C   UNL     1      -2.964  11.559  18.096  0.00  0.00    +0.000 A 
ENDBRANCH  23  34
ENDBRANCH  22  24
BRANCH  22  35
ATOM     35  C   UNL     1       1.559  13.102  19.279  0.00  0.00    +0.000 C 
ATOM     36  C   UNL     1       3.002  13.491  19.043  0.00  0.00    +0.000 C 
ATOM     37  C   UNL     1       1.896  14.386  18.559  0.00  0.00    +0.000 C 
ENDBRANCH  22  35
ENDBRANCH   1  22
TORSDOF 5
ENDMDL
MODEL 4
REMARK VINA RESULT:      -8.4      1.116      1.387
REMARK  Name = 
REMARK  7 active torsions:
REMARK  status: ('A' for Active; 'I' for Inactive)
REMARK    1  A    between atoms: C_1  and  C_2
REMARK    2  A    between atoms: C_6  and  C_7
REMARK    3  A    between atoms: C_8  and  N_9
REMARK    4  A    between atoms: C_10  and  C_12
REMARK    5  A    between atoms: C_12  and  C_13
REMARK    6  A    between atoms: C_12  and  N_16
REMARK    7  A    between atoms: C_19  and  C_20
REMARK                            x       y       z     vdW  Elec       q    Type
REMARK                         _______ _______ _______ _____ _____    ______ ____
ROOT
ATOM      1  N   UNL     1       0.932  10.727  19.372  0.00  0.00    +0.000 N 
ATOM      2  C   UNL     1       1.856   9.858  18.799  0.00  0.00    +0.000 A 
ATOM      3  O   UNL     1       2.654  10.169  17.922  0.00  0.00    +0.000 OA
ATOM      4  C   UNL     1       1.822   8.420  19.302  0.00  0.00    +0.000 A 
ATOM      5  N   UNL     1       1.289   8.081  20.432  0.00  0.00    +0.000 NA
ATOM      6  C   UNL     1       0.666   9.093  21.179  0.00  0.00    +0.000 A 
ATOM      7  C   UNL     1       0.276   8.765  22.482  0.00  0.00    +0.000 A 
ATOM      8  C   UNL     1      -0.330   9.712  23.301  0.00  0.00    +0.000 A 
ATOM      9  C   UNL     1      -0.580  10.989  22.808  0.00  0.00    +0.000 A 
ATOM     10  C   UNL     1      -0.229  11.321  21.494  0.00  0.00    +0.000 A 
ATOM     11  C   UNL     1       0.414  10.389  20.667  0.00  0.00    +0.000 A 
ENDROOT
BRANCH   4  12
ATOM     12  C   UNL     1       2.445   7.441  18.446  0.00  0.00    +0.000 A 
ATOM     13  C   UNL     1       2.100   6.121  18.220  0.00  0.00    +0.000 A 
ATOM     14  C   UNL     1       3.242   5.501  17.646  0.00  0.00    +0.000 A 
ATOM     15  C   UNL     1       3.707   4.181  17.532  0.00  0.00    +0.000 A 
ATOM     16  C   UNL     1       4.896   3.947  16.832  0.00  0.00    +0.000 A 
ATOM     17  C   UNL     1       5.535   4.977  16.140  0.00  0.00    +0.000 A 
ATOM     18  C   UNL     1       5.110   6.299  16.271  0.00  0.00    +0.000 A 
ATOM     19  C   UNL     1       4.034   6.518  17.130  0.00  0.00    +0.000 A 
ATOM     20  N   UNL     1       3.621   7.661  17.761  0.00  0.00    +0.000 N 
ATOM     21  H   UNL     1       4.214   8.471  17.896  0.00  0.00    +0.000 HD
ENDBRANCH   4  12
BRANCH   1  22
ATOM     22  C   UNL     1       0.772  12.048  18.733  0.00  0.00    +0.000 C 
BRANCH  22  24
ATOM     23  N   UNL     1      -1.607  11.346  18.507  0.00  0.00    +0.000 N 
ATOM     24  C   UNL     1      -0.710  12.394  18.372  0.00  0.00    +0.000 C 
ATOM     25  O   UNL     1      -1.008  13.484  17.884  0.00  0.00    +0.000 OA
ATOM     26  H   UNL     1      -1.215  10.430  18.343  0.00  0.00    +0.000 HD
BRANCH  23  34
ATOM     27  C   UNL     1      -2.574  10.456  15.877  0.00  0.00    +0.000 C 
ATOM     28  C   UNL     1      -3.463  11.055  16.934  0.00  0.00    +0.000 A 
ATOM     29  C   UNL     1      -4.825  11.242  16.641  0.00  0.00    +0.000 A 
ATOM     30  C   UNL     1      -5.674  11.858  17.558  0.00  0.00    +0.000 A 
ATOM     31  C   UNL     1      -5.183  12.290  18.794  0.00  0.00    +0.000 A 
ATOM     32  C   UNL     1      -3.831  12.097  19.116  0.00  0.00    +0.000 A 
ATOM     33  C   UNL     1      -3.358  12.504  20.490  0.00  0.00    +0.000 C 
ATOM     34  C   UNL     1      -2.973  11.477  18.189  0.00  0.00    +0.000 A 
ENDBRANCH  23  34
ENDBRANCH  22  24
BRANCH  22  35
ATOM     35  C   UNL     1       1.350  13.176  19.594  0.00  0.00    +0.000 C 
ATOM     36  C   UNL     1       2.822  13.462  19.791  0.00  0.00    +0.000 C 
ATOM     37  C   UNL     1       1.987  14.381  18.944  0.00  0.00    +0.000 C 
ENDBRANCH  22  35
ENDBRANCH   1  22
TORSDOF 5
ENDMDL
MODEL 5
REMARK VINA RESULT:      -8.4      2.258      5.168
REMARK  Name = 
REMARK  7 active torsions:
REMARK  status: ('A' for Active; 'I' for Inactive)
REMARK    1  A    between atoms: C_1  and  C_2
REMARK    2  A    between atoms: C_6  and  C_7
REMARK    3  A    between atoms: C_8  and  N_9
REMARK    4  A    between atoms: C_10  and  C_12
REMARK    5  A    between atoms: C_12  and  C_13
REMARK    6  A    between atoms: C_12  and  N_16
REMARK    7  A    between atoms: C_19  and  C_20
REMARK                            x       y       z     vdW  Elec       q    Type
REMARK                         _______ _______ _______ _____ _____    ______ ____
ROOT
ATOM      1  N   UNL     1       0.071  10.919  19.993  0.00  0.00    +0.000 N 
ATOM      2  C   UNL     1       0.893   9.797  20.013  0.00  0.00    +0.000 A 
ATOM      3  O   UNL     1       1.534   9.418  20.987  0.00  0.00    +0.000 OA
ATOM      4  C   UNL     1       1.003   9.026  18.703  0.00  0.00    +0.000 A 
ATOM      5  N   UNL     1       0.127   9.122  17.753  0.00  0.00    +0.000 NA
ATOM      6  C   UNL     1      -0.927  10.030  17.939  0.00  0.00    +0.000 A 
ATOM      7  C   UNL     1      -1.972   9.980  17.010  0.00  0.00    +0.000 A 
ATOM      8  C   UNL     1      -3.067  10.831  17.128  0.00  0.00    +0.000 A 
ATOM      9  C   UNL     1      -3.107  11.761  18.162  0.00  0.00    +0.000 A 
ATOM     10  C   UNL     1      -2.052  11.848  19.077  0.00  0.00    +0.000 A 
ATOM     11  C   UNL     1      -0.957  10.975  18.993  0.00  0.00    +0.000 A 
ENDROOT
BRANCH   4  12
ATOM     12  C   UNL     1       2.143   8.152  18.582  0.00  0.00    +0.000 A 
ATOM     13  C   UNL     1       3.148   8.141  17.633  0.00  0.00    +0.000 A 
ATOM     14  C   UNL     1       3.766   6.864  17.716  0.00  0.00    +0.000 A 
ATOM     15  C   UNL     1       4.542   6.074  16.853  0.00  0.00    +0.000 A 
ATOM     16  C   UNL     1       5.027   4.848  17.322  0.00  0.00    +0.000 A 
ATOM     17  C   UNL     1       4.868   4.477  18.658  0.00  0.00    +0.000 A 
ATOM     18  C   UNL     1       4.071   5.230  19.520  0.00  0.00    +0.000 A 
ATOM     19  C   UNL     1       3.448   6.347  18.966  0.00  0.00    +0.000 A 
ATOM     20  N   UNL     1       2.356   7.054  19.389  0.00  0.00    +0.000 N 
ATOM     21  H   UNL     1       1.674   6.692  20.046  0.00  0.00    +0.000 HD
ENDBRANCH   4  12
BRANCH   1  22
ATOM     22  C   UNL     1       0.143  11.819  21.161  0.00  0.00    +0.000 C 
BRANCH  22  24
ATOM     23  N   UNL     1       0.554  13.680  19.557  0.00  0.00    +0.000 N 
ATOM     24  C   UNL     1       0.783  13.210  20.841  0.00  0.00    +0.000 C 
ATOM     25  O   UNL     1       1.536  13.763  21.642  0.00  0.00    +0.000 OA
ATOM     26  H   UNL     1       0.454  12.961  18.856  0.00  0.00    +0.000 HD
BRANCH  23  34
ATOM     27  C   UNL     1      -1.011  16.151  19.849  0.00  0.00    +0.000 C 
ATOM     28  C   UNL     1       0.358  16.099  19.225  0.00  0.00    +0.000 A 
ATOM     29  C   UNL     1       0.909  17.286  18.712  0.00  0.00    +0.000 A 
ATOM     30  C   UNL     1       2.142  17.278  18.061  0.00  0.00    +0.000 A 
ATOM     31  C   UNL     1       2.856  16.084  17.919  0.00  0.00    +0.000 A 
ATOM     32  C   UNL     1       2.334  14.890  18.440  0.00  0.00    +0.000 A 
ATOM     33  C   UNL     1       3.171  13.639  18.336  0.00  0.00    +0.000 C 
ATOM     34  C   UNL     1       1.088  14.898  19.094  0.00  0.00    +0.000 A 
ENDBRANCH  23  34
ENDBRANCH  22  24
BRANCH  22  35
ATOM     35  C   UNL     1      -1.231  12.041  21.800  0.00  0.00    +0.000 C 
ATOM     36  C   UNL     1      -1.720  11.390  23.076  0.00  0.00    +0.000 C 
ATOM     37  C   UNL     1      -1.361  12.849  23.069  0.00  0.00    +0.000 C 
ENDBRANCH  22  35
ENDBRANCH   1  22
TORSDOF 5
ENDMDL
MODEL 6
REMARK VINA RESULT:      -8.3      2.280      5.075
REMARK  Name = 
REMARK  7 active torsions:
REMARK  status: ('A' for Active; 'I' for Inactive)
REMARK    1  A    between atoms: C_1  and  C_2
REMARK    2  A    between atoms: C_6  and  C_7
REMARK    3  A    between atoms: C_8  and  N_9
REMARK    4  A    between atoms: C_10  and  C_12
REMARK    5  A    between atoms: C_12  and  C_13
REMARK    6  A    between atoms: C_12  and  N_16
REMARK    7  A    between atoms: C_19  and  C_20
REMARK                            x       y       z     vdW  Elec       q    Type
REMARK                         _______ _______ _______ _____ _____    ______ ____
ROOT
ATOM      1  N   UNL     1       0.012  10.940  20.014  0.00  0.00    +0.000 N 
ATOM      2  C   UNL     1       0.842   9.824  20.030  0.00  0.00    +0.000 A 
ATOM      3  O   UNL     1       1.486   9.447  21.004  0.00  0.00    +0.000 OA
ATOM      4  C   UNL     1       0.957   9.057  18.719  0.00  0.00    +0.000 A 
ATOM      5  N   UNL     1       0.081   9.149  17.769  0.00  0.00    +0.000 NA
ATOM      6  C   UNL     1      -0.980  10.048  17.957  0.00  0.00    +0.000 A 
ATOM      7  C   UNL     1      -2.024   9.993  17.028  0.00  0.00    +0.000 A 
ATOM      8  C   UNL     1      -3.126  10.835  17.148  0.00  0.00    +0.000 A 
ATOM      9  C   UNL     1      -3.172  11.763  18.184  0.00  0.00    +0.000 A 
ATOM     10  C   UNL     1      -2.118  11.856  19.100  0.00  0.00    +0.000 A 
ATOM     11  C   UNL     1      -1.017  10.991  19.014  0.00  0.00    +0.000 A 
ENDROOT
BRANCH   4  12
ATOM     12  C   UNL     1       2.104   8.192  18.596  0.00  0.00    +0.000 A 
ATOM     13  C   UNL     1       3.105   8.185  17.642  0.00  0.00    +0.000 A 
ATOM     14  C   UNL     1       3.733   6.914  17.728  0.00  0.00    +0.000 A 
ATOM     15  C   UNL     1       4.511   6.127  16.864  0.00  0.00    +0.000 A 
ATOM     16  C   UNL     1       5.009   4.906  17.335  0.00  0.00    +0.000 A 
ATOM     17  C   UNL     1       4.859   4.539  18.673  0.00  0.00    +0.000 A 
ATOM     18  C   UNL     1       4.061   5.289  19.537  0.00  0.00    +0.000 A 
ATOM     19  C   UNL     1       3.426   6.399  18.981  0.00  0.00    +0.000 A 
ATOM     20  N   UNL     1       2.329   7.099  19.407  0.00  0.00    +0.000 N 
ATOM     21  H   UNL     1       1.654   6.734  20.068  0.00  0.00    +0.000 HD
ENDBRANCH   4  12
BRANCH   1  22
ATOM     22  C   UNL     1       0.077  11.838  21.183  0.00  0.00    +0.000 C 
BRANCH  22  24
ATOM     23  N   UNL     1       0.453  13.721  19.598  0.00  0.00    +0.000 N 
ATOM     24  C   UNL     1       0.712  13.232  20.869  0.00  0.00    +0.000 C 
ATOM     25  O   UNL     1       1.486  13.771  21.659  0.00  0.00    +0.000 OA
ATOM     26  H   UNL     1       0.334  13.013  18.888  0.00  0.00    +0.000 HD
BRANCH  23  34
ATOM     27  C   UNL     1       3.106  13.773  18.332  0.00  0.00    +0.000 C 
ATOM     28  C   UNL     1       2.250  14.996  18.526  0.00  0.00    +0.000 A 
ATOM     29  C   UNL     1       2.756  16.244  18.121  0.00  0.00    +0.000 A 
ATOM     30  C   UNL     1       2.033  17.414  18.343  0.00  0.00    +0.000 A 
ATOM     31  C   UNL     1       0.782  17.362  18.965  0.00  0.00    +0.000 A 
ATOM     32  C   UNL     1       0.248  16.126  19.362  0.00  0.00    +0.000 A 
ATOM     33  C   UNL     1      -1.138  16.104  19.957  0.00  0.00    +0.000 C 
ATOM     34  C   UNL     1       0.979  14.945  19.140  0.00  0.00    +0.000 A 
ENDBRANCH  23  34
ENDBRANCH  22  24
BRANCH  22  35
ATOM     35  C   UNL     1      -1.300  12.053  21.819  0.00  0.00    +0.000 C 
ATOM     36  C   UNL     1      -1.774  11.433  23.116  0.00  0.00    +0.000 C 
ATOM     37  C   UNL     1      -1.442  12.898  23.063  0.00  0.00    +0.000 C 
ENDBRANCH  22  35
ENDBRANCH   1  22
TORSDOF 5
ENDMDL
MODEL 7
REMARK VINA RESULT:      -8.3      2.023      4.293
REMARK  Name = 
REMARK  7 active torsions:
REMARK  status: ('A' for Active; 'I' for Inactive)
REMARK    1  A    between atoms: C_1  and  C_2
REMARK    2  A    between atoms: C_6  and  C_7
REMARK    3  A    between atoms: C_8  and  N_9
REMARK    4  A    between atoms: C_10  and  C_12
REMARK    5  A    between atoms: C_12  and  C_13
REMARK    6  A    between atoms: C_12  and  N_16
REMARK    7  A    between atoms: C_19  and  C_20
REMARK                            x       y       z     vdW  Elec       q    Type
REMARK                         _______ _______ _______ _____ _____    ______ ____
ROOT
ATOM      1  N   UNL     1      -0.197  10.015  19.472  0.00  0.00    +0.000 N 
ATOM      2  C   UNL     1       0.855   9.463  18.746  0.00  0.00    +0.000 A 
ATOM      3  O   UNL     1       1.196   9.827  17.627  0.00  0.00    +0.000 OA
ATOM      4  C   UNL     1       1.591   8.306  19.411  0.00  0.00    +0.000 A 
ATOM      5  N   UNL     1       1.551   8.086  20.687  0.00  0.00    +0.000 NA
ATOM      6  C   UNL     1       0.735   8.926  21.461  0.00  0.00    +0.000 A 
ATOM      7  C   UNL     1       0.854   8.815  22.850  0.00  0.00    +0.000 A 
ATOM      8  C   UNL     1       0.099   9.623  23.694  0.00  0.00    +0.000 A 
ATOM      9  C   UNL     1      -0.807  10.528  23.149  0.00  0.00    +0.000 A 
ATOM     10  C   UNL     1      -0.964  10.625  21.763  0.00  0.00    +0.000 A 
ATOM     11  C   UNL     1      -0.186   9.843  20.897  0.00  0.00    +0.000 A 
ENDROOT
BRANCH   4  12
ATOM     12  C   UNL     1       2.366   7.467  18.532  0.00  0.00    +0.000 A 
ATOM     13  C   UNL     1       2.263   6.109  18.292  0.00  0.00    +0.000 A 
ATOM     14  C   UNL     1       3.488   5.713  17.692  0.00  0.00    +0.000 A 
ATOM     15  C   UNL     1       4.183   4.501  17.551  0.00  0.00    +0.000 A 
ATOM     16  C   UNL     1       5.382   4.496  16.830  0.00  0.00    +0.000 A 
ATOM     17  C   UNL     1       5.812   5.633  16.144  0.00  0.00    +0.000 A 
ATOM     18  C   UNL     1       5.155   6.854  16.300  0.00  0.00    +0.000 A 
ATOM     19  C   UNL     1       4.073   6.864  17.179  0.00  0.00    +0.000 A 
ATOM     20  N   UNL     1       3.471   7.905  17.832  0.00  0.00    +0.000 N 
ATOM     21  H   UNL     1       3.909   8.808  17.971  0.00  0.00    +0.000 HD
ENDBRANCH   4  12
BRANCH   1  22
ATOM     22  C   UNL     1      -1.079  10.957  18.757  0.00  0.00    +0.000 C 
BRANCH  22  24
ATOM     23  N   UNL     1       0.570  12.733  19.332  0.00  0.00    +0.000 N 
ATOM     24  C   UNL     1      -0.397  12.325  18.426  0.00  0.00    +0.000 C 
ATOM     25  O   UNL     1      -0.799  13.029  17.500  0.00  0.00    +0.000 OA
ATOM     26  H   UNL     1       0.418  12.424  20.281  0.00  0.00    +0.000 HD
BRANCH  23  34
ATOM     27  C   UNL     1      -0.546  15.154  20.570  0.00  0.00    +0.000 C 
ATOM     28  C   UNL     1       0.742  15.133  19.791  0.00  0.00    +0.000 A 
ATOM     29  C   UNL     1       1.435  16.342  19.603  0.00  0.00    +0.000 A 
ATOM     30  C   UNL     1       2.593  16.388  18.830  0.00  0.00    +0.000 A 
ATOM     31  C   UNL     1       3.091  15.225  18.236  0.00  0.00    +0.000 A 
ATOM     32  C   UNL     1       2.426  14.003  18.424  0.00  0.00    +0.000 A 
ATOM     33  C   UNL     1       3.039  12.757  17.833  0.00  0.00    +0.000 C 
ATOM     34  C   UNL     1       1.256  13.957  19.203  0.00  0.00    +0.000 A 
ENDBRANCH  23  34
ENDBRANCH  22  24
BRANCH  22  35
ATOM     35  C   UNL     1      -1.634  10.354  17.463  0.00  0.00    +0.000 C 
ATOM     36  C   UNL     1      -2.948   9.615  17.333  0.00  0.00    +0.000 C 
ATOM     37  C   UNL     1      -2.807  10.999  16.763  0.00  0.00    +0.000 C 
ENDBRANCH  22  35
ENDBRANCH   1  22
TORSDOF 5
ENDMDL
MODEL 8
REMARK VINA RESULT:      -8.2      1.696      2.440
REMARK  Name = 
REMARK  7 active torsions:
REMARK  status: ('A' for Active; 'I' for Inactive)
REMARK    1  A    between atoms: C_1  and  C_2
REMARK    2  A    between atoms: C_6  and  C_7
REMARK    3  A    between atoms: C_8  and  N_9
REMARK    4  A    between atoms: C_10  and  C_12
REMARK    5  A    between atoms: C_12  and  C_13
REMARK    6  A    between atoms: C_12  and  N_16
REMARK    7  A    between atoms: C_19  and  C_20
REMARK                            x       y       z     vdW  Elec       q    Type
REMARK                         _______ _______ _______ _____ _____    ______ ____
ROOT
ATOM      1  N   UNL     1       0.881  10.428  19.492  0.00  0.00    +0.000 N 
ATOM      2  C   UNL     1       1.778   9.419  19.155  0.00  0.00    +0.000 A 
ATOM      3  O   UNL     1       2.639   9.512  18.287  0.00  0.00    +0.000 OA
ATOM      4  C   UNL     1       1.629   8.109  19.920  0.00  0.00    +0.000 A 
ATOM      5  N   UNL     1       1.017   8.024  21.058  0.00  0.00    +0.000 NA
ATOM      6  C   UNL     1       0.421   9.192  21.558  0.00  0.00    +0.000 A 
ATOM      7  C   UNL     1      -0.056   9.143  22.872  0.00  0.00    +0.000 A 
ATOM      8  C   UNL     1      -0.644  10.261  23.456  0.00  0.00    +0.000 A 
ATOM      9  C   UNL     1      -0.788  11.429  22.713  0.00  0.00    +0.000 A 
ATOM     10  C   UNL     1      -0.349  11.482  21.385  0.00  0.00    +0.000 A 
ATOM     11  C   UNL     1       0.277  10.376  20.793  0.00  0.00    +0.000 A 
ENDROOT
BRANCH   4  12
ATOM     12  C   UNL     1       2.233   6.952  19.307  0.00  0.00    +0.000 A 
ATOM     13  C   UNL     1       2.002   6.391  18.065  0.00  0.00    +0.000 A 
ATOM     14  C   UNL     1       2.522   5.069  18.119  0.00  0.00    +0.000 A 
ATOM     15  C   UNL     1       2.302   3.882  17.403  0.00  0.00    +0.000 A 
ATOM     16  C   UNL     1       3.063   2.753  17.726  0.00  0.00    +0.000 A 
ATOM     17  C   UNL     1       4.115   2.835  18.640  0.00  0.00    +0.000 A 
ATOM     18  C   UNL     1       4.326   3.994  19.387  0.00  0.00    +0.000 A 
ATOM     19  C   UNL     1       3.427   5.038  19.173  0.00  0.00    +0.000 A 
ATOM     20  N   UNL     1       3.114   6.114  19.958  0.00  0.00    +0.000 N 
ATOM     21  H   UNL     1       3.314   6.160  20.951  0.00  0.00    +0.000 HD
ENDBRANCH   4  12
BRANCH   1  22
ATOM     22  C   UNL     1       0.838  11.606  18.604  0.00  0.00    +0.000 C 
BRANCH  22  24
ATOM     23  N   UNL     1      -1.593  11.132  18.342  0.00  0.00    +0.000 N 
ATOM     24  C   UNL     1      -0.612  12.111  18.303  0.00  0.00    +0.000 C 
ATOM     25  O   UNL     1      -0.819  13.266  17.932  0.00  0.00    +0.000 OA
ATOM     26  H   UNL     1      -1.280  10.209  18.081  0.00  0.00    +0.000 HD
BRANCH  23  34
ATOM     27  C   UNL     1      -3.260  12.442  20.379  0.00  0.00    +0.000 C 
ATOM     28  C   UNL     1      -3.766  12.039  19.020  0.00  0.00    +0.000 A 
ATOM     29  C   UNL     1      -5.120  12.259  18.714  0.00  0.00    +0.000 A 
ATOM     30  C   UNL     1      -5.653  11.841  17.496  0.00  0.00    +0.000 A 
ATOM     31  C   UNL     1      -4.842  11.202  16.553  0.00  0.00    +0.000 A 
ATOM     32  C   UNL     1      -3.483  10.988  16.829  0.00  0.00    +0.000 A 
ATOM     33  C   UNL     1      -2.624  10.369  15.755  0.00  0.00    +0.000 C 
ATOM     34  C   UNL     1      -2.945  11.409  18.060  0.00  0.00    +0.000 A 
ENDBRANCH  23  34
ENDBRANCH  22  24
BRANCH  22  35
ATOM     35  C   UNL     1       1.663  12.773  19.157  0.00  0.00    +0.000 C 
ATOM     36  C   UNL     1       3.020  13.207  18.645  0.00  0.00    +0.000 C 
ATOM     37  C   UNL     1       1.807  14.049  18.362  0.00  0.00    +0.000 C 
ENDBRANCH  22  35
ENDBRANCH   1  22
TORSDOF 5
ENDMDL
MODEL 9
REMARK VINA RESULT:      -8.2      1.983      4.054
REMARK  Name = 
REMARK  7 active torsions:
REMARK  status: ('A' for Active; 'I' for Inactive)
REMARK    1  A    between atoms: C_1  and  C_2
REMARK    2  A    between atoms: C_6  and  C_7
REMARK    3  A    between atoms: C_8  and  N_9
REMARK    4  A    between atoms: C_10  and  C_12
REMARK    5  A    between atoms: C_12  and  C_13
REMARK    6  A    between atoms: C_12  and  N_16
REMARK    7  A    between atoms: C_19  and  C_20
REMARK                            x       y       z     vdW  Elec       q    Type
REMARK                         _______ _______ _______ _____ _____    ______ ____
ROOT
ATOM      1  N   UNL     1      -0.252  10.038  19.476  0.00  0.00    +0.000 N 
ATOM      2  C   UNL     1       0.797   9.491  18.743  0.00  0.00    +0.000 A 
ATOM      3  O   UNL     1       1.124   9.852  17.618  0.00  0.00    +0.000 OA
ATOM      4  C   UNL     1       1.551   8.345  19.407  0.00  0.00    +0.000 A 
ATOM      5  N   UNL     1       1.526   8.131  20.684  0.00  0.00    +0.000 NA
ATOM      6  C   UNL     1       0.711   8.969  21.461  0.00  0.00    +0.000 A 
ATOM      7  C   UNL     1       0.846   8.867  22.849  0.00  0.00    +0.000 A 
ATOM      8  C   UNL     1       0.092   9.674  23.697  0.00  0.00    +0.000 A 
ATOM      9  C   UNL     1      -0.828  10.567  23.157  0.00  0.00    +0.000 A 
ATOM     10  C   UNL     1      -1.000  10.655  21.771  0.00  0.00    +0.000 A 
ATOM     11  C   UNL     1      -0.224   9.874  20.902  0.00  0.00    +0.000 A 
ENDROOT
BRANCH   4  12
ATOM     12  C   UNL     1       2.324   7.507  18.524  0.00  0.00    +0.000 A 
ATOM     13  C   UNL     1       2.231   6.147  18.293  0.00  0.00    +0.000 A 
ATOM     14  C   UNL     1       3.454   5.759  17.682  0.00  0.00    +0.000 A 
ATOM     15  C   UNL     1       4.158   4.553  17.541  0.00  0.00    +0.000 A 
ATOM     16  C   UNL     1       5.350   4.554  16.807  0.00  0.00    +0.000 A 
ATOM     17  C   UNL     1       5.761   5.691  16.110  0.00  0.00    +0.000 A 
ATOM     18  C   UNL     1       5.095   6.907  16.266  0.00  0.00    +0.000 A 
ATOM     19  C   UNL     1       4.022   6.912  17.156  0.00  0.00    +0.000 A 
ATOM     20  N   UNL     1       3.417   7.952  17.810  0.00  0.00    +0.000 N 
ATOM     21  H   UNL     1       3.849   8.859  17.938  0.00  0.00    +0.000 HD
ENDBRANCH   4  12
BRANCH   1  22
ATOM     22  C   UNL     1      -1.150  10.968  18.765  0.00  0.00    +0.000 C 
BRANCH  22  24
ATOM     23  N   UNL     1       0.284  12.894  19.424  0.00  0.00    +0.000 N 
ATOM     24  C   UNL     1      -0.482  12.337  18.412  0.00  0.00    +0.000 C 
ATOM     25  O   UNL     1      -0.738  12.917  17.357  0.00  0.00    +0.000 OA
ATOM     26  H   UNL     1      -0.025  12.673  20.359  0.00  0.00    +0.000 HD
BRANCH  23  34
ATOM     27  C   UNL     1       2.936  13.025  18.162  0.00  0.00    +0.000 C 
ATOM     28  C   UNL     1       2.198  14.231  18.681  0.00  0.00    +0.000 A 
ATOM     29  C   UNL     1       2.822  15.488  18.599  0.00  0.00    +0.000 A 
ATOM     30  C   UNL     1       2.211  16.623  19.128  0.00  0.00    +0.000 A 
ATOM     31  C   UNL     1       0.958  16.529  19.741  0.00  0.00    +0.000 A 
ATOM     32  C   UNL     1       0.308  15.287  19.817  0.00  0.00    +0.000 A 
ATOM     33  C   UNL     1      -1.077  15.241  20.414  0.00  0.00    +0.000 C 
ATOM     34  C   UNL     1       0.926  14.141  19.285  0.00  0.00    +0.000 A 
ENDBRANCH  23  34
ENDBRANCH  22  24
BRANCH  22  35
ATOM     35  C   UNL     1      -1.719  10.350  17.484  0.00  0.00    +0.000 C 
ATOM     36  C   UNL     1      -3.013   9.571  17.387  0.00  0.00    +0.000 C 
ATOM     37  C   UNL     1      -2.928  10.958  16.816  0.00  0.00    +0.000 C 
ENDBRANCH  22  35
ENDBRANCH   1  22
TORSDOF 5
ENDMDL
