MODEL 1
REMARK VINA RESULT:      -8.6      0.000      0.000
REMARK  Name = 
REMARK  4 active torsions:
REMARK  status: ('A' for Active; 'I' for Inactive)
REMARK    1  A    between atoms: C_1  and  C_2
REMARK    2  A    between atoms: C_5  and  C_6
REMARK    3  A    between atoms: C_9  and  C_10
REMARK    4  A    between atoms: C_15  and  C_16
REMARK                            x       y       z     vdW  Elec       q    Type
REMARK                         _______ _______ _______ _____ _____    ______ ____
ROOT
ATOM      1  C   UNL     1       1.810   7.941  20.051  0.00  0.00    +0.000 A 
ATOM      2  C   UNL     1       1.714   8.606  18.705  0.00  0.00    +0.000 A 
ATOM      3  C   UNL     1       1.147   9.820  18.705  0.00  0.00    +0.000 A 
ATOM      4  N   UNL     1       0.713  10.362  19.903  0.00  0.00    +0.000 N 
ATOM      5  C   UNL     1       0.108  11.565  20.145  0.00  0.00    +0.000 A 
ATOM      6  C   UNL     1      -0.100  11.604  21.509  0.00  0.00    +0.000 A 
ATOM      7  N   UNL     1       0.387  10.456  22.091  0.00  0.00    +0.000 NA
ATOM      8  C   UNL     1       0.851   9.700  21.117  0.00  0.00    +0.000 A 
ATOM      9  N   UNL     1       1.409   8.452  21.179  0.00  0.00    +0.000 NA
ENDROOT
BRANCH   1  18
ATOM     10  C   UNL     1       5.916   4.671  18.312  0.00  0.00    +0.000 C 
ATOM     11  C   UNL     1       4.787   4.132  19.145  0.00  0.00    +0.000 A 
ATOM     12  N   UNL     1       4.769   2.867  19.471  0.00  0.00    +0.000 NA
ATOM     13  C   UNL     1       3.719   2.409  20.244  0.00  0.00    +0.000 A 
ATOM     14  C   UNL     1       2.713   3.181  20.701  0.00  0.00    +0.000 A 
ATOM     15  C   UNL     1       1.590   2.663  21.540  0.00  0.00    +0.000 C 
ATOM     16  N   UNL     1       2.735   4.533  20.358  0.00  0.00    +0.000 N 
ATOM     17  N   UNL     1       1.881   5.538  20.665  0.00  0.00    +0.000 NA
ATOM     18  C   UNL     1       2.415   6.598  20.022  0.00  0.00    +0.000 A 
ATOM     19  N   UNL     1       3.582   6.304  19.340  0.00  0.00    +0.000 NA
ATOM     20  C   UNL     1       3.748   5.026  19.577  0.00  0.00    +0.000 A 
ENDBRANCH   1  18
BRANCH   6  21
ATOM     21  C   UNL     1      -0.707  12.713  22.241  0.00  0.00    +0.000 A 
ATOM     22  C   UNL     1      -1.913  12.485  22.938  0.00  0.00    +0.000 A 
ATOM     23  C   UNL     1      -2.555  13.508  23.644  0.00  0.00    +0.000 A 
ATOM     24  C   UNL     1      -2.007  14.784  23.668  0.00  0.00    +0.000 A 
ATOM     25  C   UNL     1      -0.813  15.033  22.992  0.00  0.00    +0.000 A 
ATOM     26  C   UNL     1      -0.161  14.010  22.284  0.00  0.00    +0.000 A 
ATOM     27 BR   UNL     1       1.488  14.502  21.470  0.00  0.00    +0.000 Br
ENDBRANCH   6  21
TORSDOF 2
ENDMDL
MODEL 2
REMARK VINA RESULT:      -8.3      1.343      1.487
REMARK  Name = 
REMARK  4 active torsions:
REMARK  status: ('A' for Active; 'I' for Inactive)
REMARK    1  A    between atoms: C_1  and  C_2
REMARK    2  A    between atoms: C_5  and  C_6
REMARK    3  A    between atoms: C_9  and  C_10
REMARK    4  A    between atoms: C_15  and  C_16
REMARK                            x       y       z     vdW  Elec       q    Type
REMARK                         _______ _______ _______ _____ _____    ______ ____
ROOT
ATOM      1  C   UNL     1       1.824   7.870  19.740  0.00  0.00    +0.000 A 
ATOM      2  C   UNL     1       2.021   8.582  18.430  0.00  0.00    +0.000 A 
ATOM      3  C   UNL     1       1.440   9.786  18.337  0.00  0.00    +0.000 A 
ATOM      4  N   UNL     1       0.732  10.277  19.421  0.00  0.00    +0.000 N 
ATOM      5  C   UNL     1       0.059  11.461  19.556  0.00  0.00    +0.000 A 
ATOM      6  C   UNL     1      -0.455  11.448  20.837  0.00  0.00    +0.000 A 
ATOM      7  N   UNL     1      -0.086  10.288  21.479  0.00  0.00    +0.000 NA
ATOM      8  C   UNL     1       0.606   9.574  20.614  0.00  0.00    +0.000 A 
ATOM      9  N   UNL     1       1.164   8.335  20.763  0.00  0.00    +0.000 NA
ENDROOT
BRANCH   1  18
ATOM     10  C   UNL     1       6.015   4.569  18.289  0.00  0.00    +0.000 C 
ATOM     11  C   UNL     1       4.880   4.065  19.134  0.00  0.00    +0.000 A 
ATOM     12  N   UNL     1       4.877   2.823  19.541  0.00  0.00    +0.000 NA
ATOM     13  C   UNL     1       3.820   2.396  20.323  0.00  0.00    +0.000 A 
ATOM     14  C   UNL     1       2.793   3.179  20.712  0.00  0.00    +0.000 A 
ATOM     15  C   UNL     1       1.663   2.696  21.562  0.00  0.00    +0.000 C 
ATOM     16  N   UNL     1       2.799   4.506  20.283  0.00  0.00    +0.000 N 
ATOM     17  N   UNL     1       1.924   5.513  20.509  0.00  0.00    +0.000 NA
ATOM     18  C   UNL     1       2.452   6.540  19.809  0.00  0.00    +0.000 A 
ATOM     19  N   UNL     1       3.636   6.222  19.168  0.00  0.00    +0.000 NA
ATOM     20  C   UNL     1       3.818   4.965  19.490  0.00  0.00    +0.000 A 
ENDBRANCH   1  18
BRANCH   6  21
ATOM     21  C   UNL     1      -1.239  12.520  21.445  0.00  0.00    +0.000 A 
ATOM     22  C   UNL     1      -0.707  13.195  22.565  0.00  0.00    +0.000 A 
ATOM     23  C   UNL     1      -1.413  14.219  23.206  0.00  0.00    +0.000 A 
ATOM     24  C   UNL     1      -2.669  14.590  22.742  0.00  0.00    +0.000 A 
ATOM     25  C   UNL     1      -3.212  13.943  21.634  0.00  0.00    +0.000 A 
ATOM     26  C   UNL     1      -2.508  12.916  20.984  0.00  0.00    +0.000 A 
ATOM     27 BR   UNL     1      -3.365  12.180  19.451  0.00  0.00    +0.000 Br
ENDBRANCH   6  21
TORSDOF 2
ENDMDL
MODEL 3
REMARK VINA RESULT:      -8.3      1.136      1.174
REMARK  Name = 
REMARK  4 active torsions:
REMARK  status: ('A' for Active; 'I' for Inactive)
REMARK    1  A    between atoms: C_1  and  C_2
REMARK    2  A    between atoms: C_5  and  C_6
REMARK    3  A    between atoms: C_9  and  C_10
REMARK    4  A    between atoms: C_15  and  C_16
REMARK                            x       y       z     vdW  Elec       q    Type
REMARK                         _______ _______ _______ _____ _____    ______ ____
ROOT
ATOM      1  C   UNL     1       1.931   7.916  19.389  0.00  0.00    +0.000 A 
ATOM      2  C   UNL     1       2.225   8.549  18.056  0.00  0.00    +0.000 A 
ATOM      3  C   UNL     1       1.671   9.753  17.857  0.00  0.00    +0.000 A 
ATOM      4  N   UNL     1       0.902  10.315  18.862  0.00  0.00    +0.000 N 
ATOM      5  C   UNL     1       0.242  11.513  18.885  0.00  0.00    +0.000 A 
ATOM      6  C   UNL     1      -0.355  11.580  20.128  0.00  0.00    +0.000 A 
ATOM      7  N   UNL     1      -0.048  10.454  20.857  0.00  0.00    +0.000 NA
ATOM      8  C   UNL     1       0.687   9.683  20.082  0.00  0.00    +0.000 A 
ATOM      9  N   UNL     1       1.213   8.447  20.337  0.00  0.00    +0.000 NA
ENDROOT
BRANCH   1  18
ATOM     10  C   UNL     1       6.111   4.455  18.334  0.00  0.00    +0.000 C 
ATOM     11  C   UNL     1       4.936   4.029  19.167  0.00  0.00    +0.000 A 
ATOM     12  N   UNL     1       4.894   2.819  19.659  0.00  0.00    +0.000 NA
ATOM     13  C   UNL     1       3.801   2.466  20.427  0.00  0.00    +0.000 A 
ATOM     14  C   UNL     1       2.775   3.290  20.720  0.00  0.00    +0.000 A 
ATOM     15  C   UNL     1       1.605   2.885  21.557  0.00  0.00    +0.000 C 
ATOM     16  N   UNL     1       2.821   4.583  20.201  0.00  0.00    +0.000 N 
ATOM     17  N   UNL     1       1.957   5.618  20.322  0.00  0.00    +0.000 NA
ATOM     18  C   UNL     1       2.530   6.584  19.574  0.00  0.00    +0.000 A 
ATOM     19  N   UNL     1       3.732   6.204  19.003  0.00  0.00    +0.000 NA
ATOM     20  C   UNL     1       3.878   4.970  19.418  0.00  0.00    +0.000 A 
ENDBRANCH   1  18
BRANCH   6  21
ATOM     21  C   UNL     1      -1.159  12.696  20.622  0.00  0.00    +0.000 A 
ATOM     22  C   UNL     1      -2.565  12.593  20.567  0.00  0.00    +0.000 A 
ATOM     23  C   UNL     1      -3.394  13.631  21.007  0.00  0.00    +0.000 A 
ATOM     24  C   UNL     1      -2.833  14.798  21.510  0.00  0.00    +0.000 A 
ATOM     25  C   UNL     1      -1.447  14.922  21.579  0.00  0.00    +0.000 A 
ATOM     26  C   UNL     1      -0.609  13.882  21.142  0.00  0.00    +0.000 A 
ATOM     27 BR   UNL     1       1.257  14.187  21.364  0.00  0.00    +0.000 Br
ENDBRANCH   6  21
TORSDOF 2
ENDMDL
MODEL 4
REMARK VINA RESULT:      -8.3      0.891      1.976
REMARK  Name = 
REMARK  4 active torsions:
REMARK  status: ('A' for Active; 'I' for Inactive)
REMARK    1  A    between atoms: C_1  and  C_2
REMARK    2  A    between atoms: C_5  and  C_6
REMARK    3  A    between atoms: C_9  and  C_10
REMARK    4  A    between atoms: C_15  and  C_16
REMARK                            x       y       z     vdW  Elec       q    Type
REMARK                         _______ _______ _______ _____ _____    ______ ____
ROOT
ATOM      1  C   UNL     1       1.850   7.996  19.487  0.00  0.00    +0.000 A 
ATOM      2  C   UNL     1       1.807   8.756  18.190  0.00  0.00    +0.000 A 
ATOM      3  C   UNL     1       1.330  10.005  18.272  0.00  0.00    +0.000 A 
ATOM      4  N   UNL     1       0.933  10.496  19.504  0.00  0.00    +0.000 N 
ATOM      5  C   UNL     1       0.417  11.721  19.828  0.00  0.00    +0.000 A 
ATOM      6  C   UNL     1       0.208  11.683  21.192  0.00  0.00    +0.000 A 
ATOM      7  N   UNL     1       0.609  10.466  21.695  0.00  0.00    +0.000 NA
ATOM      8  C   UNL     1       1.019   9.745  20.672  0.00  0.00    +0.000 A 
ATOM      9  N   UNL     1       1.484   8.459  20.648  0.00  0.00    +0.000 NA
ENDROOT
BRANCH   1  18
ATOM     10  C   UNL     1       2.210   2.917  21.641  0.00  0.00    +0.000 C 
ATOM     11  C   UNL     1       2.878   3.263  20.342  0.00  0.00    +0.000 A 
ATOM     12  N   UNL     1       3.559   2.351  19.699  0.00  0.00    +0.000 NA
ATOM     13  C   UNL     1       4.154   2.704  18.503  0.00  0.00    +0.000 A 
ATOM     14  C   UNL     1       4.070   3.926  17.939  0.00  0.00    +0.000 A 
ATOM     15  C   UNL     1       4.720   4.283  16.642  0.00  0.00    +0.000 C 
ATOM     16  N   UNL     1       3.340   4.898  18.621  0.00  0.00    +0.000 N 
ATOM     17  N   UNL     1       3.079   6.190  18.311  0.00  0.00    +0.000 NA
ATOM     18  C   UNL     1       2.356   6.618  19.367  0.00  0.00    +0.000 A 
ATOM     19  N   UNL     1       2.133   5.640  20.320  0.00  0.00    +0.000 NA
ATOM     20  C   UNL     1       2.748   4.596  19.821  0.00  0.00    +0.000 A 
ENDBRANCH   1  18
BRANCH   6  21
ATOM     21  C   UNL     1      -0.318  12.782  21.998  0.00  0.00    +0.000 A 
ATOM     22  C   UNL     1      -1.482  12.562  22.765  0.00  0.00    +0.000 A 
ATOM     23  C   UNL     1      -2.048  13.577  23.545  0.00  0.00    +0.000 A 
ATOM     24  C   UNL     1      -1.463  14.836  23.574  0.00  0.00    +0.000 A 
ATOM     25  C   UNL     1      -0.309  15.076  22.830  0.00  0.00    +0.000 A 
ATOM     26  C   UNL     1       0.267  14.061  22.047  0.00  0.00    +0.000 A 
ATOM     27 BR   UNL     1       1.873  14.538  21.144  0.00  0.00    +0.000 Br
ENDBRANCH   6  21
TORSDOF 2
ENDMDL
MODEL 5
REMARK VINA RESULT:      -8.2      1.436      2.478
REMARK  Name = 
REMARK  4 active torsions:
REMARK  status: ('A' for Active; 'I' for Inactive)
REMARK    1  A    between atoms: C_1  and  C_2
REMARK    2  A    between atoms: C_5  and  C_6
REMARK    3  A    between atoms: C_9  and  C_10
REMARK    4  A    between atoms: C_15  and  C_16
REMARK                            x       y       z     vdW  Elec       q    Type
REMARK                         _______ _______ _______ _____ _____    ______ ____
ROOT
ATOM      1  C   UNL     1       1.904   8.027  19.375  0.00  0.00    +0.000 A 
ATOM      2  C   UNL     1       1.847   8.725  18.043  0.00  0.00    +0.000 A 
ATOM      3  C   UNL     1       1.453  10.005  18.083  0.00  0.00    +0.000 A 
ATOM      4  N   UNL     1       1.147  10.579  19.305  0.00  0.00    +0.000 N 
ATOM      5  C   UNL     1       0.724  11.848  19.589  0.00  0.00    +0.000 A 
ATOM      6  C   UNL     1       0.578  11.890  20.961  0.00  0.00    +0.000 A 
ATOM      7  N   UNL     1       0.926  10.675  21.507  0.00  0.00    +0.000 NA
ATOM      8  C   UNL     1       1.242   9.880  20.504  0.00  0.00    +0.000 A 
ATOM      9  N   UNL     1       1.623   8.567  20.526  0.00  0.00    +0.000 NA
ENDROOT
BRANCH   1  18
ATOM     10  C   UNL     1       1.912   3.008  21.693  0.00  0.00    +0.000 C 
ATOM     11  C   UNL     1       2.608   3.266  20.388  0.00  0.00    +0.000 A 
ATOM     12  N   UNL     1       3.229   2.290  19.780  0.00  0.00    +0.000 NA
ATOM     13  C   UNL     1       3.852   2.563  18.577  0.00  0.00    +0.000 A 
ATOM     14  C   UNL     1       3.853   3.769  17.973  0.00  0.00    +0.000 A 
ATOM     15  C   UNL     1       4.531   4.039  16.669  0.00  0.00    +0.000 C 
ATOM     16  N   UNL     1       3.186   4.810  18.619  0.00  0.00    +0.000 N 
ATOM     17  N   UNL     1       3.015   6.105  18.265  0.00  0.00    +0.000 NA
ATOM     18  C   UNL     1       2.316   6.615  19.302  0.00  0.00    +0.000 A 
ATOM     19  N   UNL     1       2.024   5.685  20.285  0.00  0.00    +0.000 NA
ATOM     20  C   UNL     1       2.570   4.587  19.823  0.00  0.00    +0.000 A 
ENDBRANCH   1  18
BRANCH   6  21
ATOM     21  C   UNL     1       0.161  13.058  21.734  0.00  0.00    +0.000 A 
ATOM     22  C   UNL     1       0.829  14.282  21.523  0.00  0.00    +0.000 A 
ATOM     23  C   UNL     1       0.491  15.434  22.242  0.00  0.00    +0.000 A 
ATOM     24  C   UNL     1      -0.522  15.387  23.190  0.00  0.00    +0.000 A 
ATOM     25  C   UNL     1      -1.202  14.190  23.412  0.00  0.00    +0.000 A 
ATOM     26  C   UNL     1      -0.870  13.030  22.691  0.00  0.00    +0.000 A 
ATOM     27 BR   UNL     1      -1.935  11.499  23.071  0.00  0.00    +0.000 Br
ENDBRANCH   6  21
TORSDOF 2
ENDMDL
MODEL 6
REMARK VINA RESULT:      -8.1      1.167      1.373
REMARK  Name = 
REMARK  4 active torsions:
REMARK  status: ('A' for Active; 'I' for Inactive)
REMARK    1  A    between atoms: C_1  and  C_2
REMARK    2  A    between atoms: C_5  and  C_6
REMARK    3  A    between atoms: C_9  and  C_10
REMARK    4  A    between atoms: C_15  and  C_16
REMARK                            x       y       z     vdW  Elec       q    Type
REMARK                         _______ _______ _______ _____ _____    ______ ____
ROOT
ATOM      1  C   UNL     1       1.594   8.495  19.257  0.00  0.00    +0.000 A 
ATOM      2  C   UNL     1       1.213   9.288  18.037  0.00  0.00    +0.000 A 
ATOM      3  C   UNL     1       0.468  10.378  18.270  0.00  0.00    +0.000 A 
ATOM      4  N   UNL     1       0.124  10.693  19.573  0.00  0.00    +0.000 N 
ATOM      5  C   UNL     1      -0.622  11.737  20.047  0.00  0.00    +0.000 A 
ATOM      6  C   UNL     1      -0.645  11.579  21.419  0.00  0.00    +0.000 A 
ATOM      7  N   UNL     1       0.090  10.472  21.776  0.00  0.00    +0.000 NA
ATOM      8  C   UNL     1       0.528   9.926  20.660  0.00  0.00    +0.000 A 
ATOM      9  N   UNL     1       1.276   8.795  20.484  0.00  0.00    +0.000 NA
ENDROOT
BRANCH   1  18
ATOM     10  C   UNL     1       5.364   5.992  16.081  0.00  0.00    +0.000 C 
ATOM     11  C   UNL     1       4.722   5.282  17.238  0.00  0.00    +0.000 A 
ATOM     12  N   UNL     1       5.057   4.048  17.508  0.00  0.00    +0.000 NA
ATOM     13  C   UNL     1       4.450   3.429  18.585  0.00  0.00    +0.000 A 
ATOM     14  C   UNL     1       3.543   4.015  19.391  0.00  0.00    +0.000 A 
ATOM     15  C   UNL     1       2.903   3.326  20.553  0.00  0.00    +0.000 C 
ATOM     16  N   UNL     1       3.189   5.334  19.107  0.00  0.00    +0.000 N 
ATOM     17  N   UNL     1       2.325   6.172  19.727  0.00  0.00    +0.000 NA
ATOM     18  C   UNL     1       2.391   7.290  18.974  0.00  0.00    +0.000 A 
ATOM     19  N   UNL     1       3.278   7.195  17.916  0.00  0.00    +0.000 NA
ATOM     20  C   UNL     1       3.752   5.979  18.038  0.00  0.00    +0.000 A 
ENDBRANCH   1  18
BRANCH   6  21
ATOM     21  C   UNL     1      -1.311  12.474  22.363  0.00  0.00    +0.000 A 
ATOM     22  C   UNL     1      -2.476  12.022  23.017  0.00  0.00    +0.000 A 
ATOM     23  C   UNL     1      -3.172  12.835  23.919  0.00  0.00    +0.000 A 
ATOM     24  C   UNL     1      -2.719  14.120  24.185  0.00  0.00    +0.000 A 
ATOM     25  C   UNL     1      -1.566  14.587  23.556  0.00  0.00    +0.000 A 
ATOM     26  C   UNL     1      -0.861  13.776  22.651  0.00  0.00    +0.000 A 
ATOM     27 BR   UNL     1       0.724  14.544  21.928  0.00  0.00    +0.000 Br
ENDBRANCH   6  21
TORSDOF 2
ENDMDL
MODEL 7
REMARK VINA RESULT:      -8.1      1.386      2.399
REMARK  Name = 
REMARK  4 active torsions:
REMARK  status: ('A' for Active; 'I' for Inactive)
REMARK    1  A    between atoms: C_1  and  C_2
REMARK    2  A    between atoms: C_5  and  C_6
REMARK    3  A    between atoms: C_9  and  C_10
REMARK    4  A    between atoms: C_15  and  C_16
REMARK                            x       y       z     vdW  Elec       q    Type
REMARK                         _______ _______ _______ _____ _____    ______ ____
ROOT
ATOM      1  C   UNL     1       1.681   7.974  19.858  0.00  0.00    +0.000 A 
ATOM      2  C   UNL     1       1.899   8.745  18.585  0.00  0.00    +0.000 A 
ATOM      3  C   UNL     1       1.328   9.957  18.544  0.00  0.00    +0.000 A 
ATOM      4  N   UNL     1       0.614  10.403  19.643  0.00  0.00    +0.000 N 
ATOM      5  C   UNL     1      -0.051  11.585  19.827  0.00  0.00    +0.000 A 
ATOM      6  C   UNL     1      -0.578  11.516  21.101  0.00  0.00    +0.000 A 
ATOM      7  N   UNL     1      -0.226  10.323  21.690  0.00  0.00    +0.000 NA
ATOM      8  C   UNL     1       0.469   9.645  20.800  0.00  0.00    +0.000 A 
ATOM      9  N   UNL     1       1.015   8.395  20.895  0.00  0.00    +0.000 NA
ENDROOT
BRANCH   1  18
ATOM     10  C   UNL     1       1.526   2.743  21.643  0.00  0.00    +0.000 C 
ATOM     11  C   UNL     1       2.636   3.234  20.758  0.00  0.00    +0.000 A 
ATOM     12  N   UNL     1       3.587   2.414  20.396  0.00  0.00    +0.000 NA
ATOM     13  C   UNL     1       4.588   2.899  19.576  0.00  0.00    +0.000 A 
ATOM     14  C   UNL     1       4.647   4.161  19.106  0.00  0.00    +0.000 A 
ATOM     15  C   UNL     1       5.738   4.661  18.216  0.00  0.00    +0.000 C 
ATOM     16  N   UNL     1       3.629   5.035  19.487  0.00  0.00    +0.000 N 
ATOM     17  N   UNL     1       3.418   6.337  19.180  0.00  0.00    +0.000 NA
ATOM     18  C   UNL     1       2.297   6.636  19.870  0.00  0.00    +0.000 A 
ATOM     19  N   UNL     1       1.782   5.567  20.582  0.00  0.00    +0.000 NA
ATOM     20  C   UNL     1       2.626   4.601  20.315  0.00  0.00    +0.000 A 
ENDBRANCH   1  18
BRANCH   6  21
ATOM     21  C   UNL     1      -1.359  12.565  21.752  0.00  0.00    +0.000 A 
ATOM     22  C   UNL     1      -0.829  13.188  22.901  0.00  0.00    +0.000 A 
ATOM     23  C   UNL     1      -1.533  14.187  23.583  0.00  0.00    +0.000 A 
ATOM     24  C   UNL     1      -2.785  14.584  23.131  0.00  0.00    +0.000 A 
ATOM     25  C   UNL     1      -3.327  13.988  21.994  0.00  0.00    +0.000 A 
ATOM     26  C   UNL     1      -2.625  12.986  21.302  0.00  0.00    +0.000 A 
ATOM     27 BR   UNL     1      -3.479  12.321  19.736  0.00  0.00    +0.000 Br
ENDBRANCH   6  21
TORSDOF 2
ENDMDL
MODEL 8
REMARK VINA RESULT:      -8.1      1.315      1.644
REMARK  Name = 
REMARK  4 active torsions:
REMARK  status: ('A' for Active; 'I' for Inactive)
REMARK    1  A    between atoms: C_1  and  C_2
REMARK    2  A    between atoms: C_5  and  C_6
REMARK    3  A    between atoms: C_9  and  C_10
REMARK    4  A    between atoms: C_15  and  C_16
REMARK                            x       y       z     vdW  Elec       q    Type
REMARK                         _______ _______ _______ _____ _____    ______ ____
ROOT
ATOM      1  C   UNL     1       1.813   8.227  19.511  0.00  0.00    +0.000 A 
ATOM      2  C   UNL     1       1.710   8.925  18.183  0.00  0.00    +0.000 A 
ATOM      3  C   UNL     1       1.285  10.195  18.233  0.00  0.00    +0.000 A 
ATOM      4  N   UNL     1       0.991  10.759  19.463  0.00  0.00    +0.000 N 
ATOM      5  C   UNL     1       0.543  12.017  19.757  0.00  0.00    +0.000 A 
ATOM      6  C   UNL     1       0.426  12.053  21.132  0.00  0.00    +0.000 A 
ATOM      7  N   UNL     1       0.814  10.847  21.668  0.00  0.00    +0.000 NA
ATOM      8  C   UNL     1       1.128  10.062  20.658  0.00  0.00    +0.000 A 
ATOM      9  N   UNL     1       1.543   8.758  20.669  0.00  0.00    +0.000 NA
ENDROOT
BRANCH   1  18
ATOM     10  C   UNL     1       4.578   4.331  16.729  0.00  0.00    +0.000 C 
ATOM     11  C   UNL     1       3.871   4.018  18.016  0.00  0.00    +0.000 A 
ATOM     12  N   UNL     1       3.907   2.803  18.497  0.00  0.00    +0.000 NA
ATOM     13  C   UNL     1       3.251   2.553  19.687  0.00  0.00    +0.000 A 
ATOM     14  C   UNL     1       2.584   3.483  20.402  0.00  0.00    +0.000 A 
ATOM     15  C   UNL     1       1.886   3.190  21.690  0.00  0.00    +0.000 C 
ATOM     16  N   UNL     1       2.551   4.781  19.892  0.00  0.00    +0.000 N 
ATOM     17  N   UNL     1       1.975   5.907  20.375  0.00  0.00    +0.000 NA
ATOM     18  C   UNL     1       2.258   6.826  19.428  0.00  0.00    +0.000 A 
ATOM     19  N   UNL     1       3.008   6.326  18.378  0.00  0.00    +0.000 NA
ATOM     20  C   UNL     1       3.172   5.068  18.705  0.00  0.00    +0.000 A 
ENDBRANCH   1  18
BRANCH   6  21
ATOM     21  C   UNL     1      -0.004  13.210  21.915  0.00  0.00    +0.000 A 
ATOM     22  C   UNL     1       0.677  14.433  21.745  0.00  0.00    +0.000 A 
ATOM     23  C   UNL     1       0.327  15.574  22.476  0.00  0.00    +0.000 A 
ATOM     24  C   UNL     1      -0.711  15.516  23.397  0.00  0.00    +0.000 A 
ATOM     25  C   UNL     1      -1.403  14.320  23.579  0.00  0.00    +0.000 A 
ATOM     26  C   UNL     1      -1.059  13.171  22.846  0.00  0.00    +0.000 A 
ATOM     27 BR   UNL     1      -2.143  11.640  23.170  0.00  0.00    +0.000 Br
ENDBRANCH   6  21
TORSDOF 2
ENDMDL
MODEL 9
REMARK VINA RESULT:      -8.1      2.650      9.175
REMARK  Name = 
REMARK  4 active torsions:
REMARK  status: ('A' for Active; 'I' for Inactive)
REMARK    1  A    between atoms: C_1  and  C_2
REMARK    2  A    between atoms: C_5  and  C_6
REMARK    3  A    between atoms: C_9  and  C_10
REMARK    4  A    between atoms: C_15  and  C_16
REMARK                            x       y       z     vdW  Elec       q    Type
REMARK                         _______ _______ _______ _____ _____    ______ ____
ROOT
ATOM      1  C   UNL     1       1.155   9.954  19.999  0.00  0.00    +0.000 A 
ATOM      2  C   UNL     1       1.501  10.280  18.572  0.00  0.00    +0.000 A 
ATOM      3  C   UNL     1       1.978   9.258  17.849  0.00  0.00    +0.000 A 
ATOM      4  N   UNL     1       2.105   8.013  18.442  0.00  0.00    +0.000 N 
ATOM      5  C   UNL     1       2.566   6.840  17.912  0.00  0.00    +0.000 A 
ATOM      6  C   UNL     1       2.468   5.912  18.930  0.00  0.00    +0.000 A 
ATOM      7  N   UNL     1       1.938   6.504  20.054  0.00  0.00    +0.000 NA
ATOM      8  C   UNL     1       1.746   7.775  19.764  0.00  0.00    +0.000 A 
ATOM      9  N   UNL     1       1.268   8.782  20.557  0.00  0.00    +0.000 NA
ENDROOT
BRANCH   1  18
ATOM     10  C   UNL     1       1.821  15.206  21.591  0.00  0.00    +0.000 C 
ATOM     11  C   UNL     1       0.663  14.384  22.078  0.00  0.00    +0.000 A 
ATOM     12  N   UNL     1      -0.211  14.912  22.894  0.00  0.00    +0.000 NA
ATOM     13  C   UNL     1      -1.267  14.127  23.315  0.00  0.00    +0.000 A 
ATOM     14  C   UNL     1      -1.471  12.850  22.932  0.00  0.00    +0.000 A 
ATOM     15  C   UNL     1      -2.624  12.022  23.399  0.00  0.00    +0.000 C 
ATOM     16  N   UNL     1      -0.542  12.287  22.058  0.00  0.00    +0.000 N 
ATOM     17  N   UNL     1      -0.482  11.053  21.505  0.00  0.00    +0.000 NA
ATOM     18  C   UNL     1       0.656  11.098  20.780  0.00  0.00    +0.000 A 
ATOM     19  N   UNL     1       1.303  12.320  20.839  0.00  0.00    +0.000 NA
ATOM     20  C   UNL     1       0.531  13.025  21.629  0.00  0.00    +0.000 A 
ENDBRANCH   1  18
BRANCH   6  21
ATOM     21  C   UNL     1       2.829   4.500  18.827  0.00  0.00    +0.000 A 
ATOM     22  C   UNL     1       1.807   3.556  18.596  0.00  0.00    +0.000 A 
ATOM     23  C   UNL     1       2.082   2.187  18.504  0.00  0.00    +0.000 A 
ATOM     24  C   UNL     1       3.387   1.732  18.644  0.00  0.00    +0.000 A 
ATOM     25  C   UNL     1       4.415   2.646  18.867  0.00  0.00    +0.000 A 
ATOM     26  C   UNL     1       4.146   4.022  18.957  0.00  0.00    +0.000 A 
ATOM     27 BR   UNL     1       5.669   5.138  19.201  0.00  0.00    +0.000 Br
ENDBRANCH   6  21
TORSDOF 2
ENDMDL
