MODEL 1
REMARK VINA RESULT:      -8.3      0.000      0.000
REMARK  Name = 
REMARK  13 active torsions:
REMARK  status: ('A' for Active; 'I' for Inactive)
REMARK    1  A    between atoms: C_1  and  C_2
REMARK    2  A    between atoms: C_2  and  C_3
REMARK    3  A    between atoms: C_2  and  C_4
REMARK    4  A    between atoms: C_2  and  C_5
REMARK    5  A    between atoms: C_8  and  O_9
REMARK    6  A    between atoms: O_9  and  C_10
REMARK    7  A    between atoms: C_10  and  C_11
REMARK    8  A    between atoms: C_11  and  C_12
REMARK    9  A    between atoms: C_12  and  N_13
REMARK   10  A    between atoms: C_16  and  C_17
REMARK   11  A    between atoms: C_17  and  O_18
REMARK   12  A    between atoms: C_17  and  C_19
REMARK   13  A    between atoms: C_17  and  C_26
REMARK                            x       y       z     vdW  Elec       q    Type
REMARK                         _______ _______ _______ _____ _____    ______ ____
ROOT
ATOM      1  N   UNL     1       6.281   5.828  16.775  0.00  0.00    +0.000 NA
ATOM      2  C   UNL     1       5.729   4.693  17.530  0.00  0.00    +0.000 C 
ATOM      3  C   UNL     1       4.255   4.457  17.236  0.00  0.00    +0.000 C 
ATOM      4  C   UNL     1       3.374   5.691  17.507  0.00  0.00    +0.000 C 
ATOM      5  C   UNL     1       3.978   6.834  16.656  0.00  0.00    +0.000 C 
ATOM      6  C   UNL     1       5.480   7.052  16.853  0.00  0.00    +0.000 C 
ENDROOT
BRANCH   1   7
ATOM      7  C   UNL     1       7.670   6.111  17.188  0.00  0.00    +0.000 C 
BRANCH   7   8
ATOM      8  C   UNL     1       7.774   7.028  18.407  0.00  0.00    +0.000 C 
BRANCH   8   9
ATOM      9  C   UNL     1       8.321   8.395  18.021  0.00  0.00    +0.000 C 
BRANCH   9  10
ATOM     10  O   UNL     1       8.817   9.027  19.199  0.00  0.00    +0.000 OA
BRANCH  10  14
ATOM     11  C   UNL     1      10.028  12.985  18.495  0.00  0.00    +0.000 A 
ATOM     12  C   UNL     1       9.028  12.342  17.747  0.00  0.00    +0.000 A 
ATOM     13  C   UNL     1       8.651  11.023  18.016  0.00  0.00    +0.000 A 
ATOM     14  C   UNL     1       9.287  10.298  19.016  0.00  0.00    +0.000 A 
ATOM     15  C   UNL     1      10.301  10.903  19.753  0.00  0.00    +0.000 A 
ATOM     16  C   UNL     1      10.670  12.227  19.490  0.00  0.00    +0.000 A 
BRANCH  11  18
ATOM     17  C   UNL     1      11.222  15.056  19.394  0.00  0.00    +0.000 C 
ATOM     18  C   UNL     1      10.421  14.445  18.221  0.00  0.00    +0.000 C 
ATOM     19  C   UNL     1       9.137  15.269  18.012  0.00  0.00    +0.000 C 
ATOM     20  C   UNL     1      11.311  14.591  16.964  0.00  0.00    +0.000 C 
ENDBRANCH  11  18
ENDBRANCH  10  14
ENDBRANCH   9  10
ENDBRANCH   8   9
ENDBRANCH   7   8
ENDBRANCH   1   7
BRANCH   4  21
ATOM     21  C   UNL     1       3.141   6.033  19.042  0.00  0.00    +0.000 C 
BRANCH  21  22
ATOM     22  C   UNL     1       2.273   7.312  19.161  0.00  0.00    +0.000 A 
ATOM     23  C   UNL     1       2.062   8.128  18.032  0.00  0.00    +0.000 A 
ATOM     24  C   UNL     1       1.385   9.347  18.130  0.00  0.00    +0.000 A 
ATOM     25  C   UNL     1       0.910   9.767  19.364  0.00  0.00    +0.000 A 
ATOM     26  F   UNL     1       0.294  10.952  19.469  0.00  0.00    +0.000 F 
ATOM     27  C   UNL     1       1.068   8.977  20.491  0.00  0.00    +0.000 A 
ATOM     28  C   UNL     1       1.728   7.748  20.389  0.00  0.00    +0.000 A 
ENDBRANCH  21  22
BRANCH  21  29
ATOM     29  C   UNL     1       2.531   4.879  19.871  0.00  0.00    +0.000 A 
ATOM     30  C   UNL     1       1.355   4.237  19.419  0.00  0.00    +0.000 A 
ATOM     31  C   UNL     1       0.728   3.242  20.171  0.00  0.00    +0.000 A 
ATOM     32  C   UNL     1       1.277   2.861  21.386  0.00  0.00    +0.000 A 
ATOM     33  F   UNL     1       0.669   1.921  22.121  0.00  0.00    +0.000 F 
ATOM     34  C   UNL     1       2.448   3.443  21.849  0.00  0.00    +0.000 A 
ATOM     35  C   UNL     1       3.081   4.434  21.090  0.00  0.00    +0.000 A 
ENDBRANCH  21  29
BRANCH  21  36
ATOM     36  O   UNL     1       4.422   6.251  19.647  0.00  0.00    +0.000 OA
ATOM     37  H   UNL     1       4.697   7.155  19.460  0.00  0.00    +0.000 HD
ENDBRANCH  21  36
ENDBRANCH   4  21
TORSDOF 10
ENDMDL
MODEL 2
REMARK VINA RESULT:      -8.3      4.231      8.411
REMARK  Name = 
REMARK  13 active torsions:
REMARK  status: ('A' for Active; 'I' for Inactive)
REMARK    1  A    between atoms: C_1  and  C_2
REMARK    2  A    between atoms: C_2  and  C_3
REMARK    3  A    between atoms: C_2  and  C_4
REMARK    4  A    between atoms: C_2  and  C_5
REMARK    5  A    between atoms: C_8  and  O_9
REMARK    6  A    between atoms: O_9  and  C_10
REMARK    7  A    between atoms: C_10  and  C_11
REMARK    8  A    between atoms: C_11  and  C_12
REMARK    9  A    between atoms: C_12  and  N_13
REMARK   10  A    between atoms: C_16  and  C_17
REMARK   11  A    between atoms: C_17  and  O_18
REMARK   12  A    between atoms: C_17  and  C_19
REMARK   13  A    between atoms: C_17  and  C_26
REMARK                            x       y       z     vdW  Elec       q    Type
REMARK                         _______ _______ _______ _____ _____    ______ ____
ROOT
ATOM      1  N   UNL     1       3.044   4.427  19.002  0.00  0.00    +0.000 NA
ATOM      2  C   UNL     1       3.882   5.623  18.834  0.00  0.00    +0.000 C 
ATOM      3  C   UNL     1       3.840   6.172  17.415  0.00  0.00    +0.000 C 
ATOM      4  C   UNL     1       4.255   5.139  16.351  0.00  0.00    +0.000 C 
ATOM      5  C   UNL     1       3.313   3.927  16.551  0.00  0.00    +0.000 C 
ATOM      6  C   UNL     1       3.254   3.394  17.985  0.00  0.00    +0.000 C 
ENDROOT
BRANCH   1   7
ATOM      7  C   UNL     1       3.217   3.846  20.349  0.00  0.00    +0.000 C 
BRANCH   7   8
ATOM      8  C   UNL     1       2.224   4.379  21.381  0.00  0.00    +0.000 C 
BRANCH   8   9
ATOM      9  C   UNL     1       1.402   5.528  20.812  0.00  0.00    +0.000 C 
BRANCH   9  10
ATOM     10  O   UNL     1       1.920   6.750  21.334  0.00  0.00    +0.000 OA
BRANCH  10  14
ATOM     11  C   UNL     1      -0.016  10.150  19.811  0.00  0.00    +0.000 A 
ATOM     12  C   UNL     1       1.010   9.477  19.125  0.00  0.00    +0.000 A 
ATOM     13  C   UNL     1       1.626   8.345  19.666  0.00  0.00    +0.000 A 
ATOM     14  C   UNL     1       1.263   7.876  20.922  0.00  0.00    +0.000 A 
ATOM     15  C   UNL     1       0.269   8.542  21.633  0.00  0.00    +0.000 A 
ATOM     16  C   UNL     1      -0.355   9.669  21.086  0.00  0.00    +0.000 A 
BRANCH  11  18
ATOM     17  C   UNL     1      -1.614  10.990  18.005  0.00  0.00    +0.000 C 
ATOM     18  C   UNL     1      -0.716  11.376  19.203  0.00  0.00    +0.000 C 
ATOM     19  C   UNL     1       0.359  12.368  18.721  0.00  0.00    +0.000 C 
ATOM     20  C   UNL     1      -1.633  12.096  20.220  0.00  0.00    +0.000 C 
ENDBRANCH  11  18
ENDBRANCH  10  14
ENDBRANCH   9  10
ENDBRANCH   8   9
ENDBRANCH   7   8
ENDBRANCH   1   7
BRANCH   4  21
ATOM     21  C   UNL     1       5.807   4.798  16.306  0.00  0.00    +0.000 C 
BRANCH  21  22
ATOM     22  C   UNL     1       6.260   4.640  14.832  0.00  0.00    +0.000 A 
ATOM     23  C   UNL     1       5.574   3.758  13.974  0.00  0.00    +0.000 A 
ATOM     24  C   UNL     1       6.027   3.503  12.677  0.00  0.00    +0.000 A 
ATOM     25  C   UNL     1       7.176   4.131  12.218  0.00  0.00    +0.000 A 
ATOM     26  F   UNL     1       7.634   3.861  10.989  0.00  0.00    +0.000 F 
ATOM     27  C   UNL     1       7.860   5.031  13.020  0.00  0.00    +0.000 A 
ATOM     28  C   UNL     1       7.395   5.300  14.311  0.00  0.00    +0.000 A 
ENDBRANCH  21  22
BRANCH  21  29
ATOM     29  C   UNL     1       6.709   5.809  17.050  0.00  0.00    +0.000 A 
ATOM     30  C   UNL     1       7.417   5.399  18.203  0.00  0.00    +0.000 A 
ATOM     31  C   UNL     1       8.184   6.296  18.949  0.00  0.00    +0.000 A 
ATOM     32  C   UNL     1       8.268   7.619  18.544  0.00  0.00    +0.000 A 
ATOM     33  F   UNL     1       8.986   8.488  19.267  0.00  0.00    +0.000 F 
ATOM     34  C   UNL     1       7.615   8.053  17.400  0.00  0.00    +0.000 A 
ATOM     35  C   UNL     1       6.854   7.151  16.648  0.00  0.00    +0.000 A 
ENDBRANCH  21  29
BRANCH  21  36
ATOM     36  O   UNL     1       6.011   3.568  17.016  0.00  0.00    +0.000 OA
ATOM     37  H   UNL     1       6.640   3.032  16.521  0.00  0.00    +0.000 HD
ENDBRANCH  21  36
ENDBRANCH   4  21
TORSDOF 10
ENDMDL
MODEL 3
REMARK VINA RESULT:      -8.2      4.097      7.085
REMARK  Name = 
REMARK  13 active torsions:
REMARK  status: ('A' for Active; 'I' for Inactive)
REMARK    1  A    between atoms: C_1  and  C_2
REMARK    2  A    between atoms: C_2  and  C_3
REMARK    3  A    between atoms: C_2  and  C_4
REMARK    4  A    between atoms: C_2  and  C_5
REMARK    5  A    between atoms: C_8  and  O_9
REMARK    6  A    between atoms: O_9  and  C_10
REMARK    7  A    between atoms: C_10  and  C_11
REMARK    8  A    between atoms: C_11  and  C_12
REMARK    9  A    between atoms: C_12  and  N_13
REMARK   10  A    between atoms: C_16  and  C_17
REMARK   11  A    between atoms: C_17  and  O_18
REMARK   12  A    between atoms: C_17  and  C_19
REMARK   13  A    between atoms: C_17  and  C_26
REMARK                            x       y       z     vdW  Elec       q    Type
REMARK                         _______ _______ _______ _____ _____    ______ ____
ROOT
ATOM      1  N   UNL     1       1.872  14.891  19.579  0.00  0.00    +0.000 NA
ATOM      2  C   UNL     1       0.492  14.871  19.072  0.00  0.00    +0.000 C 
ATOM      3  C   UNL     1      -0.463  14.141  20.006  0.00  0.00    +0.000 C 
ATOM      4  C   UNL     1      -0.037  12.691  20.300  0.00  0.00    +0.000 C 
ATOM      5  C   UNL     1       1.401  12.782  20.866  0.00  0.00    +0.000 C 
ATOM      6  C   UNL     1       2.378  13.583  20.003  0.00  0.00    +0.000 C 
ENDROOT
BRANCH   1   7
ATOM      7  C   UNL     1       2.790  15.484  18.586  0.00  0.00    +0.000 C 
BRANCH   7   8
ATOM      8  C   UNL     1       4.200  14.896  18.624  0.00  0.00    +0.000 C 
BRANCH   8   9
ATOM      9  C   UNL     1       5.158  15.813  19.373  0.00  0.00    +0.000 C 
BRANCH   9  10
ATOM     10  O   UNL     1       6.318  16.004  18.565  0.00  0.00    +0.000 OA
BRANCH  10  14
ATOM     11  C   UNL     1       9.054  12.840  18.923  0.00  0.00    +0.000 A 
ATOM     12  C   UNL     1       8.761  13.726  19.973  0.00  0.00    +0.000 A 
ATOM     13  C   UNL     1       7.839  14.765  19.814  0.00  0.00    +0.000 A 
ATOM     14  C   UNL     1       7.213  14.971  18.591  0.00  0.00    +0.000 A 
ATOM     15  C   UNL     1       7.508  14.124  17.527  0.00  0.00    +0.000 A 
ATOM     16  C   UNL     1       8.422  13.077  17.690  0.00  0.00    +0.000 A 
BRANCH  11  18
ATOM     17  C   UNL     1      10.999  11.919  20.296  0.00  0.00    +0.000 C 
ATOM     18  C   UNL     1      10.043  11.678  19.106  0.00  0.00    +0.000 C 
ATOM     19  C   UNL     1      10.875  11.533  17.819  0.00  0.00    +0.000 C 
ATOM     20  C   UNL     1       9.330  10.334  19.387  0.00  0.00    +0.000 C 
ENDBRANCH  11  18
ENDBRANCH  10  14
ENDBRANCH   9  10
ENDBRANCH   8   9
ENDBRANCH   7   8
ENDBRANCH   1   7
BRANCH   4  21
ATOM     21  C   UNL     1      -0.233  11.670  19.098  0.00  0.00    +0.000 C 
BRANCH  21  22
ATOM     22  C   UNL     1       0.551  10.365  19.393  0.00  0.00    +0.000 A 
ATOM     23  C   UNL     1       1.393   9.812  18.408  0.00  0.00    +0.000 A 
ATOM     24  C   UNL     1       2.021   8.577  18.597  0.00  0.00    +0.000 A 
ATOM     25  C   UNL     1       1.814   7.878  19.778  0.00  0.00    +0.000 A 
ATOM     26  F   UNL     1       2.384   6.678  19.946  0.00  0.00    +0.000 F 
ATOM     27  C   UNL     1       1.019   8.405  20.783  0.00  0.00    +0.000 A 
ATOM     28  C   UNL     1       0.407   9.649  20.602  0.00  0.00    +0.000 A 
ENDBRANCH  21  22
BRANCH  21  29
ATOM     29  C   UNL     1      -1.709  11.355  18.757  0.00  0.00    +0.000 A 
ATOM     30  C   UNL     1      -2.009  10.345  17.814  0.00  0.00    +0.000 A 
ATOM     31  C   UNL     1      -3.321  10.077  17.420  0.00  0.00    +0.000 A 
ATOM     32  C   UNL     1      -4.360  10.807  17.976  0.00  0.00    +0.000 A 
ATOM     33  F   UNL     1      -5.619  10.568  17.588  0.00  0.00    +0.000 F 
ATOM     34  C   UNL     1      -4.110  11.784  18.929  0.00  0.00    +0.000 A 
ATOM     35  C   UNL     1      -2.794  12.045  19.330  0.00  0.00    +0.000 A 
ENDBRANCH  21  29
BRANCH  21  36
ATOM     36  O   UNL     1       0.271  12.286  17.905  0.00  0.00    +0.000 OA
ATOM     37  H   UNL     1      -0.256  13.071  17.722  0.00  0.00    +0.000 HD
ENDBRANCH  21  36
ENDBRANCH   4  21
TORSDOF 10
ENDMDL
MODEL 4
REMARK VINA RESULT:      -8.1      6.128     10.858
REMARK  Name = 
REMARK  13 active torsions:
REMARK  status: ('A' for Active; 'I' for Inactive)
REMARK    1  A    between atoms: C_1  and  C_2
REMARK    2  A    between atoms: C_2  and  C_3
REMARK    3  A    between atoms: C_2  and  C_4
REMARK    4  A    between atoms: C_2  and  C_5
REMARK    5  A    between atoms: C_8  and  O_9
REMARK    6  A    between atoms: O_9  and  C_10
REMARK    7  A    between atoms: C_10  and  C_11
REMARK    8  A    between atoms: C_11  and  C_12
REMARK    9  A    between atoms: C_12  and  N_13
REMARK   10  A    between atoms: C_16  and  C_17
REMARK   11  A    between atoms: C_17  and  O_18
REMARK   12  A    between atoms: C_17  and  C_19
REMARK   13  A    between atoms: C_17  and  C_26
REMARK                            x       y       z     vdW  Elec       q    Type
REMARK                         _______ _______ _______ _____ _____    ______ ____
ROOT
ATOM      1  N   UNL     1       0.627  15.218  20.072  0.00  0.00    +0.000 NA
ATOM      2  C   UNL     1       1.494  14.139  20.566  0.00  0.00    +0.000 C 
ATOM      3  C   UNL     1       1.892  13.161  19.470  0.00  0.00    +0.000 C 
ATOM      4  C   UNL     1       0.687  12.522  18.756  0.00  0.00    +0.000 C 
ATOM      5  C   UNL     1      -0.162  13.702  18.225  0.00  0.00    +0.000 C 
ATOM      6  C   UNL     1      -0.514  14.759  19.275  0.00  0.00    +0.000 C 
ENDROOT
BRANCH   1   7
ATOM      7  C   UNL     1       0.151  16.064  21.184  0.00  0.00    +0.000 C 
BRANCH   7   8
ATOM      8  C   UNL     1       0.550  15.545  22.566  0.00  0.00    +0.000 C 
BRANCH   8   9
ATOM      9  C   UNL     1      -0.677  15.198  23.398  0.00  0.00    +0.000 C 
BRANCH   9  10
ATOM     10  O   UNL     1      -1.083  13.872  23.064  0.00  0.00    +0.000 OA
BRANCH  10  14
ATOM     11  C   UNL     1      -5.216  13.297  22.603  0.00  0.00    +0.000 A 
ATOM     12  C   UNL     1      -4.442  12.594  23.541  0.00  0.00    +0.000 A 
ATOM     13  C   UNL     1      -3.068  12.818  23.666  0.00  0.00    +0.000 A 
ATOM     14  C   UNL     1      -2.422  13.723  22.833  0.00  0.00    +0.000 A 
ATOM     15  C   UNL     1      -3.162  14.411  21.875  0.00  0.00    +0.000 A 
ATOM     16  C   UNL     1      -4.540  14.194  21.759  0.00  0.00    +0.000 A 
BRANCH  11  18
ATOM     17  C   UNL     1      -7.490  14.397  22.230  0.00  0.00    +0.000 C 
ATOM     18  C   UNL     1      -6.733  13.074  22.486  0.00  0.00    +0.000 C 
ATOM     19  C   UNL     1      -7.241  12.455  23.801  0.00  0.00    +0.000 C 
ATOM     20  C   UNL     1      -7.103  12.128  21.320  0.00  0.00    +0.000 C 
ENDBRANCH  11  18
ENDBRANCH  10  14
ENDBRANCH   9  10
ENDBRANCH   8   9
ENDBRANCH   7   8
ENDBRANCH   1   7
BRANCH   4  21
ATOM     21  C   UNL     1      -0.108  11.438  19.607  0.00  0.00    +0.000 C 
BRANCH  21  22
ATOM     22  C   UNL     1      -1.507  11.211  18.978  0.00  0.00    +0.000 A 
ATOM     23  C   UNL     1      -1.644  10.383  17.846  0.00  0.00    +0.000 A 
ATOM     24  C   UNL     1      -2.868  10.251  17.184  0.00  0.00    +0.000 A 
ATOM     25  C   UNL     1      -3.974  10.948  17.648  0.00  0.00    +0.000 A 
ATOM     26  F   UNL     1      -5.140  10.853  16.994  0.00  0.00    +0.000 F 
ATOM     27  C   UNL     1      -3.887  11.746  18.777  0.00  0.00    +0.000 A 
ATOM     28  C   UNL     1      -2.667  11.863  19.450  0.00  0.00    +0.000 A 
ENDBRANCH  21  22
BRANCH  21  29
ATOM     29  C   UNL     1       0.634  10.094  19.789  0.00  0.00    +0.000 A 
ATOM     30  C   UNL     1       1.385   9.558  18.717  0.00  0.00    +0.000 A 
ATOM     31  C   UNL     1       2.009   8.313  18.810  0.00  0.00    +0.000 A 
ATOM     32  C   UNL     1       1.906   7.588  19.987  0.00  0.00    +0.000 A 
ATOM     33  F   UNL     1       2.487   6.385  20.076  0.00  0.00    +0.000 F 
ATOM     34  C   UNL     1       1.207   8.094  21.073  0.00  0.00    +0.000 A 
ATOM     35  C   UNL     1       0.589   9.346  20.981  0.00  0.00    +0.000 A 
ENDBRANCH  21  29
BRANCH  21  36
ATOM     36  O   UNL     1      -0.246  11.938  20.944  0.00  0.00    +0.000 OA
ATOM     37  H   UNL     1       0.457  11.562  21.484  0.00  0.00    +0.000 HD
ENDBRANCH  21  36
ENDBRANCH   4  21
TORSDOF 10
ENDMDL
MODEL 5
REMARK VINA RESULT:      -8.0      4.021      7.030
REMARK  Name = 
REMARK  13 active torsions:
REMARK  status: ('A' for Active; 'I' for Inactive)
REMARK    1  A    between atoms: C_1  and  C_2
REMARK    2  A    between atoms: C_2  and  C_3
REMARK    3  A    between atoms: C_2  and  C_4
REMARK    4  A    between atoms: C_2  and  C_5
REMARK    5  A    between atoms: C_8  and  O_9
REMARK    6  A    between atoms: O_9  and  C_10
REMARK    7  A    between atoms: C_10  and  C_11
REMARK    8  A    between atoms: C_11  and  C_12
REMARK    9  A    between atoms: C_12  and  N_13
REMARK   10  A    between atoms: C_16  and  C_17
REMARK   11  A    between atoms: C_17  and  O_18
REMARK   12  A    between atoms: C_17  and  C_19
REMARK   13  A    between atoms: C_17  and  C_26
REMARK                            x       y       z     vdW  Elec       q    Type
REMARK                         _______ _______ _______ _____ _____    ______ ____
ROOT
ATOM      1  N   UNL     1       1.864  14.693  19.888  0.00  0.00    +0.000 NA
ATOM      2  C   UNL     1       0.472  14.699  19.417  0.00  0.00    +0.000 C 
ATOM      3  C   UNL     1      -0.434  13.814  20.260  0.00  0.00    +0.000 C 
ATOM      4  C   UNL     1       0.042  12.352  20.337  0.00  0.00    +0.000 C 
ATOM      5  C   UNL     1       1.492  12.409  20.876  0.00  0.00    +0.000 C 
ATOM      6  C   UNL     1       2.421  13.356  20.111  0.00  0.00    +0.000 C 
ENDROOT
BRANCH   1   7
ATOM      7  C   UNL     1       2.736  15.449  18.967  0.00  0.00    +0.000 C 
BRANCH   7   8
ATOM      8  C   UNL     1       4.104  15.791  19.556  0.00  0.00    +0.000 C 
BRANCH   8   9
ATOM      9  C   UNL     1       5.101  16.147  18.462  0.00  0.00    +0.000 C 
BRANCH   9  10
ATOM     10  O   UNL     1       5.446  14.951  17.765  0.00  0.00    +0.000 OA
BRANCH  10  14
ATOM     11  C   UNL     1       9.428  13.627  17.886  0.00  0.00    +0.000 A 
ATOM     12  C   UNL     1       8.353  12.799  17.520  0.00  0.00    +0.000 A 
ATOM     13  C   UNL     1       7.041  13.281  17.488  0.00  0.00    +0.000 A 
ATOM     14  C   UNL     1       6.761  14.591  17.857  0.00  0.00    +0.000 A 
ATOM     15  C   UNL     1       7.805  15.422  18.251  0.00  0.00    +0.000 A 
ATOM     16  C   UNL     1       9.120  14.943  18.272  0.00  0.00    +0.000 A 
BRANCH  11  18
ATOM     17  C   UNL     1      11.709  13.740  19.029  0.00  0.00    +0.000 C 
ATOM     18  C   UNL     1      10.875  13.108  17.891  0.00  0.00    +0.000 C 
ATOM     19  C   UNL     1      11.527  13.458  16.541  0.00  0.00    +0.000 C 
ATOM     20  C   UNL     1      10.952  11.577  18.094  0.00  0.00    +0.000 C 
ENDBRANCH  11  18
ENDBRANCH  10  14
ENDBRANCH   9  10
ENDBRANCH   8   9
ENDBRANCH   7   8
ENDBRANCH   1   7
BRANCH   4  21
ATOM     21  C   UNL     1      -0.159  11.503  19.007  0.00  0.00    +0.000 C 
BRANCH  21  22
ATOM     22  C   UNL     1       0.584  10.149  19.141  0.00  0.00    +0.000 A 
ATOM     23  C   UNL     1       0.508   9.419  20.344  0.00  0.00    +0.000 A 
ATOM     24  C   UNL     1       1.259   8.256  20.539  0.00  0.00    +0.000 A 
ATOM     25  C   UNL     1       2.099   7.807  19.530  0.00  0.00    +0.000 A 
ATOM     26  F   UNL     1       2.848   6.715  19.728  0.00  0.00    +0.000 F 
ATOM     27  C   UNL     1       2.176   8.479  18.320  0.00  0.00    +0.000 A 
ATOM     28  C   UNL     1       1.410   9.631  18.118  0.00  0.00    +0.000 A 
ENDBRANCH  21  22
BRANCH  21  29
ATOM     29  C   UNL     1      -1.635  11.279  18.605  0.00  0.00    +0.000 A 
ATOM     30  C   UNL     1      -2.645  12.092  19.169  0.00  0.00    +0.000 A 
ATOM     31  C   UNL     1      -3.996  11.878  18.892  0.00  0.00    +0.000 A 
ATOM     32  C   UNL     1      -4.360  10.854  18.032  0.00  0.00    +0.000 A 
ATOM     33  F   UNL     1      -5.656  10.632  17.778  0.00  0.00    +0.000 F 
ATOM     34  C   UNL     1      -3.397  10.056  17.432  0.00  0.00    +0.000 A 
ATOM     35  C   UNL     1      -2.042  10.277  17.703  0.00  0.00    +0.000 A 
ENDBRANCH  21  29
BRANCH  21  36
ATOM     36  O   UNL     1       0.385  12.256  17.914  0.00  0.00    +0.000 OA
ATOM     37  H   UNL     1      -0.179  13.021  17.761  0.00  0.00    +0.000 HD
ENDBRANCH  21  36
ENDBRANCH   4  21
TORSDOF 10
ENDMDL
MODEL 6
REMARK VINA RESULT:      -8.0      4.015     11.098
REMARK  Name = 
REMARK  13 active torsions:
REMARK  status: ('A' for Active; 'I' for Inactive)
REMARK    1  A    between atoms: C_1  and  C_2
REMARK    2  A    between atoms: C_2  and  C_3
REMARK    3  A    between atoms: C_2  and  C_4
REMARK    4  A    between atoms: C_2  and  C_5
REMARK    5  A    between atoms: C_8  and  O_9
REMARK    6  A    between atoms: O_9  and  C_10
REMARK    7  A    between atoms: C_10  and  C_11
REMARK    8  A    between atoms: C_11  and  C_12
REMARK    9  A    between atoms: C_12  and  N_13
REMARK   10  A    between atoms: C_16  and  C_17
REMARK   11  A    between atoms: C_17  and  O_18
REMARK   12  A    between atoms: C_17  and  C_19
REMARK   13  A    between atoms: C_17  and  C_26
REMARK                            x       y       z     vdW  Elec       q    Type
REMARK                         _______ _______ _______ _____ _____    ______ ____
ROOT
ATOM      1  N   UNL     1       9.823  11.050  18.541  0.00  0.00    +0.000 NA
ATOM      2  C   UNL     1       8.943  12.126  18.063  0.00  0.00    +0.000 C 
ATOM      3  C   UNL     1       9.692  13.428  17.818  0.00  0.00    +0.000 C 
ATOM      4  C   UNL     1      10.447  13.938  19.058  0.00  0.00    +0.000 C 
ATOM      5  C   UNL     1      11.383  12.782  19.486  0.00  0.00    +0.000 C 
ATOM      6  C   UNL     1      10.688  11.429  19.660  0.00  0.00    +0.000 C 
ENDROOT
BRANCH   1   7
ATOM      7  C   UNL     1       9.042   9.848  18.897  0.00  0.00    +0.000 C 
BRANCH   7   8
ATOM      8  C   UNL     1       8.111   9.367  17.784  0.00  0.00    +0.000 C 
BRANCH   8   9
ATOM      9  C   UNL     1       7.947   7.854  17.820  0.00  0.00    +0.000 C 
BRANCH   9  10
ATOM     10  O   UNL     1       6.995   7.483  16.825  0.00  0.00    +0.000 OA
BRANCH  10  14
ATOM     11  C   UNL     1       4.381   4.523  18.252  0.00  0.00    +0.000 A 
ATOM     12  C   UNL     1       5.446   5.039  19.009  0.00  0.00    +0.000 A 
ATOM     13  C   UNL     1       6.292   6.028  18.498  0.00  0.00    +0.000 A 
ATOM     14  C   UNL     1       6.121   6.503  17.204  0.00  0.00    +0.000 A 
ATOM     15  C   UNL     1       5.090   5.987  16.423  0.00  0.00    +0.000 A 
ATOM     16  C   UNL     1       4.237   5.005  16.939  0.00  0.00    +0.000 A 
BRANCH  11  18
ATOM     17  C   UNL     1       4.131   2.570  19.877  0.00  0.00    +0.000 C 
ATOM     18  C   UNL     1       3.432   3.459  18.824  0.00  0.00    +0.000 C 
ATOM     19  C   UNL     1       2.939   2.567  17.668  0.00  0.00    +0.000 C 
ATOM     20  C   UNL     1       2.202   4.080  19.526  0.00  0.00    +0.000 C 
ENDBRANCH  11  18
ENDBRANCH  10  14
ENDBRANCH   9  10
ENDBRANCH   8   9
ENDBRANCH   7   8
ENDBRANCH   1   7
BRANCH   4  21
ATOM     21  C   UNL     1       9.531  14.537  20.211  0.00  0.00    +0.000 C 
BRANCH  21  22
ATOM     22  C   UNL     1      10.372  15.490  21.099  0.00  0.00    +0.000 A 
ATOM     23  C   UNL     1      10.020  15.690  22.448  0.00  0.00    +0.000 A 
ATOM     24  C   UNL     1      10.682  16.630  23.243  0.00  0.00    +0.000 A 
ATOM     25  C   UNL     1      11.711  17.384  22.696  0.00  0.00    +0.000 A 
ATOM     26  F   UNL     1      12.323  18.312  23.443  0.00  0.00    +0.000 F 
ATOM     27  C   UNL     1      12.109  17.193  21.382  0.00  0.00    +0.000 A 
ATOM     28  C   UNL     1      11.458  16.239  20.594  0.00  0.00    +0.000 A 
ENDBRANCH  21  22
BRANCH  21  29
ATOM     29  C   UNL     1       8.250  15.245  19.712  0.00  0.00    +0.000 A 
ATOM     30  C   UNL     1       8.340  16.537  19.145  0.00  0.00    +0.000 A 
ATOM     31  C   UNL     1       7.203  17.244  18.749  0.00  0.00    +0.000 A 
ATOM     32  C   UNL     1       5.954  16.662  18.899  0.00  0.00    +0.000 A 
ATOM     33  F   UNL     1       4.859  17.343  18.539  0.00  0.00    +0.000 F 
ATOM     34  C   UNL     1       5.826  15.382  19.420  0.00  0.00    +0.000 A 
ATOM     35  C   UNL     1       6.967  14.671  19.808  0.00  0.00    +0.000 A 
ENDBRANCH  21  29
BRANCH  21  36
ATOM     36  O   UNL     1       9.036  13.445  20.997  0.00  0.00    +0.000 OA
ATOM     37  H   UNL     1       8.297  13.762  21.527  0.00  0.00    +0.000 HD
ENDBRANCH  21  36
ENDBRANCH   4  21
TORSDOF 10
ENDMDL
MODEL 7
REMARK VINA RESULT:      -8.0      4.273      8.314
REMARK  Name = 
REMARK  13 active torsions:
REMARK  status: ('A' for Active; 'I' for Inactive)
REMARK    1  A    between atoms: C_1  and  C_2
REMARK    2  A    between atoms: C_2  and  C_3
REMARK    3  A    between atoms: C_2  and  C_4
REMARK    4  A    between atoms: C_2  and  C_5
REMARK    5  A    between atoms: C_8  and  O_9
REMARK    6  A    between atoms: O_9  and  C_10
REMARK    7  A    between atoms: C_10  and  C_11
REMARK    8  A    between atoms: C_11  and  C_12
REMARK    9  A    between atoms: C_12  and  N_13
REMARK   10  A    between atoms: C_16  and  C_17
REMARK   11  A    between atoms: C_17  and  O_18
REMARK   12  A    between atoms: C_17  and  C_19
REMARK   13  A    between atoms: C_17  and  C_26
REMARK                            x       y       z     vdW  Elec       q    Type
REMARK                         _______ _______ _______ _____ _____    ______ ____
ROOT
ATOM      1  N   UNL     1       3.088   4.333  18.997  0.00  0.00    +0.000 NA
ATOM      2  C   UNL     1       3.903   5.540  18.797  0.00  0.00    +0.000 C 
ATOM      3  C   UNL     1       3.837   6.059  17.368  0.00  0.00    +0.000 C 
ATOM      4  C   UNL     1       4.259   5.014  16.320  0.00  0.00    +0.000 C 
ATOM      5  C   UNL     1       3.341   3.790  16.554  0.00  0.00    +0.000 C 
ATOM      6  C   UNL     1       3.306   3.284  17.998  0.00  0.00    +0.000 C 
ENDROOT
BRANCH   1   7
ATOM      7  C   UNL     1       3.285   3.781  20.352  0.00  0.00    +0.000 C 
BRANCH   7   8
ATOM      8  C   UNL     1       2.342   4.372  21.400  0.00  0.00    +0.000 C 
BRANCH   8   9
ATOM      9  C   UNL     1       1.449   5.446  20.793  0.00  0.00    +0.000 C 
BRANCH   9  10
ATOM     10  O   UNL     1       1.613   6.644  21.550  0.00  0.00    +0.000 OA
BRANCH  10  14
ATOM     11  C   UNL     1       0.233  10.233  19.864  0.00  0.00    +0.000 A 
ATOM     12  C   UNL     1      -0.210   9.746  21.105  0.00  0.00    +0.000 A 
ATOM     13  C   UNL     1       0.278   8.548  21.634  0.00  0.00    +0.000 A 
ATOM     14  C   UNL     1       1.193   7.783  20.921  0.00  0.00    +0.000 A 
ATOM     15  C   UNL     1       1.625   8.229  19.675  0.00  0.00    +0.000 A 
ATOM     16  C   UNL     1       1.145   9.435  19.152  0.00  0.00    +0.000 A 
BRANCH  11  18
ATOM     17  C   UNL     1       0.869  12.423  18.716  0.00  0.00    +0.000 C 
ATOM     18  C   UNL     1      -0.279  11.566  19.296  0.00  0.00    +0.000 C 
ATOM     19  C   UNL     1      -0.964  12.352  20.429  0.00  0.00    +0.000 C 
ATOM     20  C   UNL     1      -1.297  11.367  18.148  0.00  0.00    +0.000 C 
ENDBRANCH  11  18
ENDBRANCH  10  14
ENDBRANCH   9  10
ENDBRANCH   8   9
ENDBRANCH   7   8
ENDBRANCH   1   7
BRANCH   4  21
ATOM     21  C   UNL     1       5.816   4.698  16.265  0.00  0.00    +0.000 C 
BRANCH  21  22
ATOM     22  C   UNL     1       6.267   4.570  14.787  0.00  0.00    +0.000 A 
ATOM     23  C   UNL     1       5.618   3.660  13.929  0.00  0.00    +0.000 A 
ATOM     24  C   UNL     1       6.075   3.434  12.628  0.00  0.00    +0.000 A 
ATOM     25  C   UNL     1       7.190   4.118  12.166  0.00  0.00    +0.000 A 
ATOM     26  F   UNL     1       7.653   3.877  10.933  0.00  0.00    +0.000 F 
ATOM     27  C   UNL     1       7.835   5.046  12.968  0.00  0.00    +0.000 A 
ATOM     28  C   UNL     1       7.366   5.287  14.263  0.00  0.00    +0.000 A 
ENDBRANCH  21  22
BRANCH  21  29
ATOM     29  C   UNL     1       6.704   5.714  17.022  0.00  0.00    +0.000 A 
ATOM     30  C   UNL     1       7.454   5.289  18.142  0.00  0.00    +0.000 A 
ATOM     31  C   UNL     1       8.210   6.185  18.900  0.00  0.00    +0.000 A 
ATOM     32  C   UNL     1       8.242   7.523  18.538  0.00  0.00    +0.000 A 
ATOM     33  F   UNL     1       8.950   8.390  19.272  0.00  0.00    +0.000 F 
ATOM     34  C   UNL     1       7.546   7.973  17.426  0.00  0.00    +0.000 A 
ATOM     35  C   UNL     1       6.796   7.073  16.662  0.00  0.00    +0.000 A 
ENDBRANCH  21  29
BRANCH  21  36
ATOM     36  O   UNL     1       6.043   3.462  16.956  0.00  0.00    +0.000 OA
ATOM     37  H   UNL     1       5.231   3.214  17.411  0.00  0.00    +0.000 HD
ENDBRANCH  21  36
ENDBRANCH   4  21
TORSDOF 10
ENDMDL
MODEL 8
REMARK VINA RESULT:      -7.9      4.238      8.683
REMARK  Name = 
REMARK  13 active torsions:
REMARK  status: ('A' for Active; 'I' for Inactive)
REMARK    1  A    between atoms: C_1  and  C_2
REMARK    2  A    between atoms: C_2  and  C_3
REMARK    3  A    between atoms: C_2  and  C_4
REMARK    4  A    between atoms: C_2  and  C_5
REMARK    5  A    between atoms: C_8  and  O_9
REMARK    6  A    between atoms: O_9  and  C_10
REMARK    7  A    between atoms: C_10  and  C_11
REMARK    8  A    between atoms: C_11  and  C_12
REMARK    9  A    between atoms: C_12  and  N_13
REMARK   10  A    between atoms: C_16  and  C_17
REMARK   11  A    between atoms: C_17  and  O_18
REMARK   12  A    between atoms: C_17  and  C_19
REMARK   13  A    between atoms: C_17  and  C_26
REMARK                            x       y       z     vdW  Elec       q    Type
REMARK                         _______ _______ _______ _____ _____    ______ ____
ROOT
ATOM      1  N   UNL     1       2.953   4.953  19.272  0.00  0.00    +0.000 NA
ATOM      2  C   UNL     1       2.699   4.640  17.859  0.00  0.00    +0.000 C 
ATOM      3  C   UNL     1       3.728   3.680  17.279  0.00  0.00    +0.000 C 
ATOM      4  C   UNL     1       5.176   4.188  17.409  0.00  0.00    +0.000 C 
ATOM      5  C   UNL     1       5.394   4.459  18.917  0.00  0.00    +0.000 C 
ATOM      6  C   UNL     1       4.332   5.350  19.566  0.00  0.00    +0.000 C 
ENDROOT
BRANCH   1   7
ATOM      7  C   UNL     1       2.020   5.990  19.759  0.00  0.00    +0.000 C 
BRANCH   7   8
ATOM      8  C   UNL     1       2.587   7.408  19.692  0.00  0.00    +0.000 C 
BRANCH   8   9
ATOM      9  C   UNL     1       1.472   8.445  19.678  0.00  0.00    +0.000 C 
BRANCH   9  10
ATOM     10  O   UNL     1       0.725   8.316  20.886  0.00  0.00    +0.000 OA
BRANCH  10  14
ATOM     11  C   UNL     1      -1.424  11.672  22.205  0.00  0.00    +0.000 A 
ATOM     12  C   UNL     1      -0.941  10.678  23.073  0.00  0.00    +0.000 A 
ATOM     13  C   UNL     1      -0.226   9.577  22.593  0.00  0.00    +0.000 A 
ATOM     14  C   UNL     1      -0.005   9.419  21.231  0.00  0.00    +0.000 A 
ATOM     15  C   UNL     1      -0.498  10.376  20.348  0.00  0.00    +0.000 A 
ATOM     16  C   UNL     1      -1.204  11.483  20.830  0.00  0.00    +0.000 A 
BRANCH  11  18
ATOM     17  C   UNL     1      -1.266  13.833  23.557  0.00  0.00    +0.000 C 
ATOM     18  C   UNL     1      -2.183  12.899  22.735  0.00  0.00    +0.000 C 
ATOM     19  C   UNL     1      -3.335  12.414  23.635  0.00  0.00    +0.000 C 
ATOM     20  C   UNL     1      -2.776  13.763  21.597  0.00  0.00    +0.000 C 
ENDBRANCH  11  18
ENDBRANCH  10  14
ENDBRANCH   9  10
ENDBRANCH   8   9
ENDBRANCH   7   8
ENDBRANCH   1   7
BRANCH   4  21
ATOM     21  C   UNL     1       5.563   5.386  16.438  0.00  0.00    +0.000 C 
BRANCH  21  22
ATOM     22  C   UNL     1       6.611   6.295  17.130  0.00  0.00    +0.000 A 
ATOM     23  C   UNL     1       7.501   5.750  18.077  0.00  0.00    +0.000 A 
ATOM     24  C   UNL     1       8.376   6.561  18.805  0.00  0.00    +0.000 A 
ATOM     25  C   UNL     1       8.372   7.933  18.595  0.00  0.00    +0.000 A 
ATOM     26  F   UNL     1       9.183   8.717  19.317  0.00  0.00    +0.000 F 
ATOM     27  C   UNL     1       7.535   8.502  17.648  0.00  0.00    +0.000 A 
ATOM     28  C   UNL     1       6.674   7.688  16.906  0.00  0.00    +0.000 A 
ENDBRANCH  21  22
BRANCH  21  29
ATOM     29  C   UNL     1       6.060   4.945  15.041  0.00  0.00    +0.000 A 
ATOM     30  C   UNL     1       5.273   4.064  14.264  0.00  0.00    +0.000 A 
ATOM     31  C   UNL     1       5.716   3.582  13.031  0.00  0.00    +0.000 A 
ATOM     32  C   UNL     1       6.949   3.986  12.546  0.00  0.00    +0.000 A 
ATOM     33  F   UNL     1       7.387   3.511  11.372  0.00  0.00    +0.000 F 
ATOM     34  C   UNL     1       7.737   4.875  13.262  0.00  0.00    +0.000 A 
ATOM     35  C   UNL     1       7.289   5.366  14.494  0.00  0.00    +0.000 A 
ENDBRANCH  21  29
BRANCH  21  36
ATOM     36  O   UNL     1       4.372   6.134  16.158  0.00  0.00    +0.000 OA
ATOM     37  H   UNL     1       3.947   6.352  16.994  0.00  0.00    +0.000 HD
ENDBRANCH  21  36
ENDBRANCH   4  21
TORSDOF 10
ENDMDL
MODEL 9
REMARK VINA RESULT:      -7.9      4.326      8.562
REMARK  Name = 
REMARK  13 active torsions:
REMARK  status: ('A' for Active; 'I' for Inactive)
REMARK    1  A    between atoms: C_1  and  C_2
REMARK    2  A    between atoms: C_2  and  C_3
REMARK    3  A    between atoms: C_2  and  C_4
REMARK    4  A    between atoms: C_2  and  C_5
REMARK    5  A    between atoms: C_8  and  O_9
REMARK    6  A    between atoms: O_9  and  C_10
REMARK    7  A    between atoms: C_10  and  C_11
REMARK    8  A    between atoms: C_11  and  C_12
REMARK    9  A    between atoms: C_12  and  N_13
REMARK   10  A    between atoms: C_16  and  C_17
REMARK   11  A    between atoms: C_17  and  O_18
REMARK   12  A    between atoms: C_17  and  C_19
REMARK   13  A    between atoms: C_17  and  C_26
REMARK                            x       y       z     vdW  Elec       q    Type
REMARK                         _______ _______ _______ _____ _____    ______ ____
ROOT
ATOM      1  N   UNL     1       2.616   4.609  19.252  0.00  0.00    +0.000 NA
ATOM      2  C   UNL     1       2.459   4.327  17.819  0.00  0.00    +0.000 C 
ATOM      3  C   UNL     1       3.567   3.438  17.273  0.00  0.00    +0.000 C 
ATOM      4  C   UNL     1       4.977   4.015  17.499  0.00  0.00    +0.000 C 
ATOM      5  C   UNL     1       5.096   4.251  19.024  0.00  0.00    +0.000 C 
ATOM      6  C   UNL     1       3.954   5.067  19.635  0.00  0.00    +0.000 C 
ENDROOT
BRANCH   1   7
ATOM      7  C   UNL     1       1.604   5.581  19.713  0.00  0.00    +0.000 C 
BRANCH   7   8
ATOM      8  C   UNL     1       2.130   6.570  20.752  0.00  0.00    +0.000 C 
BRANCH   8   9
ATOM      9  C   UNL     1       1.430   7.918  20.633  0.00  0.00    +0.000 C 
BRANCH   9  10
ATOM     10  O   UNL     1       1.472   8.557  21.908  0.00  0.00    +0.000 OA
BRANCH  10  14
ATOM     11  C   UNL     1      -1.235  11.759  22.123  0.00  0.00    +0.000 A 
ATOM     12  C   UNL     1      -0.300  11.611  21.084  0.00  0.00    +0.000 A 
ATOM     13  C   UNL     1       0.582  10.527  21.048  0.00  0.00    +0.000 A 
ATOM     14  C   UNL     1       0.580   9.581  22.065  0.00  0.00    +0.000 A 
ATOM     15  C   UNL     1      -0.318   9.721  23.120  0.00  0.00    +0.000 A 
ATOM     16  C   UNL     1      -1.208  10.801  23.150  0.00  0.00    +0.000 A 
BRANCH  11  18
ATOM     17  C   UNL     1      -3.341  12.768  21.089  0.00  0.00    +0.000 C 
ATOM     18  C   UNL     1      -2.227  12.933  22.147  0.00  0.00    +0.000 C 
ATOM     19  C   UNL     1      -1.455  14.234  21.859  0.00  0.00    +0.000 C 
ATOM     20  C   UNL     1      -2.941  13.075  23.512  0.00  0.00    +0.000 C 
ENDBRANCH  11  18
ENDBRANCH  10  14
ENDBRANCH   9  10
ENDBRANCH   8   9
ENDBRANCH   7   8
ENDBRANCH   1   7
BRANCH   4  21
ATOM     21  C   UNL     1       5.355   5.260  16.585  0.00  0.00    +0.000 C 
BRANCH  21  22
ATOM     22  C   UNL     1       6.346   6.178  17.345  0.00  0.00    +0.000 A 
ATOM     23  C   UNL     1       6.363   7.563  17.086  0.00  0.00    +0.000 A 
ATOM     24  C   UNL     1       7.321   8.401  17.664  0.00  0.00    +0.000 A 
ATOM     25  C   UNL     1       8.279   7.862  18.511  0.00  0.00    +0.000 A 
ATOM     26  F   UNL     1       9.221   8.655  19.037  0.00  0.00    +0.000 F 
ATOM     27  C   UNL     1       8.275   6.510  18.816  0.00  0.00    +0.000 A 
ATOM     28  C   UNL     1       7.304   5.676  18.253  0.00  0.00    +0.000 A 
ENDBRANCH  21  22
BRANCH  21  29
ATOM     29  C   UNL     1       5.912   4.888  15.191  0.00  0.00    +0.000 A 
ATOM     30  C   UNL     1       5.137   4.092  14.317  0.00  0.00    +0.000 A 
ATOM     31  C   UNL     1       5.629   3.670  13.080  0.00  0.00    +0.000 A 
ATOM     32  C   UNL     1       6.903   4.051  12.690  0.00  0.00    +0.000 A 
ATOM     33  F   UNL     1       7.388   3.634  11.514  0.00  0.00    +0.000 F 
ATOM     34  C   UNL     1       7.683   4.859  13.505  0.00  0.00    +0.000 A 
ATOM     35  C   UNL     1       7.185   5.289  14.740  0.00  0.00    +0.000 A 
ENDBRANCH  21  29
BRANCH  21  36
ATOM     36  O   UNL     1       4.148   5.977  16.292  0.00  0.00    +0.000 OA
ATOM     37  H   UNL     1       3.497   5.353  15.953  0.00  0.00    +0.000 HD
ENDBRANCH  21  36
ENDBRANCH   4  21
TORSDOF 10
ENDMDL
