MODEL 1
REMARK VINA RESULT:      -7.9      0.000      0.000
REMARK  Name = 
REMARK  7 active torsions:
REMARK  status: ('A' for Active; 'I' for Inactive)
REMARK    1  A    between atoms: C_1  and  C_2
REMARK    2  A    between atoms: C_8  and  C_9
REMARK    3  A    between atoms: C_12  and  C_13
REMARK    4  A    between atoms: C_16  and  C_17
REMARK    5  A    between atoms: C_17  and  N_18
REMARK    6  A    between atoms: N_21  and  C_22
REMARK    7  A    between atoms: N_25  and  C_26
REMARK                            x       y       z     vdW  Elec       q    Type
REMARK                         _______ _______ _______ _____ _____    ______ ____
ROOT
ATOM      1  C   UNL     1       0.372   8.972  21.307  0.00  0.00    +0.000 A 
ATOM      2  C   UNL     1       0.085   9.142  22.674  0.00  0.00    +0.000 A 
ATOM      3  C   UNL     1      -0.691  10.228  23.116  0.00  0.00    +0.000 A 
ATOM      4  C   UNL     1      -1.188  11.180  22.205  0.00  0.00    +0.000 A 
ATOM      5  C   UNL     1      -0.914  10.984  20.847  0.00  0.00    +0.000 A 
ATOM      6  C   UNL     1      -0.146   9.914  20.406  0.00  0.00    +0.000 A 
ENDROOT
BRANCH   1  10
ATOM      7  C   UNL     1       2.613   6.413  19.346  0.00  0.00    +0.000 A 
ATOM      8  C   UNL     1       1.954   5.695  20.315  0.00  0.00    +0.000 A 
ATOM      9  C   UNL     1       1.123   6.524  21.115  0.00  0.00    +0.000 A 
ATOM     10  C   UNL     1       1.151   7.859  20.739  0.00  0.00    +0.000 A 
ATOM     11  S   UNL     1       2.206   8.080  19.415  0.00  0.00    +0.000 S 
BRANCH   7  19
ATOM     12  C   UNL     1       7.663   6.968  17.164  0.00  0.00    +0.000 C 
ATOM     13  C   UNL     1       6.729   5.895  16.719  0.00  0.00    +0.000 A 
ATOM     14  C   UNL     1       7.073   4.949  15.734  0.00  0.00    +0.000 A 
ATOM     15  C   UNL     1       6.193   3.942  15.320  0.00  0.00    +0.000 A 
ATOM     16  C   UNL     1       4.910   3.834  15.880  0.00  0.00    +0.000 A 
ATOM     17  C   UNL     1       4.542   4.757  16.869  0.00  0.00    +0.000 A 
ATOM     18  N   UNL     1       3.363   4.880  17.579  0.00  0.00    +0.000 NA
ATOM     19  C   UNL     1       3.540   5.910  18.380  0.00  0.00    +0.000 A 
ATOM     20  N   UNL     1       4.777   6.465  18.190  0.00  0.00    +0.000 N 
ATOM     21  C   UNL     1       5.435   5.745  17.241  0.00  0.00    +0.000 A 
ATOM     22  H   UNL     1       5.132   7.264  18.693  0.00  0.00    +0.000 HD
ENDBRANCH   7  19
ENDBRANCH   1  10
BRANCH   4  23
ATOM     23  C   UNL     1      -2.094  12.345  22.541  0.00  0.00    +0.000 C 
BRANCH  23  24
ATOM     24  N   UNL     1      -2.484  13.226  21.437  0.00  0.00    +0.000 NA
ATOM     25  C   UNL     1      -3.738  12.837  20.775  0.00  0.00    +0.000 C 
ATOM     26  C   UNL     1      -5.079  13.234  21.452  0.00  0.00    +0.000 C 
ATOM     27  N   UNL     1      -5.186  14.585  22.041  0.00  0.00    +0.000 NA
ATOM     28  C   UNL     1      -3.905  15.041  22.609  0.00  0.00    +0.000 C 
ATOM     29  C   UNL     1      -2.588  14.619  21.909  0.00  0.00    +0.000 C 
BRANCH  27  30
ATOM     30  C   UNL     1      -5.878  15.555  21.157  0.00  0.00    +0.000 C 
ATOM     31  C   UNL     1      -6.995  14.895  20.344  0.00  0.00    +0.000 C 
ATOM     32  C   UNL     1      -7.606  15.803  19.297  0.00  0.00    +0.000 C 
ATOM     33  N   UNL     1      -6.562  16.380  18.452  0.00  0.00    +0.000 NA
ATOM     34  C   UNL     1      -7.176  17.111  17.349  0.00  0.00    +0.000 C 
ATOM     35  C   UNL     1      -5.679  17.240  19.249  0.00  0.00    +0.000 C 
ATOM     36  C   UNL     1      -4.920  16.401  20.279  0.00  0.00    +0.000 C 
ENDBRANCH  27  30
ENDBRANCH  23  24
ENDBRANCH   4  23
TORSDOF 5
ENDMDL
MODEL 2
REMARK VINA RESULT:      -7.9      1.599      2.440
REMARK  Name = 
REMARK  7 active torsions:
REMARK  status: ('A' for Active; 'I' for Inactive)
REMARK    1  A    between atoms: C_1  and  C_2
REMARK    2  A    between atoms: C_8  and  C_9
REMARK    3  A    between atoms: C_12  and  C_13
REMARK    4  A    between atoms: C_16  and  C_17
REMARK    5  A    between atoms: C_17  and  N_18
REMARK    6  A    between atoms: N_21  and  C_22
REMARK    7  A    between atoms: N_25  and  C_26
REMARK                            x       y       z     vdW  Elec       q    Type
REMARK                         _______ _______ _______ _____ _____    ______ ____
ROOT
ATOM      1  C   UNL     1       0.146  10.509  21.472  0.00  0.00    +0.000 A 
ATOM      2  C   UNL     1       0.463  11.821  21.073  0.00  0.00    +0.000 A 
ATOM      3  C   UNL     1      -0.233  12.921  21.602  0.00  0.00    +0.000 A 
ATOM      4  C   UNL     1      -1.274  12.740  22.533  0.00  0.00    +0.000 A 
ATOM      5  C   UNL     1      -1.561  11.432  22.937  0.00  0.00    +0.000 A 
ATOM      6  C   UNL     1      -0.878  10.341  22.416  0.00  0.00    +0.000 A 
ENDROOT
BRANCH   1  10
ATOM      7  C   UNL     1       2.094   7.598  19.698  0.00  0.00    +0.000 A 
ATOM      8  C   UNL     1       1.511   7.055  20.818  0.00  0.00    +0.000 A 
ATOM      9  C   UNL     1       0.792   8.027  21.565  0.00  0.00    +0.000 A 
ATOM     10  C   UNL     1       0.828   9.293  20.999  0.00  0.00    +0.000 A 
ATOM     11  S   UNL     1       1.751   9.276  19.564  0.00  0.00    +0.000 S 
BRANCH   7  19
ATOM     12  C   UNL     1       3.669   2.681  17.721  0.00  0.00    +0.000 C 
ATOM     13  C   UNL     1       4.153   3.958  17.125  0.00  0.00    +0.000 A 
ATOM     14  C   UNL     1       5.023   3.999  16.018  0.00  0.00    +0.000 A 
ATOM     15  C   UNL     1       5.474   5.200  15.461  0.00  0.00    +0.000 A 
ATOM     16  C   UNL     1       5.071   6.436  15.994  0.00  0.00    +0.000 A 
ATOM     17  C   UNL     1       4.199   6.428  17.091  0.00  0.00    +0.000 A 
ATOM     18  N   UNL     1       3.650   7.478  17.800  0.00  0.00    +0.000 NA
ATOM     19  C   UNL     1       2.903   6.922  18.732  0.00  0.00    +0.000 A 
ATOM     20  N   UNL     1       2.976   5.557  18.660  0.00  0.00    +0.000 N 
ATOM     21  C   UNL     1       3.786   5.219  17.621  0.00  0.00    +0.000 A 
ATOM     22  H   UNL     1       2.487   4.923  19.274  0.00  0.00    +0.000 HD
ENDBRANCH   7  19
ENDBRANCH   1  10
BRANCH   4  23
ATOM     23  C   UNL     1      -2.045  13.839  23.231  0.00  0.00    +0.000 C 
BRANCH  23  24
ATOM     24  N   UNL     1      -3.023  14.580  22.431  0.00  0.00    +0.000 NA
ATOM     25  C   UNL     1      -2.890  14.372  20.981  0.00  0.00    +0.000 C 
ATOM     26  C   UNL     1      -3.495  13.079  20.367  0.00  0.00    +0.000 C 
ATOM     27  N   UNL     1      -4.820  12.636  20.848  0.00  0.00    +0.000 NA
ATOM     28  C   UNL     1      -5.017  12.941  22.276  0.00  0.00    +0.000 C 
ATOM     29  C   UNL     1      -4.393  14.238  22.853  0.00  0.00    +0.000 C 
BRANCH  27  30
ATOM     30  C   UNL     1      -5.932  13.032  19.947  0.00  0.00    +0.000 C 
ATOM     31  C   UNL     1      -5.889  12.274  18.617  0.00  0.00    +0.000 C 
ATOM     32  C   UNL     1      -6.892  12.775  17.598  0.00  0.00    +0.000 C 
ATOM     33  N   UNL     1      -6.764  14.221  17.426  0.00  0.00    +0.000 NA
ATOM     34  C   UNL     1      -7.614  14.657  16.324  0.00  0.00    +0.000 C 
ATOM     35  C   UNL     1      -7.097  14.913  18.677  0.00  0.00    +0.000 C 
ATOM     36  C   UNL     1      -6.075  14.563  19.759  0.00  0.00    +0.000 C 
ENDBRANCH  27  30
ENDBRANCH  23  24
ENDBRANCH   4  23
TORSDOF 5
ENDMDL
MODEL 3
REMARK VINA RESULT:      -7.4      2.464     13.123
REMARK  Name = 
REMARK  7 active torsions:
REMARK  status: ('A' for Active; 'I' for Inactive)
REMARK    1  A    between atoms: C_1  and  C_2
REMARK    2  A    between atoms: C_8  and  C_9
REMARK    3  A    between atoms: C_12  and  C_13
REMARK    4  A    between atoms: C_16  and  C_17
REMARK    5  A    between atoms: C_17  and  N_18
REMARK    6  A    between atoms: N_21  and  C_22
REMARK    7  A    between atoms: N_25  and  C_26
REMARK                            x       y       z     vdW  Elec       q    Type
REMARK                         _______ _______ _______ _____ _____    ______ ____
ROOT
ATOM      1  C   UNL     1       0.218   9.952  20.163  0.00  0.00    +0.000 A 
ATOM      2  C   UNL     1       0.975   9.705  19.003  0.00  0.00    +0.000 A 
ATOM      3  C   UNL     1       1.817   8.582  18.921  0.00  0.00    +0.000 A 
ATOM      4  C   UNL     1       1.937   7.686  20.000  0.00  0.00    +0.000 A 
ATOM      5  C   UNL     1       1.159   7.933  21.137  0.00  0.00    +0.000 A 
ATOM      6  C   UNL     1       0.327   9.042  21.224  0.00  0.00    +0.000 A 
ENDROOT
BRANCH   1  10
ATOM      7  C   UNL     1      -2.220  12.833  21.250  0.00  0.00    +0.000 A 
ATOM      8  C   UNL     1      -2.270  12.772  19.878  0.00  0.00    +0.000 A 
ATOM      9  C   UNL     1      -1.402  11.775  19.359  0.00  0.00    +0.000 A 
ATOM     10  C   UNL     1      -0.710  11.082  20.342  0.00  0.00    +0.000 A 
ATOM     11  S   UNL     1      -1.127  11.670  21.889  0.00  0.00    +0.000 S 
BRANCH   7  19
ATOM     12  C   UNL     1      -1.845  16.462  25.404  0.00  0.00    +0.000 C 
ATOM     13  C   UNL     1      -3.144  16.164  24.737  0.00  0.00    +0.000 A 
ATOM     14  C   UNL     1      -4.349  16.791  25.106  0.00  0.00    +0.000 A 
ATOM     15  C   UNL     1      -5.567  16.509  24.476  0.00  0.00    +0.000 A 
ATOM     16  C   UNL     1      -5.636  15.570  23.434  0.00  0.00    +0.000 A 
ATOM     17  C   UNL     1      -4.450  14.934  23.040  0.00  0.00    +0.000 A 
ATOM     18  N   UNL     1      -4.232  13.987  22.058  0.00  0.00    +0.000 NA
ATOM     19  C   UNL     1      -2.942  13.725  22.102  0.00  0.00    +0.000 A 
ATOM     20  N   UNL     1      -2.334  14.450  23.092  0.00  0.00    +0.000 N 
ATOM     21  C   UNL     1      -3.270  15.231  23.696  0.00  0.00    +0.000 A 
ATOM     22  H   UNL     1      -1.350  14.412  23.310  0.00  0.00    +0.000 HD
ENDBRANCH   7  19
ENDBRANCH   1  10
BRANCH   4  23
ATOM     23  C   UNL     1       2.744   6.406  20.010  0.00  0.00    +0.000 C 
BRANCH  23  24
ATOM     24  N   UNL     1       2.886   5.698  18.735  0.00  0.00    +0.000 NA
ATOM     25  C   UNL     1       3.562   6.479  17.689  0.00  0.00    +0.000 C 
ATOM     26  C   UNL     1       5.114   6.557  17.719  0.00  0.00    +0.000 C 
ATOM     27  N   UNL     1       5.866   5.324  18.031  0.00  0.00    +0.000 NA
ATOM     28  C   UNL     1       5.147   4.471  18.995  0.00  0.00    +0.000 C 
ATOM     29  C   UNL     1       3.599   4.424  18.937  0.00  0.00    +0.000 C 
BRANCH  27  30
ATOM     30  C   UNL     1       6.384   4.634  16.824  0.00  0.00    +0.000 C 
ATOM     31  C   UNL     1       7.072   5.605  15.860  0.00  0.00    +0.000 C 
ATOM     32  C   UNL     1       7.454   4.979  14.535  0.00  0.00    +0.000 C 
ATOM     33  N   UNL     1       6.300   4.313  13.934  0.00  0.00    +0.000 NA
ATOM     34  C   UNL     1       6.640   3.867  12.588  0.00  0.00    +0.000 C 
ATOM     35  C   UNL     1       5.858   3.199  14.781  0.00  0.00    +0.000 C 
ATOM     36  C   UNL     1       5.343   3.729  16.119  0.00  0.00    +0.000 C 
ENDBRANCH  27  30
ENDBRANCH  23  24
ENDBRANCH   4  23
TORSDOF 5
ENDMDL
MODEL 4
REMARK VINA RESULT:      -7.3      5.284      7.850
REMARK  Name = 
REMARK  7 active torsions:
REMARK  status: ('A' for Active; 'I' for Inactive)
REMARK    1  A    between atoms: C_1  and  C_2
REMARK    2  A    between atoms: C_8  and  C_9
REMARK    3  A    between atoms: C_12  and  C_13
REMARK    4  A    between atoms: C_16  and  C_17
REMARK    5  A    between atoms: C_17  and  N_18
REMARK    6  A    between atoms: N_21  and  C_22
REMARK    7  A    between atoms: N_25  and  C_26
REMARK                            x       y       z     vdW  Elec       q    Type
REMARK                         _______ _______ _______ _____ _____    ______ ____
ROOT
ATOM      1  C   UNL     1       0.998  11.478  20.143  0.00  0.00    +0.000 A 
ATOM      2  C   UNL     1       0.538  12.455  21.046  0.00  0.00    +0.000 A 
ATOM      3  C   UNL     1       0.441  13.802  20.658  0.00  0.00    +0.000 A 
ATOM      4  C   UNL     1       0.814  14.212  19.363  0.00  0.00    +0.000 A 
ATOM      5  C   UNL     1       1.246  13.225  18.471  0.00  0.00    +0.000 A 
ATOM      6  C   UNL     1       1.346  11.893  18.850  0.00  0.00    +0.000 A 
ENDROOT
BRANCH   1  10
ATOM      7  C   UNL     1       1.481   7.586  20.337  0.00  0.00    +0.000 A 
ATOM      8  C   UNL     1       0.894   7.968  21.520  0.00  0.00    +0.000 A 
ATOM      9  C   UNL     1       0.691   9.373  21.581  0.00  0.00    +0.000 A 
ATOM     10  C   UNL     1       1.114  10.041  20.440  0.00  0.00    +0.000 A 
ATOM     11  S   UNL     1       1.766   8.936  19.314  0.00  0.00    +0.000 S 
BRANCH   7  19
ATOM     12  C   UNL     1       4.442   4.544  16.795  0.00  0.00    +0.000 C 
ATOM     13  C   UNL     1       3.641   3.920  17.886  0.00  0.00    +0.000 A 
ATOM     14  C   UNL     1       3.596   2.529  18.097  0.00  0.00    +0.000 A 
ATOM     15  C   UNL     1       2.843   1.947  19.123  0.00  0.00    +0.000 A 
ATOM     16  C   UNL     1       2.087   2.743  19.999  0.00  0.00    +0.000 A 
ATOM     17  C   UNL     1       2.117   4.134  19.819  0.00  0.00    +0.000 A 
ATOM     18  N   UNL     1       1.482   5.137  20.524  0.00  0.00    +0.000 NA
ATOM     19  C   UNL     1       1.847   6.261  19.944  0.00  0.00    +0.000 A 
ATOM     20  N   UNL     1       2.671   6.011  18.879  0.00  0.00    +0.000 N 
ATOM     21  C   UNL     1       2.864   4.668  18.784  0.00  0.00    +0.000 A 
ATOM     22  H   UNL     1       3.073   6.721  18.285  0.00  0.00    +0.000 HD
ENDBRANCH   7  19
ENDBRANCH   1  10
BRANCH   4  23
ATOM     23  C   UNL     1       0.685  15.611  18.800  0.00  0.00    +0.000 C 
BRANCH  23  24
ATOM     24  N   UNL     1       1.808  16.525  19.022  0.00  0.00    +0.000 NA
ATOM     25  C   UNL     1       2.704  16.118  20.114  0.00  0.00    +0.000 C 
ATOM     26  C   UNL     1       3.766  15.021  19.822  0.00  0.00    +0.000 C 
ATOM     27  N   UNL     1       4.490  15.080  18.535  0.00  0.00    +0.000 NA
ATOM     28  C   UNL     1       3.638  15.597  17.448  0.00  0.00    +0.000 C 
ATOM     29  C   UNL     1       2.586  16.686  17.781  0.00  0.00    +0.000 C 
BRANCH  27  30
ATOM     30  C   UNL     1       5.833  15.700  18.647  0.00  0.00    +0.000 C 
ATOM     31  C   UNL     1       6.858  15.018  17.736  0.00  0.00    +0.000 C 
ATOM     32  C   UNL     1       8.279  15.495  17.951  0.00  0.00    +0.000 C 
ATOM     33  N   UNL     1       8.637  15.406  19.366  0.00  0.00    +0.000 NA
ATOM     34  C   UNL     1      10.055  15.706  19.529  0.00  0.00    +0.000 C 
ATOM     35  C   UNL     1       7.796  16.308  20.162  0.00  0.00    +0.000 C 
ATOM     36  C   UNL     1       6.337  15.851  20.105  0.00  0.00    +0.000 C 
ENDBRANCH  27  30
ENDBRANCH  23  24
ENDBRANCH   4  23
TORSDOF 5
ENDMDL
MODEL 5
REMARK VINA RESULT:      -7.2      1.743      2.669
REMARK  Name = 
REMARK  7 active torsions:
REMARK  status: ('A' for Active; 'I' for Inactive)
REMARK    1  A    between atoms: C_1  and  C_2
REMARK    2  A    between atoms: C_8  and  C_9
REMARK    3  A    between atoms: C_12  and  C_13
REMARK    4  A    between atoms: C_16  and  C_17
REMARK    5  A    between atoms: C_17  and  N_18
REMARK    6  A    between atoms: N_21  and  C_22
REMARK    7  A    between atoms: N_25  and  C_26
REMARK                            x       y       z     vdW  Elec       q    Type
REMARK                         _______ _______ _______ _____ _____    ______ ____
ROOT
ATOM      1  C   UNL     1       0.025  11.254  21.223  0.00  0.00    +0.000 A 
ATOM      2  C   UNL     1      -0.921  10.841  22.178  0.00  0.00    +0.000 A 
ATOM      3  C   UNL     1      -1.497  11.766  23.066  0.00  0.00    +0.000 A 
ATOM      4  C   UNL     1      -1.132  13.126  23.032  0.00  0.00    +0.000 A 
ATOM      5  C   UNL     1      -0.208  13.524  22.060  0.00  0.00    +0.000 A 
ATOM      6  C   UNL     1       0.366  12.614  21.183  0.00  0.00    +0.000 A 
ENDROOT
BRANCH   1  10
ATOM      7  C   UNL     1       1.834   8.516  19.066  0.00  0.00    +0.000 A 
ATOM      8  C   UNL     1       1.678   9.615  18.255  0.00  0.00    +0.000 A 
ATOM      9  C   UNL     1       1.006  10.674  18.922  0.00  0.00    +0.000 A 
ATOM     10  C   UNL     1       0.669  10.373  20.234  0.00  0.00    +0.000 A 
ATOM     11  S   UNL     1       1.172   8.790  20.627  0.00  0.00    +0.000 S 
BRANCH   7  19
ATOM     12  C   UNL     1       5.407   5.974  15.699  0.00  0.00    +0.000 C 
ATOM     13  C   UNL     1       4.697   5.243  16.785  0.00  0.00    +0.000 A 
ATOM     14  C   UNL     1       4.897   3.871  17.036  0.00  0.00    +0.000 A 
ATOM     15  C   UNL     1       4.228   3.188  18.058  0.00  0.00    +0.000 A 
ATOM     16  C   UNL     1       3.313   3.856  18.889  0.00  0.00    +0.000 A 
ATOM     17  C   UNL     1       3.098   5.224  18.668  0.00  0.00    +0.000 A 
ATOM     18  N   UNL     1       2.270   6.112  19.326  0.00  0.00    +0.000 NA
ATOM     19  C   UNL     1       2.445   7.270  18.723  0.00  0.00    +0.000 A 
ATOM     20  N   UNL     1       3.334   7.147  17.689  0.00  0.00    +0.000 N 
ATOM     21  C   UNL     1       3.769   5.859  17.639  0.00  0.00    +0.000 A 
ATOM     22  H   UNL     1       3.621   7.903  17.085  0.00  0.00    +0.000 HD
ENDBRANCH   7  19
ENDBRANCH   1  10
BRANCH   4  23
ATOM     23  C   UNL     1      -1.731  14.230  23.876  0.00  0.00    +0.000 C 
BRANCH  23  24
ATOM     24  N   UNL     1      -3.115  14.613  23.587  0.00  0.00    +0.000 NA
ATOM     25  C   UNL     1      -3.450  15.989  23.985  0.00  0.00    +0.000 C 
ATOM     26  C   UNL     1      -3.023  17.150  23.045  0.00  0.00    +0.000 C 
ATOM     27  N   UNL     1      -3.191  16.963  21.589  0.00  0.00    +0.000 NA
ATOM     28  C   UNL     1      -2.971  15.562  21.186  0.00  0.00    +0.000 C 
ATOM     29  C   UNL     1      -3.406  14.432  22.153  0.00  0.00    +0.000 C 
BRANCH  27  30
ATOM     30  C   UNL     1      -4.421  17.599  21.056  0.00  0.00    +0.000 C 
ATOM     31  C   UNL     1      -5.666  16.745  21.315  0.00  0.00    +0.000 C 
ATOM     32  C   UNL     1      -6.914  17.264  20.632  0.00  0.00    +0.000 C 
ATOM     33  N   UNL     1      -6.664  17.475  19.207  0.00  0.00    +0.000 NA
ATOM     34  C   UNL     1      -7.915  17.809  18.537  0.00  0.00    +0.000 C 
ATOM     35  C   UNL     1      -5.650  18.520  19.018  0.00  0.00    +0.000 C 
ATOM     36  C   UNL     1      -4.306  18.054  19.579  0.00  0.00    +0.000 C 
ENDBRANCH  27  30
ENDBRANCH  23  24
ENDBRANCH   4  23
TORSDOF 5
ENDMDL
MODEL 6
REMARK VINA RESULT:      -7.1      1.817     13.188
REMARK  Name = 
REMARK  7 active torsions:
REMARK  status: ('A' for Active; 'I' for Inactive)
REMARK    1  A    between atoms: C_1  and  C_2
REMARK    2  A    between atoms: C_8  and  C_9
REMARK    3  A    between atoms: C_12  and  C_13
REMARK    4  A    between atoms: C_16  and  C_17
REMARK    5  A    between atoms: C_17  and  N_18
REMARK    6  A    between atoms: N_21  and  C_22
REMARK    7  A    between atoms: N_25  and  C_26
REMARK                            x       y       z     vdW  Elec       q    Type
REMARK                         _______ _______ _______ _____ _____    ______ ____
ROOT
ATOM      1  C   UNL     1       0.021  10.135  20.575  0.00  0.00    +0.000 A 
ATOM      2  C   UNL     1       0.419   9.986  19.234  0.00  0.00    +0.000 A 
ATOM      3  C   UNL     1       1.238   8.913  18.842  0.00  0.00    +0.000 A 
ATOM      4  C   UNL     1       1.693   7.968  19.782  0.00  0.00    +0.000 A 
ATOM      5  C   UNL     1       1.268   8.117  21.108  0.00  0.00    +0.000 A 
ATOM      6  C   UNL     1       0.461   9.177  21.500  0.00  0.00    +0.000 A 
ENDROOT
BRANCH   1  10
ATOM      7  C   UNL     1      -2.388  13.143  21.331  0.00  0.00    +0.000 A 
ATOM      8  C   UNL     1      -1.890  12.724  22.542  0.00  0.00    +0.000 A 
ATOM      9  C   UNL     1      -1.017  11.612  22.400  0.00  0.00    +0.000 A 
ATOM     10  C   UNL     1      -0.852  11.206  21.084  0.00  0.00    +0.000 A 
ATOM     11  S   UNL     1      -1.779  12.187  20.040  0.00  0.00    +0.000 S 
BRANCH   7  19
ATOM     12  C   UNL     1      -7.660  14.500  20.367  0.00  0.00    +0.000 C 
ATOM     13  C   UNL     1      -6.595  15.534  20.501  0.00  0.00    +0.000 A 
ATOM     14  C   UNL     1      -6.860  16.914  20.409  0.00  0.00    +0.000 A 
ATOM     15  C   UNL     1      -5.857  17.882  20.536  0.00  0.00    +0.000 A 
ATOM     16  C   UNL     1      -4.523  17.508  20.765  0.00  0.00    +0.000 A 
ATOM     17  C   UNL     1      -4.229  16.141  20.869  0.00  0.00    +0.000 A 
ATOM     18  N   UNL     1      -3.024  15.503  21.091  0.00  0.00    +0.000 NA
ATOM     19  C   UNL     1      -3.303  14.216  21.099  0.00  0.00    +0.000 A 
ATOM     20  N   UNL     1      -4.636  14.008  20.865  0.00  0.00    +0.000 N 
ATOM     21  C   UNL     1      -5.247  15.215  20.724  0.00  0.00    +0.000 A 
ATOM     22  H   UNL     1      -5.077  13.101  20.825  0.00  0.00    +0.000 HD
ENDBRANCH   7  19
ENDBRANCH   1  10
BRANCH   4  23
ATOM     23  C   UNL     1       2.510   6.731  19.479  0.00  0.00    +0.000 C 
BRANCH  23  24
ATOM     24  N   UNL     1       2.902   6.517  18.083  0.00  0.00    +0.000 NA
ATOM     25  C   UNL     1       4.213   7.085  17.736  0.00  0.00    +0.000 C 
ATOM     26  C   UNL     1       5.486   6.283  18.126  0.00  0.00    +0.000 C 
ATOM     27  N   UNL     1       5.473   4.819  17.930  0.00  0.00    +0.000 NA
ATOM     28  C   UNL     1       4.135   4.246  18.162  0.00  0.00    +0.000 C 
ATOM     29  C   UNL     1       2.889   5.078  17.765  0.00  0.00    +0.000 C 
BRANCH  27  30
ATOM     30  C   UNL     1       6.147   4.390  16.680  0.00  0.00    +0.000 C 
ATOM     31  C   UNL     1       7.250   5.366  16.259  0.00  0.00    +0.000 C 
ATOM     32  C   UNL     1       7.840   5.069  14.897  0.00  0.00    +0.000 C 
ATOM     33  N   UNL     1       6.780   4.953  13.897  0.00  0.00    +0.000 NA
ATOM     34  C   UNL     1       7.374   4.837  12.570  0.00  0.00    +0.000 C 
ATOM     35  C   UNL     1       5.912   3.811  14.206  0.00  0.00    +0.000 C 
ATOM     36  C   UNL     1       5.173   4.054  15.522  0.00  0.00    +0.000 C 
ENDBRANCH  27  30
ENDBRANCH  23  24
ENDBRANCH   4  23
TORSDOF 5
ENDMDL
MODEL 7
REMARK VINA RESULT:      -7.1      3.077      4.244
REMARK  Name = 
REMARK  7 active torsions:
REMARK  status: ('A' for Active; 'I' for Inactive)
REMARK    1  A    between atoms: C_1  and  C_2
REMARK    2  A    between atoms: C_8  and  C_9
REMARK    3  A    between atoms: C_12  and  C_13
REMARK    4  A    between atoms: C_16  and  C_17
REMARK    5  A    between atoms: C_17  and  N_18
REMARK    6  A    between atoms: N_21  and  C_22
REMARK    7  A    between atoms: N_25  and  C_26
REMARK                            x       y       z     vdW  Elec       q    Type
REMARK                         _______ _______ _______ _____ _____    ______ ____
ROOT
ATOM      1  C   UNL     1       0.863  11.890  19.371  0.00  0.00    +0.000 A 
ATOM      2  C   UNL     1       0.402  12.845  18.445  0.00  0.00    +0.000 A 
ATOM      3  C   UNL     1       0.044  14.137  18.864  0.00  0.00    +0.000 A 
ATOM      4  C   UNL     1       0.122  14.507  20.220  0.00  0.00    +0.000 A 
ATOM      5  C   UNL     1       0.605  13.554  21.124  0.00  0.00    +0.000 A 
ATOM      6  C   UNL     1       0.958  12.275  20.716  0.00  0.00    +0.000 A 
ENDROOT
BRANCH   1  10
ATOM      7  C   UNL     1       1.906   8.116  19.079  0.00  0.00    +0.000 A 
ATOM      8  C   UNL     1       2.190   8.697  17.866  0.00  0.00    +0.000 A 
ATOM      9  C   UNL     1       1.829  10.070  17.839  0.00  0.00    +0.000 A 
ATOM     10  C   UNL     1       1.285  10.520  19.034  0.00  0.00    +0.000 A 
ATOM     11  S   UNL     1       1.216   9.249  20.170  0.00  0.00    +0.000 S 
BRANCH   7  19
ATOM     12  C   UNL     1       4.079   3.264  17.562  0.00  0.00    +0.000 C 
ATOM     13  C   UNL     1       3.415   3.447  18.883  0.00  0.00    +0.000 A 
ATOM     14  C   UNL     1       3.311   2.412  19.832  0.00  0.00    +0.000 A 
ATOM     15  C   UNL     1       2.687   2.589  21.072  0.00  0.00    +0.000 A 
ATOM     16  C   UNL     1       2.129   3.829  21.425  0.00  0.00    +0.000 A 
ATOM     17  C   UNL     1       2.224   4.881  20.504  0.00  0.00    +0.000 A 
ATOM     18  N   UNL     1       1.772   6.183  20.590  0.00  0.00    +0.000 NA
ATOM     19  C   UNL     1       2.118   6.752  19.454  0.00  0.00    +0.000 A 
ATOM     20  N   UNL     1       2.751   5.855  18.636  0.00  0.00    +0.000 N 
ATOM     21  C   UNL     1       2.837   4.662  19.284  0.00  0.00    +0.000 A 
ATOM     22  H   UNL     1       3.104   6.067  17.715  0.00  0.00    +0.000 HD
ENDBRANCH   7  19
ENDBRANCH   1  10
BRANCH   4  23
ATOM     23  C   UNL     1      -0.158  15.882  20.787  0.00  0.00    +0.000 C 
BRANCH  23  24
ATOM     24  N   UNL     1      -1.558  16.311  20.832  0.00  0.00    +0.000 NA
ATOM     25  C   UNL     1      -2.496  15.252  21.234  0.00  0.00    +0.000 C 
ATOM     26  C   UNL     1      -2.636  14.931  22.748  0.00  0.00    +0.000 C 
ATOM     27  N   UNL     1      -2.673  16.063  23.698  0.00  0.00    +0.000 NA
ATOM     28  C   UNL     1      -1.826  17.183  23.251  0.00  0.00    +0.000 C 
ATOM     29  C   UNL     1      -1.708  17.468  21.732  0.00  0.00    +0.000 C 
BRANCH  27  30
ATOM     30  C   UNL     1      -4.049  16.426  24.119  0.00  0.00    +0.000 C 
ATOM     31  C   UNL     1      -5.109  15.851  23.175  0.00  0.00    +0.000 C 
ATOM     32  C   UNL     1      -6.512  16.345  23.460  0.00  0.00    +0.000 C 
ATOM     33  N   UNL     1      -6.537  17.806  23.510  0.00  0.00    +0.000 NA
ATOM     34  C   UNL     1      -7.917  18.267  23.614  0.00  0.00    +0.000 C 
ATOM     35  C   UNL     1      -5.716  18.291  24.626  0.00  0.00    +0.000 C 
ATOM     36  C   UNL     1      -4.247  17.939  24.389  0.00  0.00    +0.000 C 
ENDBRANCH  27  30
ENDBRANCH  23  24
ENDBRANCH   4  23
TORSDOF 5
ENDMDL
MODEL 8
REMARK VINA RESULT:      -7.0      5.527      7.559
REMARK  Name = 
REMARK  7 active torsions:
REMARK  status: ('A' for Active; 'I' for Inactive)
REMARK    1  A    between atoms: C_1  and  C_2
REMARK    2  A    between atoms: C_8  and  C_9
REMARK    3  A    between atoms: C_12  and  C_13
REMARK    4  A    between atoms: C_16  and  C_17
REMARK    5  A    between atoms: C_17  and  N_18
REMARK    6  A    between atoms: N_21  and  C_22
REMARK    7  A    between atoms: N_25  and  C_26
REMARK                            x       y       z     vdW  Elec       q    Type
REMARK                         _______ _______ _______ _____ _____    ______ ____
ROOT
ATOM      1  C   UNL     1       0.745  11.648  19.885  0.00  0.00    +0.000 A 
ATOM      2  C   UNL     1       0.247  12.128  18.659  0.00  0.00    +0.000 A 
ATOM      3  C   UNL     1      -0.001  13.499  18.473  0.00  0.00    +0.000 A 
ATOM      4  C   UNL     1       0.227  14.424  19.510  0.00  0.00    +0.000 A 
ATOM      5  C   UNL     1       0.744  13.933  20.714  0.00  0.00    +0.000 A 
ATOM      6  C   UNL     1       0.989  12.580  20.904  0.00  0.00    +0.000 A 
ENDROOT
BRANCH   1  10
ATOM      7  C   UNL     1       1.701   7.842  20.045  0.00  0.00    +0.000 A 
ATOM      8  C   UNL     1       1.208   8.176  21.284  0.00  0.00    +0.000 A 
ATOM      9  C   UNL     1       0.849   9.548  21.359  0.00  0.00    +0.000 A 
ATOM     10  C   UNL     1       1.061  10.239  20.174  0.00  0.00    +0.000 A 
ATOM     11  S   UNL     1       1.710   9.197  18.988  0.00  0.00    +0.000 S 
BRANCH   7  19
ATOM     12  C   UNL     1       2.634   2.606  21.553  0.00  0.00    +0.000 C 
ATOM     13  C   UNL     1       2.893   3.081  20.165  0.00  0.00    +0.000 A 
ATOM     14  C   UNL     1       3.372   2.232  19.148  0.00  0.00    +0.000 A 
ATOM     15  C   UNL     1       3.613   2.681  17.845  0.00  0.00    +0.000 A 
ATOM     16  C   UNL     1       3.383   4.022  17.493  0.00  0.00    +0.000 A 
ATOM     17  C   UNL     1       2.898   4.889  18.482  0.00  0.00    +0.000 A 
ATOM     18  N   UNL     1       2.586   6.233  18.413  0.00  0.00    +0.000 NA
ATOM     19  C   UNL     1       2.175   6.562  19.620  0.00  0.00    +0.000 A 
ATOM     20  N   UNL     1       2.237   5.485  20.463  0.00  0.00    +0.000 N 
ATOM     21  C   UNL     1       2.685   4.409  19.762  0.00  0.00    +0.000 A 
ATOM     22  H   UNL     1       1.972   5.501  21.437  0.00  0.00    +0.000 HD
ENDBRANCH   7  19
ENDBRANCH   1  10
BRANCH   4  23
ATOM     23  C   UNL     1       0.074  15.926  19.413  0.00  0.00    +0.000 C 
BRANCH  23  24
ATOM     24  N   UNL     1       1.111  16.656  18.680  0.00  0.00    +0.000 NA
ATOM     25  C   UNL     1       1.595  17.862  19.369  0.00  0.00    +0.000 C 
ATOM     26  C   UNL     1       2.642  17.687  20.504  0.00  0.00    +0.000 C 
ATOM     27  N   UNL     1       3.738  16.718  20.296  0.00  0.00    +0.000 NA
ATOM     28  C   UNL     1       3.299  15.554  19.506  0.00  0.00    +0.000 C 
ATOM     29  C   UNL     1       2.249  15.767  18.386  0.00  0.00    +0.000 C 
BRANCH  27  30
ATOM     30  C   UNL     1       5.004  17.353  19.855  0.00  0.00    +0.000 C 
ATOM     31  C   UNL     1       5.928  16.358  19.145  0.00  0.00    +0.000 C 
ATOM     32  C   UNL     1       7.303  16.914  18.840  0.00  0.00    +0.000 C 
ATOM     33  N   UNL     1       7.905  17.476  20.048  0.00  0.00    +0.000 NA
ATOM     34  C   UNL     1       9.288  17.849  19.775  0.00  0.00    +0.000 C 
ATOM     35  C   UNL     1       7.117  18.619  20.524  0.00  0.00    +0.000 C 
ATOM     36  C   UNL     1       5.729  18.152  20.967  0.00  0.00    +0.000 C 
ENDBRANCH  27  30
ENDBRANCH  23  24
ENDBRANCH   4  23
TORSDOF 5
ENDMDL
MODEL 9
REMARK VINA RESULT:      -7.0      3.252      4.794
REMARK  Name = 
REMARK  7 active torsions:
REMARK  status: ('A' for Active; 'I' for Inactive)
REMARK    1  A    between atoms: C_1  and  C_2
REMARK    2  A    between atoms: C_8  and  C_9
REMARK    3  A    between atoms: C_12  and  C_13
REMARK    4  A    between atoms: C_16  and  C_17
REMARK    5  A    between atoms: C_17  and  N_18
REMARK    6  A    between atoms: N_21  and  C_22
REMARK    7  A    between atoms: N_25  and  C_26
REMARK                            x       y       z     vdW  Elec       q    Type
REMARK                         _______ _______ _______ _____ _____    ______ ____
ROOT
ATOM      1  C   UNL     1       2.272   7.410  19.464  0.00  0.00    +0.000 A 
ATOM      2  C   UNL     1       1.847   7.160  20.782  0.00  0.00    +0.000 A 
ATOM      3  C   UNL     1       1.026   8.079  21.459  0.00  0.00    +0.000 A 
ATOM      4  C   UNL     1       0.620   9.278  20.842  0.00  0.00    +0.000 A 
ATOM      5  C   UNL     1       1.031   9.500  19.523  0.00  0.00    +0.000 A 
ATOM      6  C   UNL     1       1.844   8.596  18.851  0.00  0.00    +0.000 A 
ENDROOT
BRANCH   1  10
ATOM      7  C   UNL     1       4.531   5.466  16.908  0.00  0.00    +0.000 A 
ATOM      8  C   UNL     1       4.153   4.557  17.868  0.00  0.00    +0.000 A 
ATOM      9  C   UNL     1       3.346   5.154  18.873  0.00  0.00    +0.000 A 
ATOM     10  C   UNL     1       3.110   6.505  18.660  0.00  0.00    +0.000 A 
ATOM     11  S   UNL     1       3.891   7.026  17.235  0.00  0.00    +0.000 S 
BRANCH   7  19
ATOM     12  C   UNL     1       5.000   2.706  12.140  0.00  0.00    +0.000 C 
ATOM     13  C   UNL     1       6.045   3.663  12.599  0.00  0.00    +0.000 A 
ATOM     14  C   UNL     1       7.205   3.940  11.849  0.00  0.00    +0.000 A 
ATOM     15  C   UNL     1       8.184   4.840  12.282  0.00  0.00    +0.000 A 
ATOM     16  C   UNL     1       8.047   5.516  13.506  0.00  0.00    +0.000 A 
ATOM     17  C   UNL     1       6.899   5.267  14.272  0.00  0.00    +0.000 A 
ATOM     18  N   UNL     1       6.513   5.786  15.493  0.00  0.00    +0.000 NA
ATOM     19  C   UNL     1       5.355   5.221  15.765  0.00  0.00    +0.000 A 
ATOM     20  N   UNL     1       5.000   4.342  14.777  0.00  0.00    +0.000 N 
ATOM     21  C   UNL     1       5.961   4.360  13.814  0.00  0.00    +0.000 A 
ATOM     22  H   UNL     1       4.153   3.794  14.773  0.00  0.00    +0.000 HD
ENDBRANCH   7  19
ENDBRANCH   1  10
BRANCH   4  23
ATOM     23  C   UNL     1      -0.321  10.307  21.430  0.00  0.00    +0.000 C 
BRANCH  23  24
ATOM     24  N   UNL     1       0.271  11.568  21.884  0.00  0.00    +0.000 NA
ATOM     25  C   UNL     1       0.939  12.333  20.821  0.00  0.00    +0.000 C 
ATOM     26  C   UNL     1       0.058  13.190  19.869  0.00  0.00    +0.000 C 
ATOM     27  N   UNL     1      -1.056  13.961  20.460  0.00  0.00    +0.000 NA
ATOM     28  C   UNL     1      -1.664  13.259  21.604  0.00  0.00    +0.000 C 
ATOM     29  C   UNL     1      -0.753  12.410  22.527  0.00  0.00    +0.000 C 
BRANCH  27  30
ATOM     30  C   UNL     1      -0.722  15.389  20.686  0.00  0.00    +0.000 C 
ATOM     31  C   UNL     1       0.641  15.760  20.095  0.00  0.00    +0.000 C 
ATOM     32  C   UNL     1       1.104  17.155  20.459  0.00  0.00    +0.000 C 
ATOM     33  N   UNL     1       1.047  17.350  21.907  0.00  0.00    +0.000 NA
ATOM     34  C   UNL     1       1.654  18.630  22.250  0.00  0.00    +0.000 C 
ATOM     35  C   UNL     1      -0.340  17.262  22.377  0.00  0.00    +0.000 C 
ATOM     36  C   UNL     1      -0.881  15.848  22.158  0.00  0.00    +0.000 C 
ENDBRANCH  27  30
ENDBRANCH  23  24
ENDBRANCH   4  23
TORSDOF 5
ENDMDL
