MODEL 1
REMARK VINA RESULT:      -8.1      0.000      0.000
REMARK  Name = 
REMARK  7 active torsions:
REMARK  status: ('A' for Active; 'I' for Inactive)
REMARK    1  A    between atoms: C_1  and  N_2
REMARK    2  A    between atoms: N_2  and  C_3
REMARK    3  A    between atoms: C_3  and  C_4
REMARK    4  A    between atoms: C_4  and  N_5
REMARK    5  A    between atoms: N_5  and  C_6
REMARK    6  A    between atoms: C_8  and  C_9
REMARK    7  A    between atoms: C_10  and  C_11
REMARK                            x       y       z     vdW  Elec       q    Type
REMARK                         _______ _______ _______ _____ _____    ______ ____
ROOT
ATOM      1  C   UNL     1       4.401   4.406  18.997  0.00  0.00    +0.000 A 
ATOM      2  C   UNL     1       3.594   5.151  19.861  0.00  0.00    +0.000 A 
ATOM      3  C   UNL     1       3.077   6.366  19.452  0.00  0.00    +0.000 A 
ATOM      4  N   UNL     1       3.371   6.918  18.261  0.00  0.00    +0.000 NA
ATOM      5  C   UNL     1       4.186   6.251  17.436  0.00  0.00    +0.000 A 
ATOM      6  C   UNL     1       4.504   6.869  16.236  0.00  0.00    +0.000 A 
ATOM      7  C   UNL     1       5.321   6.254  15.287  0.00  0.00    +0.000 A 
ATOM      8  C   UNL     1       5.831   4.994  15.548  0.00  0.00    +0.000 A 
ATOM      9 CL   UNL     1       6.818   4.216  14.373  0.00  0.00    +0.000 Cl
ATOM     10  C   UNL     1       5.541   4.348  16.752  0.00  0.00    +0.000 A 
ATOM     11  C   UNL     1       4.723   4.974  17.731  0.00  0.00    +0.000 A 
ENDROOT
BRANCH   1  12
ATOM     12  N   UNL     1       4.946   3.157  19.392  0.00  0.00    +0.000 N 
ATOM     13  H   UNL     1       5.691   2.884  18.754  0.00  0.00    +0.000 HD
BRANCH  12  14
ATOM     14  C   UNL     1       4.013   2.057  19.669  0.00  0.00    +0.000 C 
BRANCH  14  15
ATOM     15  C   UNL     1       3.188   1.680  18.429  0.00  0.00    +0.000 C 
BRANCH  15  17
ATOM     16  C   UNL     1       1.031   2.735  18.626  0.00  0.00    +0.000 C 
ATOM     17  N   UNL     1       1.774   1.492  18.785  0.00  0.00    +0.000 NA
ATOM     18  H   UNL     1       1.361   0.780  18.182  0.00  0.00    +0.000 HD
ENDBRANCH  15  17
ENDBRANCH  14  15
ENDBRANCH  12  14
ENDBRANCH   1  12
BRANCH   3  19
ATOM     19  C   UNL     1       2.159   7.093  20.336  0.00  0.00    +0.000 C 
ATOM     20  C   UNL     1       1.717   8.335  20.070  0.00  0.00    +0.000 C 
BRANCH  20  21
ATOM     21  C   UNL     1       0.795   9.098  20.925  0.00  0.00    +0.000 A 
ATOM     22  C   UNL     1       0.599   8.790  22.280  0.00  0.00    +0.000 A 
ATOM     23  C   UNL     1      -0.233   9.581  23.076  0.00  0.00    +0.000 A 
ATOM     24  C   UNL     1      -0.865  10.685  22.521  0.00  0.00    +0.000 A 
ATOM     25  F   UNL     1      -1.652  11.450  23.289  0.00  0.00    +0.000 F 
ATOM     26  C   UNL     1      -0.684  11.013  21.185  0.00  0.00    +0.000 A 
ATOM     27  C   UNL     1       0.147  10.221  20.387  0.00  0.00    +0.000 A 
ENDBRANCH  20  21
ENDBRANCH   3  19
TORSDOF 6
ENDMDL
MODEL 2
REMARK VINA RESULT:      -7.9      4.959      9.024
REMARK  Name = 
REMARK  7 active torsions:
REMARK  status: ('A' for Active; 'I' for Inactive)
REMARK    1  A    between atoms: C_1  and  N_2
REMARK    2  A    between atoms: N_2  and  C_3
REMARK    3  A    between atoms: C_3  and  C_4
REMARK    4  A    between atoms: C_4  and  N_5
REMARK    5  A    between atoms: N_5  and  C_6
REMARK    6  A    between atoms: C_8  and  C_9
REMARK    7  A    between atoms: C_10  and  C_11
REMARK                            x       y       z     vdW  Elec       q    Type
REMARK                         _______ _______ _______ _____ _____    ______ ____
ROOT
ATOM      1  C   UNL     1       0.209  10.738  18.743  0.00  0.00    +0.000 A 
ATOM      2  C   UNL     1       1.124   9.964  18.023  0.00  0.00    +0.000 A 
ATOM      3  C   UNL     1       1.775   8.909  18.638  0.00  0.00    +0.000 A 
ATOM      4  N   UNL     1       1.624   8.623  19.944  0.00  0.00    +0.000 NA
ATOM      5  C   UNL     1       0.795   9.383  20.669  0.00  0.00    +0.000 A 
ATOM      6  C   UNL     1       0.697   9.089  22.020  0.00  0.00    +0.000 A 
ATOM      7  C   UNL     1      -0.157   9.796  22.866  0.00  0.00    +0.000 A 
ATOM      8  C   UNL     1      -0.928  10.822  22.346  0.00  0.00    +0.000 A 
ATOM      9 CL   UNL     1      -2.003  11.685  23.375  0.00  0.00    +0.000 Cl
ATOM     10  C   UNL     1      -0.844  11.155  20.992  0.00  0.00    +0.000 A 
ATOM     11  C   UNL     1       0.035  10.449  20.127  0.00  0.00    +0.000 A 
ENDROOT
BRANCH   1  12
ATOM     12  N   UNL     1      -0.470  11.826  18.137  0.00  0.00    +0.000 N 
ATOM     13  H   UNL     1      -0.157  12.704  18.545  0.00  0.00    +0.000 HD
BRANCH  12  14
ATOM     14  C   UNL     1      -1.934  11.748  18.030  0.00  0.00    +0.000 C 
BRANCH  14  15
ATOM     15  C   UNL     1      -2.377  10.646  17.056  0.00  0.00    +0.000 C 
BRANCH  15  17
ATOM     16  C   UNL     1      -2.989  10.211  14.768  0.00  0.00    +0.000 C 
ATOM     17  N   UNL     1      -2.869  11.231  15.800  0.00  0.00    +0.000 NA
ATOM     18  H   UNL     1      -3.784  11.655  15.956  0.00  0.00    +0.000 HD
ENDBRANCH  15  17
ENDBRANCH  14  15
ENDBRANCH  12  14
ENDBRANCH   1  12
BRANCH   3  19
ATOM     19  C   UNL     1       2.663   8.051  17.847  0.00  0.00    +0.000 C 
ATOM     20  C   UNL     1       2.915   6.769  18.165  0.00  0.00    +0.000 C 
BRANCH  20  21
ATOM     21  C   UNL     1       3.794   5.872  17.398  0.00  0.00    +0.000 A 
ATOM     22  C   UNL     1       4.904   6.343  16.680  0.00  0.00    +0.000 A 
ATOM     23  C   UNL     1       5.755   5.452  16.022  0.00  0.00    +0.000 A 
ATOM     24  C   UNL     1       5.502   4.088  16.086  0.00  0.00    +0.000 A 
ATOM     25  F   UNL     1       6.327   3.235  15.465  0.00  0.00    +0.000 F 
ATOM     26  C   UNL     1       4.413   3.598  16.793  0.00  0.00    +0.000 A 
ATOM     27  C   UNL     1       3.560   4.489  17.451  0.00  0.00    +0.000 A 
ENDBRANCH  20  21
ENDBRANCH   3  19
TORSDOF 6
ENDMDL
MODEL 3
REMARK VINA RESULT:      -7.7      5.020      9.060
REMARK  Name = 
REMARK  7 active torsions:
REMARK  status: ('A' for Active; 'I' for Inactive)
REMARK    1  A    between atoms: C_1  and  N_2
REMARK    2  A    between atoms: N_2  and  C_3
REMARK    3  A    between atoms: C_3  and  C_4
REMARK    4  A    between atoms: C_4  and  N_5
REMARK    5  A    between atoms: N_5  and  C_6
REMARK    6  A    between atoms: C_8  and  C_9
REMARK    7  A    between atoms: C_10  and  C_11
REMARK                            x       y       z     vdW  Elec       q    Type
REMARK                         _______ _______ _______ _____ _____    ______ ____
ROOT
ATOM      1  C   UNL     1      -0.022  10.504  18.750  0.00  0.00    +0.000 A 
ATOM      2  C   UNL     1       0.882   9.743  18.003  0.00  0.00    +0.000 A 
ATOM      3  C   UNL     1       1.631   8.756  18.618  0.00  0.00    +0.000 A 
ATOM      4  N   UNL     1       1.588   8.529  19.943  0.00  0.00    +0.000 NA
ATOM      5  C   UNL     1       0.772   9.281  20.690  0.00  0.00    +0.000 A 
ATOM      6  C   UNL     1       0.785   9.051  22.057  0.00  0.00    +0.000 A 
ATOM      7  C   UNL     1      -0.045   9.755  22.929  0.00  0.00    +0.000 A 
ATOM      8  C   UNL     1      -0.906  10.713  22.419  0.00  0.00    +0.000 A 
ATOM      9 CL   UNL     1      -1.953  11.569  23.482  0.00  0.00    +0.000 Cl
ATOM     10  C   UNL     1      -0.936  10.980  21.048  0.00  0.00    +0.000 A 
ATOM     11  C   UNL     1      -0.082  10.277  20.155  0.00  0.00    +0.000 A 
ENDROOT
BRANCH   1  12
ATOM     12  N   UNL     1      -0.801  11.523  18.145  0.00  0.00    +0.000 N 
ATOM     13  H   UNL     1      -1.142  12.169  18.854  0.00  0.00    +0.000 HD
BRANCH  12  14
ATOM     14  C   UNL     1      -1.853  11.117  17.204  0.00  0.00    +0.000 C 
BRANCH  14  15
ATOM     15  C   UNL     1      -3.255  11.451  17.736  0.00  0.00    +0.000 C 
BRANCH  15  17
ATOM     16  C   UNL     1      -3.662  10.704  15.482  0.00  0.00    +0.000 C 
ATOM     17  N   UNL     1      -4.267  11.257  16.686  0.00  0.00    +0.000 NA
ATOM     18  H   UNL     1      -4.987  10.617  17.020  0.00  0.00    +0.000 HD
ENDBRANCH  15  17
ENDBRANCH  14  15
ENDBRANCH  12  14
ENDBRANCH   1  12
BRANCH   3  19
ATOM     19  C   UNL     1       2.508   7.905  17.805  0.00  0.00    +0.000 C 
ATOM     20  C   UNL     1       3.076   6.780  18.275  0.00  0.00    +0.000 C 
BRANCH  20  21
ATOM     21  C   UNL     1       3.956   5.896  17.495  0.00  0.00    +0.000 A 
ATOM     22  C   UNL     1       3.894   4.498  17.595  0.00  0.00    +0.000 A 
ATOM     23  C   UNL     1       4.698   3.691  16.787  0.00  0.00    +0.000 A 
ATOM     24  C   UNL     1       5.562   4.281  15.873  0.00  0.00    +0.000 A 
ATOM     25  F   UNL     1       6.322   3.505  15.089  0.00  0.00    +0.000 F 
ATOM     26  C   UNL     1       5.638   5.661  15.753  0.00  0.00    +0.000 A 
ATOM     27  C   UNL     1       4.834   6.470  16.562  0.00  0.00    +0.000 A 
ENDBRANCH  20  21
ENDBRANCH   3  19
TORSDOF 6
ENDMDL
MODEL 4
REMARK VINA RESULT:      -7.7      0.485      1.041
REMARK  Name = 
REMARK  7 active torsions:
REMARK  status: ('A' for Active; 'I' for Inactive)
REMARK    1  A    between atoms: C_1  and  N_2
REMARK    2  A    between atoms: N_2  and  C_3
REMARK    3  A    between atoms: C_3  and  C_4
REMARK    4  A    between atoms: C_4  and  N_5
REMARK    5  A    between atoms: N_5  and  C_6
REMARK    6  A    between atoms: C_8  and  C_9
REMARK    7  A    between atoms: C_10  and  C_11
REMARK                            x       y       z     vdW  Elec       q    Type
REMARK                         _______ _______ _______ _____ _____    ______ ____
ROOT
ATOM      1  C   UNL     1       4.105   4.215  18.779  0.00  0.00    +0.000 A 
ATOM      2  C   UNL     1       3.402   5.018  19.682  0.00  0.00    +0.000 A 
ATOM      3  C   UNL     1       3.099   6.327  19.356  0.00  0.00    +0.000 A 
ATOM      4  N   UNL     1       3.516   6.908  18.216  0.00  0.00    +0.000 NA
ATOM      5  C   UNL     1       4.238   6.178  17.358  0.00  0.00    +0.000 A 
ATOM      6  C   UNL     1       4.688   6.820  16.215  0.00  0.00    +0.000 A 
ATOM      7  C   UNL     1       5.425   6.150  15.238  0.00  0.00    +0.000 A 
ATOM      8  C   UNL     1       5.717   4.808  15.412  0.00  0.00    +0.000 A 
ATOM      9 CL   UNL     1       6.603   3.966  14.202  0.00  0.00    +0.000 Cl
ATOM     10  C   UNL     1       5.291   4.133  16.559  0.00  0.00    +0.000 A 
ATOM     11  C   UNL     1       4.553   4.813  17.566  0.00  0.00    +0.000 A 
ENDROOT
BRANCH   1  12
ATOM     12  N   UNL     1       4.430   2.870  19.089  0.00  0.00    +0.000 N 
ATOM     13  H   UNL     1       5.233   2.569  18.540  0.00  0.00    +0.000 HD
BRANCH  12  14
ATOM     14  C   UNL     1       3.343   1.881  19.082  0.00  0.00    +0.000 C 
BRANCH  14  15
ATOM     15  C   UNL     1       2.416   2.060  17.870  0.00  0.00    +0.000 C 
BRANCH  15  17
ATOM     16  C   UNL     1       0.657   2.760  19.358  0.00  0.00    +0.000 C 
ATOM     17  N   UNL     1       1.011   1.871  18.261  0.00  0.00    +0.000 NA
ATOM     18  H   UNL     1       0.405   2.070  17.464  0.00  0.00    +0.000 HD
ENDBRANCH  15  17
ENDBRANCH  14  15
ENDBRANCH  12  14
ENDBRANCH   1  12
BRANCH   3  19
ATOM     19  C   UNL     1       2.284   7.129  20.275  0.00  0.00    +0.000 C 
ATOM     20  C   UNL     1       1.767   8.325  19.941  0.00  0.00    +0.000 C 
BRANCH  20  21
ATOM     21  C   UNL     1       0.940   9.159  20.828  0.00  0.00    +0.000 A 
ATOM     22  C   UNL     1       0.689  10.513  20.564  0.00  0.00    +0.000 A 
ATOM     23  C   UNL     1      -0.158  11.254  21.392  0.00  0.00    +0.000 A 
ATOM     24  C   UNL     1      -0.759  10.640  22.483  0.00  0.00    +0.000 A 
ATOM     25  F   UNL     1      -1.581  11.348  23.268  0.00  0.00    +0.000 F 
ATOM     26  C   UNL     1      -0.528   9.300  22.762  0.00  0.00    +0.000 A 
ATOM     27  C   UNL     1       0.320   8.558  21.934  0.00  0.00    +0.000 A 
ENDBRANCH  20  21
ENDBRANCH   3  19
TORSDOF 6
ENDMDL
MODEL 5
REMARK VINA RESULT:      -7.7      5.561      7.480
REMARK  Name = 
REMARK  7 active torsions:
REMARK  status: ('A' for Active; 'I' for Inactive)
REMARK    1  A    between atoms: C_1  and  N_2
REMARK    2  A    between atoms: N_2  and  C_3
REMARK    3  A    between atoms: C_3  and  C_4
REMARK    4  A    between atoms: C_4  and  N_5
REMARK    5  A    between atoms: N_5  and  C_6
REMARK    6  A    between atoms: C_8  and  C_9
REMARK    7  A    between atoms: C_10  and  C_11
REMARK                            x       y       z     vdW  Elec       q    Type
REMARK                         _______ _______ _______ _____ _____    ______ ____
ROOT
ATOM      1  C   UNL     1       6.214   5.710  16.200  0.00  0.00    +0.000 A 
ATOM      2  C   UNL     1       7.110   6.693  16.630  0.00  0.00    +0.000 A 
ATOM      3  C   UNL     1       7.385   6.840  17.977  0.00  0.00    +0.000 A 
ATOM      4  N   UNL     1       6.769   6.115  18.929  0.00  0.00    +0.000 NA
ATOM      5  C   UNL     1       5.867   5.204  18.548  0.00  0.00    +0.000 A 
ATOM      6  C   UNL     1       5.219   4.506  19.556  0.00  0.00    +0.000 A 
ATOM      7  C   UNL     1       4.280   3.513  19.275  0.00  0.00    +0.000 A 
ATOM      8  C   UNL     1       3.984   3.215  17.956  0.00  0.00    +0.000 A 
ATOM      9 CL   UNL     1       2.847   1.974  17.599  0.00  0.00    +0.000 Cl
ATOM     10  C   UNL     1       4.608   3.908  16.916  0.00  0.00    +0.000 A 
ATOM     11  C   UNL     1       5.554   4.931  17.194  0.00  0.00    +0.000 A 
ENDROOT
BRANCH   1  12
ATOM     12  N   UNL     1       5.913   5.539  14.825  0.00  0.00    +0.000 N 
ATOM     13  H   UNL     1       4.915   5.384  14.703  0.00  0.00    +0.000 HD
BRANCH  12  14
ATOM     14  C   UNL     1       6.727   4.588  14.056  0.00  0.00    +0.000 C 
BRANCH  14  15
ATOM     15  C   UNL     1       5.977   4.060  12.824  0.00  0.00    +0.000 C 
BRANCH  15  17
ATOM     16  C   UNL     1       5.580   2.136  11.431  0.00  0.00    +0.000 C 
ATOM     17  N   UNL     1       6.349   2.664  12.549  0.00  0.00    +0.000 NA
ATOM     18  H   UNL     1       7.342   2.613  12.321  0.00  0.00    +0.000 HD
ENDBRANCH  15  17
ENDBRANCH  14  15
ENDBRANCH  12  14
ENDBRANCH   1  12
BRANCH   3  19
ATOM     19  C   UNL     1       8.394   7.815  18.405  0.00  0.00    +0.000 C 
ATOM     20  C   UNL     1       8.244   9.142  18.244  0.00  0.00    +0.000 C 
BRANCH  20  21
ATOM     21  C   UNL     1       9.227  10.154  18.662  0.00  0.00    +0.000 A 
ATOM     22  C   UNL     1      10.031  10.843  17.742  0.00  0.00    +0.000 A 
ATOM     23  C   UNL     1      10.903  11.846  18.171  0.00  0.00    +0.000 A 
ATOM     24  C   UNL     1      10.967  12.167  19.521  0.00  0.00    +0.000 A 
ATOM     25  F   UNL     1      11.794  13.139  19.929  0.00  0.00    +0.000 F 
ATOM     26  C   UNL     1      10.179  11.503  20.449  0.00  0.00    +0.000 A 
ATOM     27  C   UNL     1       9.307  10.498  20.021  0.00  0.00    +0.000 A 
ENDBRANCH  20  21
ENDBRANCH   3  19
TORSDOF 6
ENDMDL
MODEL 6
REMARK VINA RESULT:      -7.7      1.254      1.733
REMARK  Name = 
REMARK  7 active torsions:
REMARK  status: ('A' for Active; 'I' for Inactive)
REMARK    1  A    between atoms: C_1  and  N_2
REMARK    2  A    between atoms: N_2  and  C_3
REMARK    3  A    between atoms: C_3  and  C_4
REMARK    4  A    between atoms: C_4  and  N_5
REMARK    5  A    between atoms: N_5  and  C_6
REMARK    6  A    between atoms: C_8  and  C_9
REMARK    7  A    between atoms: C_10  and  C_11
REMARK                            x       y       z     vdW  Elec       q    Type
REMARK                         _______ _______ _______ _____ _____    ______ ____
ROOT
ATOM      1  C   UNL     1       2.993   4.906  18.393  0.00  0.00    +0.000 A 
ATOM      2  C   UNL     1       2.357   5.946  19.077  0.00  0.00    +0.000 A 
ATOM      3  C   UNL     1       2.556   7.258  18.685  0.00  0.00    +0.000 A 
ATOM      4  N   UNL     1       3.405   7.601  17.699  0.00  0.00    +0.000 NA
ATOM      5  C   UNL     1       4.068   6.628  17.064  0.00  0.00    +0.000 A 
ATOM      6  C   UNL     1       4.967   7.019  16.083  0.00  0.00    +0.000 A 
ATOM      7  C   UNL     1       5.692   6.090  15.338  0.00  0.00    +0.000 A 
ATOM      8  C   UNL     1       5.512   4.739  15.581  0.00  0.00    +0.000 A 
ATOM      9 CL   UNL     1       6.382   3.583  14.649  0.00  0.00    +0.000 Cl
ATOM     10  C   UNL     1       4.624   4.309  16.571  0.00  0.00    +0.000 A 
ATOM     11  C   UNL     1       3.894   5.250  17.345  0.00  0.00    +0.000 A 
ENDROOT
BRANCH   1  12
ATOM     12  N   UNL     1       2.807   3.553  18.775  0.00  0.00    +0.000 N 
ATOM     13  H   UNL     1       3.664   3.026  18.621  0.00  0.00    +0.000 HD
BRANCH  12  14
ATOM     14  C   UNL     1       1.618   2.852  18.270  0.00  0.00    +0.000 C 
BRANCH  14  15
ATOM     15  C   UNL     1       0.828   2.178  19.401  0.00  0.00    +0.000 C 
BRANCH  15  17
ATOM     16  C   UNL     1       1.433   2.651  21.684  0.00  0.00    +0.000 C 
ATOM     17  N   UNL     1       0.659   3.100  20.535  0.00  0.00    +0.000 NA
ATOM     18  H   UNL     1       0.973   4.032  20.267  0.00  0.00    +0.000 HD
ENDBRANCH  15  17
ENDBRANCH  14  15
ENDBRANCH  12  14
ENDBRANCH   1  12
BRANCH   3  19
ATOM     19  C   UNL     1       1.813   8.331  19.353  0.00  0.00    +0.000 C 
ATOM     20  C   UNL     1       1.489   8.294  20.658  0.00  0.00    +0.000 C 
BRANCH  20  21
ATOM     21  C   UNL     1       0.750   9.349  21.369  0.00  0.00    +0.000 A 
ATOM     22  C   UNL     1       0.688  10.669  20.898  0.00  0.00    +0.000 A 
ATOM     23  C   UNL     1      -0.082  11.626  21.564  0.00  0.00    +0.000 A 
ATOM     24  C   UNL     1      -0.794  11.263  22.699  0.00  0.00    +0.000 A 
ATOM     25  F   UNL     1      -1.542  12.179  23.329  0.00  0.00    +0.000 F 
ATOM     26  C   UNL     1      -0.751   9.963  23.182  0.00  0.00    +0.000 A 
ATOM     27  C   UNL     1       0.019   9.005  22.517  0.00  0.00    +0.000 A 
ENDBRANCH  20  21
ENDBRANCH   3  19
TORSDOF 6
ENDMDL
MODEL 7
REMARK VINA RESULT:      -7.7      1.265      1.415
REMARK  Name = 
REMARK  7 active torsions:
REMARK  status: ('A' for Active; 'I' for Inactive)
REMARK    1  A    between atoms: C_1  and  N_2
REMARK    2  A    between atoms: N_2  and  C_3
REMARK    3  A    between atoms: C_3  and  C_4
REMARK    4  A    between atoms: C_4  and  N_5
REMARK    5  A    between atoms: N_5  and  C_6
REMARK    6  A    between atoms: C_8  and  C_9
REMARK    7  A    between atoms: C_10  and  C_11
REMARK                            x       y       z     vdW  Elec       q    Type
REMARK                         _______ _______ _______ _____ _____    ______ ____
ROOT
ATOM      1  C   UNL     1       2.769   4.259  18.250  0.00  0.00    +0.000 A 
ATOM      2  C   UNL     1       2.155   5.076  19.204  0.00  0.00    +0.000 A 
ATOM      3  C   UNL     1       2.460   6.424  19.262  0.00  0.00    +0.000 A 
ATOM      4  N   UNL     1       3.391   6.993  18.476  0.00  0.00    +0.000 NA
ATOM      5  C   UNL     1       4.034   6.222  17.591  0.00  0.00    +0.000 A 
ATOM      6  C   UNL     1       5.018   6.831  16.828  0.00  0.00    +0.000 A 
ATOM      7  C   UNL     1       5.732   6.131  15.856  0.00  0.00    +0.000 A 
ATOM      8  C   UNL     1       5.454   4.791  15.645  0.00  0.00    +0.000 A 
ATOM      9 CL   UNL     1       6.311   3.925  14.430  0.00  0.00    +0.000 Cl
ATOM     10  C   UNL     1       4.478   4.142  16.405  0.00  0.00    +0.000 A 
ATOM     11  C   UNL     1       3.757   4.845  17.408  0.00  0.00    +0.000 A 
ENDROOT
BRANCH   1  12
ATOM     12  N   UNL     1       2.475   2.874  18.170  0.00  0.00    +0.000 N 
ATOM     13  H   UNL     1       1.715   2.715  17.512  0.00  0.00    +0.000 HD
BRANCH  12  14
ATOM     14  C   UNL     1       2.291   2.136  19.428  0.00  0.00    +0.000 C 
BRANCH  14  15
ATOM     15  C   UNL     1       3.404   2.447  20.440  0.00  0.00    +0.000 C 
BRANCH  15  17
ATOM     16  C   UNL     1       1.431   2.680  21.802  0.00  0.00    +0.000 C 
ATOM     17  N   UNL     1       2.869   2.453  21.811  0.00  0.00    +0.000 NA
ATOM     18  H   UNL     1       3.061   1.556  22.256  0.00  0.00    +0.000 HD
ENDBRANCH  15  17
ENDBRANCH  14  15
ENDBRANCH  12  14
ENDBRANCH   1  12
BRANCH   3  19
ATOM     19  C   UNL     1       1.742   7.286  20.207  0.00  0.00    +0.000 C 
ATOM     20  C   UNL     1       1.354   8.538  19.907  0.00  0.00    +0.000 C 
BRANCH  20  21
ATOM     21  C   UNL     1       0.629   9.434  20.821  0.00  0.00    +0.000 A 
ATOM     22  C   UNL     1       0.263   9.045  22.119  0.00  0.00    +0.000 A 
ATOM     23  C   UNL     1      -0.363   9.947  22.982  0.00  0.00    +0.000 A 
ATOM     24  C   UNL     1      -0.619  11.242  22.550  0.00  0.00    +0.000 A 
ATOM     25  F   UNL     1      -1.208  12.110  23.384  0.00  0.00    +0.000 F 
ATOM     26  C   UNL     1      -0.263  11.651  21.273  0.00  0.00    +0.000 A 
ATOM     27  C   UNL     1       0.362  10.748  20.409  0.00  0.00    +0.000 A 
ENDBRANCH  20  21
ENDBRANCH   3  19
TORSDOF 6
ENDMDL
MODEL 8
REMARK VINA RESULT:      -7.6      4.914      9.112
REMARK  Name = 
REMARK  7 active torsions:
REMARK  status: ('A' for Active; 'I' for Inactive)
REMARK    1  A    between atoms: C_1  and  N_2
REMARK    2  A    between atoms: N_2  and  C_3
REMARK    3  A    between atoms: C_3  and  C_4
REMARK    4  A    between atoms: C_4  and  N_5
REMARK    5  A    between atoms: N_5  and  C_6
REMARK    6  A    between atoms: C_8  and  C_9
REMARK    7  A    between atoms: C_10  and  C_11
REMARK                            x       y       z     vdW  Elec       q    Type
REMARK                         _______ _______ _______ _____ _____    ______ ____
ROOT
ATOM      1  C   UNL     1      -0.119  10.355  18.692  0.00  0.00    +0.000 A 
ATOM      2  C   UNL     1       0.787   9.598  17.943  0.00  0.00    +0.000 A 
ATOM      3  C   UNL     1       1.594   8.665  18.569  0.00  0.00    +0.000 A 
ATOM      4  N   UNL     1       1.604   8.490  19.902  0.00  0.00    +0.000 NA
ATOM      5  C   UNL     1       0.785   9.240  20.648  0.00  0.00    +0.000 A 
ATOM      6  C   UNL     1       0.853   9.065  22.022  0.00  0.00    +0.000 A 
ATOM      7  C   UNL     1       0.026   9.772  22.894  0.00  0.00    +0.000 A 
ATOM      8  C   UNL     1      -0.888  10.676  22.379  0.00  0.00    +0.000 A 
ATOM      9 CL   UNL     1      -1.930  11.534  23.444  0.00  0.00    +0.000 Cl
ATOM     10  C   UNL     1      -0.973  10.887  21.000  0.00  0.00    +0.000 A 
ATOM     11  C   UNL     1      -0.124  10.182  20.106  0.00  0.00    +0.000 A 
ENDROOT
BRANCH   1  12
ATOM     12  N   UNL     1      -0.957  11.320  18.076  0.00  0.00    +0.000 N 
ATOM     13  H   UNL     1      -1.237  12.024  18.756  0.00  0.00    +0.000 HD
BRANCH  12  14
ATOM     14  C   UNL     1      -2.088  10.836  17.272  0.00  0.00    +0.000 C 
BRANCH  14  15
ATOM     15  C   UNL     1      -3.427  11.016  18.003  0.00  0.00    +0.000 C 
BRANCH  15  17
ATOM     16  C   UNL     1      -4.105  12.354  19.887  0.00  0.00    +0.000 C 
ATOM     17  N   UNL     1      -3.542  12.379  18.544  0.00  0.00    +0.000 NA
ATOM     18  H   UNL     1      -2.619  12.812  18.579  0.00  0.00    +0.000 HD
ENDBRANCH  15  17
ENDBRANCH  14  15
ENDBRANCH  12  14
ENDBRANCH   1  12
BRANCH   3  19
ATOM     19  C   UNL     1       2.475   7.816  17.759  0.00  0.00    +0.000 C 
ATOM     20  C   UNL     1       3.099   6.731  18.251  0.00  0.00    +0.000 C 
BRANCH  20  21
ATOM     21  C   UNL     1       3.986   5.850  17.475  0.00  0.00    +0.000 A 
ATOM     22  C   UNL     1       3.909   4.452  17.553  0.00  0.00    +0.000 A 
ATOM     23  C   UNL     1       4.721   3.649  16.748  0.00  0.00    +0.000 A 
ATOM     24  C   UNL     1       5.607   4.243  15.860  0.00  0.00    +0.000 A 
ATOM     25  F   UNL     1       6.376   3.472  15.080  0.00  0.00    +0.000 F 
ATOM     26  C   UNL     1       5.699   5.624  15.762  0.00  0.00    +0.000 A 
ATOM     27  C   UNL     1       4.888   6.429  16.568  0.00  0.00    +0.000 A 
ENDBRANCH  20  21
ENDBRANCH   3  19
TORSDOF 6
ENDMDL
MODEL 9
REMARK VINA RESULT:      -7.5      5.104      9.238
REMARK  Name = 
REMARK  7 active torsions:
REMARK  status: ('A' for Active; 'I' for Inactive)
REMARK    1  A    between atoms: C_1  and  N_2
REMARK    2  A    between atoms: N_2  and  C_3
REMARK    3  A    between atoms: C_3  and  C_4
REMARK    4  A    between atoms: C_4  and  N_5
REMARK    5  A    between atoms: N_5  and  C_6
REMARK    6  A    between atoms: C_8  and  C_9
REMARK    7  A    between atoms: C_10  and  C_11
REMARK                            x       y       z     vdW  Elec       q    Type
REMARK                         _______ _______ _______ _____ _____    ______ ____
ROOT
ATOM      1  C   UNL     1      -0.311  10.761  18.767  0.00  0.00    +0.000 A 
ATOM      2  C   UNL     1       0.603   9.985  18.047  0.00  0.00    +0.000 A 
ATOM      3  C   UNL     1       1.368   9.033  18.696  0.00  0.00    +0.000 A 
ATOM      4  N   UNL     1       1.330   8.855  20.029  0.00  0.00    +0.000 NA
ATOM      5  C   UNL     1       0.503   9.622  20.749  0.00  0.00    +0.000 A 
ATOM      6  C   UNL     1       0.521   9.443  22.124  0.00  0.00    +0.000 A 
ATOM      7  C   UNL     1      -0.319  10.166  22.970  0.00  0.00    +0.000 A 
ATOM      8  C   UNL     1      -1.195  11.091  22.426  0.00  0.00    +0.000 A 
ATOM      9 CL   UNL     1      -2.253  11.971  23.458  0.00  0.00    +0.000 Cl
ATOM     10  C   UNL     1      -1.229  11.307  21.046  0.00  0.00    +0.000 A 
ATOM     11  C   UNL     1      -0.366  10.584  20.179  0.00  0.00    +0.000 A 
ENDROOT
BRANCH   1  12
ATOM     12  N   UNL     1      -1.105  11.744  18.126  0.00  0.00    +0.000 N 
ATOM     13  H   UNL     1      -1.543  12.347  18.820  0.00  0.00    +0.000 HD
BRANCH  12  14
ATOM     14  C   UNL     1      -2.053  11.299  17.094  0.00  0.00    +0.000 C 
BRANCH  14  15
ATOM     15  C   UNL     1      -3.463  11.089  17.666  0.00  0.00    +0.000 C 
BRANCH  15  17
ATOM     16  C   UNL     1      -5.651  12.054  17.384  0.00  0.00    +0.000 C 
ATOM     17  N   UNL     1      -4.483  11.518  16.698  0.00  0.00    +0.000 NA
ATOM     18  H   UNL     1      -4.096  12.240  16.090  0.00  0.00    +0.000 HD
ENDBRANCH  15  17
ENDBRANCH  14  15
ENDBRANCH  12  14
ENDBRANCH   1  12
BRANCH   3  19
ATOM     19  C   UNL     1       2.257   8.166  17.915  0.00  0.00    +0.000 C 
ATOM     20  C   UNL     1       2.672   6.963  18.348  0.00  0.00    +0.000 C 
BRANCH  20  21
ATOM     21  C   UNL     1       3.557   6.060  17.596  0.00  0.00    +0.000 A 
ATOM     22  C   UNL     1       4.687   6.522  16.905  0.00  0.00    +0.000 A 
ATOM     23  C   UNL     1       5.543   5.626  16.261  0.00  0.00    +0.000 A 
ATOM     24  C   UNL     1       5.273   4.264  16.312  0.00  0.00    +0.000 A 
ATOM     25  F   UNL     1       6.102   3.405  15.704  0.00  0.00    +0.000 F 
ATOM     26  C   UNL     1       4.164   3.783  16.992  0.00  0.00    +0.000 A 
ATOM     27  C   UNL     1       3.307   4.680  17.636  0.00  0.00    +0.000 A 
ENDBRANCH  20  21
ENDBRANCH   3  19
TORSDOF 6
ENDMDL
