MODEL 1
REMARK VINA RESULT:     -10.0      0.000      0.000
REMARK  Name = 
REMARK  8 active torsions:
REMARK  status: ('A' for Active; 'I' for Inactive)
REMARK    1  A    between atoms: C_1  and  C_2
REMARK    2  A    between atoms: C_5  and  S_6
REMARK    3  A    between atoms: S_6  and  N_9
REMARK    4  A    between atoms: C_12  and  C_13
REMARK    5  A    between atoms: C_14  and  C_15
REMARK    6  A    between atoms: N_16  and  C_17
REMARK    7  A    between atoms: C_17  and  C_18
REMARK    8  A    between atoms: C_34  and  C_35
REMARK                            x       y       z     vdW  Elec       q    Type
REMARK                         _______ _______ _______ _____ _____    ______ ____
ROOT
ATOM      1  C   UNL     1       2.622   6.307  18.839  0.00  0.00    +0.000 A 
ATOM      2  C   UNL     1       3.530   6.015  17.837  0.00  0.00    +0.000 A 
ATOM      3  C   UNL     1       4.265   6.944  16.928  0.00  0.00    +0.000 C 
ATOM      4  N   UNL     1       3.652   4.638  17.783  0.00  0.00    +0.000 N 
ATOM      5  C   UNL     1       2.857   4.054  18.761  0.00  0.00    +0.000 A 
ATOM      6  C   UNL     1       2.635   2.706  19.090  0.00  0.00    +0.000 A 
ATOM      7  C   UNL     1       1.741   2.413  20.125  0.00  0.00    +0.000 A 
ATOM      8  C   UNL     1       1.089   3.429  20.817  0.00  0.00    +0.000 A 
ATOM      9  C   UNL     1       1.312   4.768  20.484  0.00  0.00    +0.000 A 
ATOM     10  C   UNL     1       2.206   5.089  19.441  0.00  0.00    +0.000 A 
ENDROOT
BRANCH   1  14
ATOM     11  N   UNL     1       0.851  10.154  19.505  0.00  0.00    +0.000 NA
ATOM     12  C   UNL     1       1.071   9.283  20.677  0.00  0.00    +0.000 C 
ATOM     13  C   UNL     1       1.734   7.988  20.349  0.00  0.00    +0.000 C 
ATOM     14  C   UNL     1       2.154   7.622  19.129  0.00  0.00    +0.000 C 
ATOM     15  C   UNL     1       2.025   8.549  17.961  0.00  0.00    +0.000 C 
ATOM     16  C   UNL     1       0.862   9.517  18.160  0.00  0.00    +0.000 C 
BRANCH  11  17
ATOM     17  S   UNL     1      -0.339  11.362  19.735  0.00  0.00    +0.000 S 
ATOM     18  O   UNL     1      -0.637  11.419  21.151  0.00  0.00    +0.000 OA
ATOM     19  O   UNL     1      -1.388  11.162  18.759  0.00  0.00    +0.000 OA
BRANCH  17  24
ATOM     20  C   UNL     1       2.474  16.610  18.422  0.00  0.00    +0.000 C 
ATOM     21  C   UNL     1       1.765  15.313  18.710  0.00  0.00    +0.000 A 
ATOM     22  C   UNL     1       2.514  14.132  18.871  0.00  0.00    +0.000 A 
ATOM     23  C   UNL     1       1.890  12.916  19.169  0.00  0.00    +0.000 A 
ATOM     24  C   UNL     1       0.508  12.884  19.321  0.00  0.00    +0.000 A 
ATOM     25  C   UNL     1      -0.255  14.034  19.108  0.00  0.00    +0.000 A 
ATOM     26  C   UNL     1       0.364  15.260  18.814  0.00  0.00    +0.000 A 
ATOM     27  C   UNL     1      -0.496  16.482  18.616  0.00  0.00    +0.000 C 
ENDBRANCH  17  24
ENDBRANCH  11  17
ENDBRANCH   1  14
BRANCH   4  28
ATOM     28  C   UNL     1       4.324   3.879  16.724  0.00  0.00    +0.000 C 
BRANCH  28  29
ATOM     29  C   UNL     1       5.800   4.194  16.536  0.00  0.00    +0.000 C 
ATOM     30  O   UNL     1       6.563   4.426  17.474  0.00  0.00    +0.000 OA
ATOM     31  N   UNL     1       6.226   4.317  15.218  0.00  0.00    +0.000 N 
ATOM     32  C   UNL     1       7.548   4.817  14.892  0.00  0.00    +0.000 C 
ATOM     33  C   UNL     1       7.453   5.135  13.408  0.00  0.00    +0.000 C 
ATOM     34  C   UNL     1       6.511   4.063  12.872  0.00  0.00    +0.000 C 
ATOM     35  C   UNL     1       5.604   3.713  14.050  0.00  0.00    +0.000 C 
ENDBRANCH  28  29
ENDBRANCH   4  28
TORSDOF 5
ENDMDL
MODEL 2
REMARK VINA RESULT:      -9.9      0.287      1.181
REMARK  Name = 
REMARK  8 active torsions:
REMARK  status: ('A' for Active; 'I' for Inactive)
REMARK    1  A    between atoms: C_1  and  C_2
REMARK    2  A    between atoms: C_5  and  S_6
REMARK    3  A    between atoms: S_6  and  N_9
REMARK    4  A    between atoms: C_12  and  C_13
REMARK    5  A    between atoms: C_14  and  C_15
REMARK    6  A    between atoms: N_16  and  C_17
REMARK    7  A    between atoms: C_17  and  C_18
REMARK    8  A    between atoms: C_34  and  C_35
REMARK                            x       y       z     vdW  Elec       q    Type
REMARK                         _______ _______ _______ _____ _____    ______ ____
ROOT
ATOM      1  C   UNL     1       2.602   6.367  18.814  0.00  0.00    +0.000 A 
ATOM      2  C   UNL     1       3.516   6.077  17.817  0.00  0.00    +0.000 A 
ATOM      3  C   UNL     1       4.225   7.004  16.885  0.00  0.00    +0.000 C 
ATOM      4  N   UNL     1       3.674   4.702  17.793  0.00  0.00    +0.000 N 
ATOM      5  C   UNL     1       2.896   4.120  18.786  0.00  0.00    +0.000 A 
ATOM      6  C   UNL     1       2.710   2.775  19.146  0.00  0.00    +0.000 A 
ATOM      7  C   UNL     1       1.825   2.482  20.189  0.00  0.00    +0.000 A 
ATOM      8  C   UNL     1       1.148   3.495  20.859  0.00  0.00    +0.000 A 
ATOM      9  C   UNL     1       1.335   4.832  20.495  0.00  0.00    +0.000 A 
ATOM     10  C   UNL     1       2.219   5.153  19.444  0.00  0.00    +0.000 A 
ENDROOT
BRANCH   1  14
ATOM     11  N   UNL     1       0.722  10.172  19.422  0.00  0.00    +0.000 NA
ATOM     12  C   UNL     1       1.048   9.365  20.614  0.00  0.00    +0.000 C 
ATOM     13  C   UNL     1       1.741   8.082  20.302  0.00  0.00    +0.000 C 
ATOM     14  C   UNL     1       2.100   7.676  19.075  0.00  0.00    +0.000 C 
ATOM     15  C   UNL     1       1.864   8.543  17.878  0.00  0.00    +0.000 C 
ATOM     16  C   UNL     1       0.678   9.475  18.108  0.00  0.00    +0.000 C 
BRANCH  11  17
ATOM     17  S   UNL     1      -0.499  11.344  19.673  0.00  0.00    +0.000 S 
ATOM     18  O   UNL     1      -0.789  11.376  21.092  0.00  0.00    +0.000 OA
ATOM     19  O   UNL     1      -1.548  11.127  18.702  0.00  0.00    +0.000 OA
BRANCH  17  24
ATOM     20  C   UNL     1       2.288  16.563  18.202  0.00  0.00    +0.000 C 
ATOM     21  C   UNL     1       1.620  15.274  18.599  0.00  0.00    +0.000 A 
ATOM     22  C   UNL     1       0.252  15.274  18.934  0.00  0.00    +0.000 A 
ATOM     23  C   UNL     1      -0.407  14.090  19.277  0.00  0.00    +0.000 A 
ATOM     24  C   UNL     1       0.303  12.894  19.273  0.00  0.00    +0.000 A 
ATOM     25  C   UNL     1       1.673  12.884  19.001  0.00  0.00    +0.000 A 
ATOM     26  C   UNL     1       2.341  14.068  18.649  0.00  0.00    +0.000 A 
ATOM     27  C   UNL     1       3.814  14.009  18.339  0.00  0.00    +0.000 C 
ENDBRANCH  17  24
ENDBRANCH  11  17
ENDBRANCH   1  14
BRANCH   4  28
ATOM     28  C   UNL     1       4.364   3.937  16.751  0.00  0.00    +0.000 C 
BRANCH  28  29
ATOM     29  C   UNL     1       5.840   4.263  16.576  0.00  0.00    +0.000 C 
ATOM     30  O   UNL     1       6.590   4.511  17.520  0.00  0.00    +0.000 OA
ATOM     31  N   UNL     1       6.279   4.376  15.262  0.00  0.00    +0.000 N 
ATOM     32  C   UNL     1       7.600   4.884  14.945  0.00  0.00    +0.000 C 
ATOM     33  C   UNL     1       7.520   5.186  13.457  0.00  0.00    +0.000 C 
ATOM     34  C   UNL     1       6.592   4.102  12.921  0.00  0.00    +0.000 C 
ATOM     35  C   UNL     1       5.675   3.756  14.093  0.00  0.00    +0.000 C 
ENDBRANCH  28  29
ENDBRANCH   4  28
TORSDOF 5
ENDMDL
MODEL 3
REMARK VINA RESULT:      -9.6      2.221      3.220
REMARK  Name = 
REMARK  8 active torsions:
REMARK  status: ('A' for Active; 'I' for Inactive)
REMARK    1  A    between atoms: C_1  and  C_2
REMARK    2  A    between atoms: C_5  and  S_6
REMARK    3  A    between atoms: S_6  and  N_9
REMARK    4  A    between atoms: C_12  and  C_13
REMARK    5  A    between atoms: C_14  and  C_15
REMARK    6  A    between atoms: N_16  and  C_17
REMARK    7  A    between atoms: C_17  and  C_18
REMARK    8  A    between atoms: C_34  and  C_35
REMARK                            x       y       z     vdW  Elec       q    Type
REMARK                         _______ _______ _______ _____ _____    ______ ____
ROOT
ATOM      1  C   UNL     1       2.937   6.403  19.254  0.00  0.00    +0.000 A 
ATOM      2  C   UNL     1       3.981   6.239  18.361  0.00  0.00    +0.000 A 
ATOM      3  C   UNL     1       4.540   7.209  17.372  0.00  0.00    +0.000 C 
ATOM      4  N   UNL     1       4.453   4.947  18.514  0.00  0.00    +0.000 N 
ATOM      5  C   UNL     1       3.741   4.301  19.518  0.00  0.00    +0.000 A 
ATOM      6  C   UNL     1       3.837   2.994  20.025  0.00  0.00    +0.000 A 
ATOM      7  C   UNL     1       2.952   2.607  21.036  0.00  0.00    +0.000 A 
ATOM      8  C   UNL     1       2.002   3.492  21.533  0.00  0.00    +0.000 A 
ATOM      9  C   UNL     1       1.908   4.790  21.023  0.00  0.00    +0.000 A 
ATOM     10  C   UNL     1       2.788   5.204  20.000  0.00  0.00    +0.000 A 
ENDROOT
BRANCH   1  14
ATOM     11  N   UNL     1       0.803  10.093  19.712  0.00  0.00    +0.000 NA
ATOM     12  C   UNL     1       1.344   9.770  18.378  0.00  0.00    +0.000 C 
ATOM     13  C   UNL     1       2.028   8.447  18.308  0.00  0.00    +0.000 C 
ATOM     14  C   UNL     1       2.126   7.574  19.322  0.00  0.00    +0.000 C 
ATOM     15  C   UNL     1       1.485   7.856  20.645  0.00  0.00    +0.000 C 
ATOM     16  C   UNL     1       1.362   9.358  20.879  0.00  0.00    +0.000 C 
BRANCH  11  17
ATOM     17  S   UNL     1       0.498  11.757  19.969  0.00  0.00    +0.000 S 
ATOM     18  O   UNL     1       1.163  12.491  18.913  0.00  0.00    +0.000 OA
ATOM     19  O   UNL     1       0.753  12.059  21.361  0.00  0.00    +0.000 OA
BRANCH  17  24
ATOM     20  C   UNL     1      -5.504  12.183  18.990  0.00  0.00    +0.000 C 
ATOM     21  C   UNL     1      -4.016  12.101  19.200  0.00  0.00    +0.000 A 
ATOM     22  C   UNL     1      -3.435  12.742  20.311  0.00  0.00    +0.000 A 
ATOM     23  C   UNL     1      -2.060  12.661  20.554  0.00  0.00    +0.000 A 
ATOM     24  C   UNL     1      -1.262  11.921  19.688  0.00  0.00    +0.000 A 
ATOM     25  C   UNL     1      -1.813  11.328  18.550  0.00  0.00    +0.000 A 
ATOM     26  C   UNL     1      -3.193  11.400  18.302  0.00  0.00    +0.000 A 
ATOM     27  C   UNL     1      -3.750  10.725  17.075  0.00  0.00    +0.000 C 
ENDBRANCH  17  24
ENDBRANCH  11  17
ENDBRANCH   1  14
BRANCH   4  28
ATOM     28  C   UNL     1       5.392   4.267  17.620  0.00  0.00    +0.000 C 
BRANCH  28  29
ATOM     29  C   UNL     1       4.861   3.968  16.225  0.00  0.00    +0.000 C 
ATOM     30  O   UNL     1       3.766   3.445  16.021  0.00  0.00    +0.000 OA
ATOM     31  N   UNL     1       5.741   4.221  15.179  0.00  0.00    +0.000 N 
ATOM     32  C   UNL     1       5.453   3.791  13.824  0.00  0.00    +0.000 C 
ATOM     33  C   UNL     1       6.790   3.925  13.114  0.00  0.00    +0.000 C 
ATOM     34  C   UNL     1       7.428   5.139  13.778  0.00  0.00    +0.000 C 
ATOM     35  C   UNL     1       6.851   5.161  15.192  0.00  0.00    +0.000 C 
ENDBRANCH  28  29
ENDBRANCH   4  28
TORSDOF 5
ENDMDL
MODEL 4
REMARK VINA RESULT:      -9.5      0.851      1.551
REMARK  Name = 
REMARK  8 active torsions:
REMARK  status: ('A' for Active; 'I' for Inactive)
REMARK    1  A    between atoms: C_1  and  C_2
REMARK    2  A    between atoms: C_5  and  S_6
REMARK    3  A    between atoms: S_6  and  N_9
REMARK    4  A    between atoms: C_12  and  C_13
REMARK    5  A    between atoms: C_14  and  C_15
REMARK    6  A    between atoms: N_16  and  C_17
REMARK    7  A    between atoms: C_17  and  C_18
REMARK    8  A    between atoms: C_34  and  C_35
REMARK                            x       y       z     vdW  Elec       q    Type
REMARK                         _______ _______ _______ _____ _____    ______ ____
ROOT
ATOM      1  C   UNL     1       2.866   6.490  19.130  0.00  0.00    +0.000 A 
ATOM      2  C   UNL     1       3.984   6.239  18.356  0.00  0.00    +0.000 A 
ATOM      3  C   UNL     1       4.815   7.190  17.558  0.00  0.00    +0.000 C 
ATOM      4  N   UNL     1       4.228   4.877  18.416  0.00  0.00    +0.000 N 
ATOM      5  C   UNL     1       3.296   4.268  19.247  0.00  0.00    +0.000 A 
ATOM      6  C   UNL     1       3.121   2.922  19.610  0.00  0.00    +0.000 A 
ATOM      7  C   UNL     1       2.057   2.595  20.457  0.00  0.00    +0.000 A 
ATOM      8  C   UNL     1       1.194   3.575  20.934  0.00  0.00    +0.000 A 
ATOM      9  C   UNL     1       1.371   4.913  20.567  0.00  0.00    +0.000 A 
ATOM     10  C   UNL     1       2.435   5.268  19.711  0.00  0.00    +0.000 A 
ENDROOT
BRANCH   1  14
ATOM     11  N   UNL     1       0.651  10.159  19.235  0.00  0.00    +0.000 NA
ATOM     12  C   UNL     1       0.903   9.468  20.515  0.00  0.00    +0.000 C 
ATOM     13  C   UNL     1       1.720   8.228  20.379  0.00  0.00    +0.000 C 
ATOM     14  C   UNL     1       2.242   7.767  19.233  0.00  0.00    +0.000 C 
ATOM     15  C   UNL     1       2.075   8.525  17.953  0.00  0.00    +0.000 C 
ATOM     16  C   UNL     1       0.804   9.369  17.983  0.00  0.00    +0.000 C 
BRANCH  11  17
ATOM     17  S   UNL     1      -0.675  11.240  19.264  0.00  0.00    +0.000 S 
ATOM     18  O   UNL     1      -1.249  11.194  20.592  0.00  0.00    +0.000 OA
ATOM     19  O   UNL     1      -1.488  10.998  18.092  0.00  0.00    +0.000 OA
BRANCH  17  24
ATOM     20  C   UNL     1       1.954  16.691  18.524  0.00  0.00    +0.000 C 
ATOM     21  C   UNL     1       1.325  15.340  18.740  0.00  0.00    +0.000 A 
ATOM     22  C   UNL     1      -0.037  15.255  19.085  0.00  0.00    +0.000 A 
ATOM     23  C   UNL     1      -0.660  14.016  19.263  0.00  0.00    +0.000 A 
ATOM     24  C   UNL     1       0.080  12.853  19.081  0.00  0.00    +0.000 A 
ATOM     25  C   UNL     1       1.446  12.920  18.796  0.00  0.00    +0.000 A 
ATOM     26  C   UNL     1       2.078  14.160  18.610  0.00  0.00    +0.000 A 
ATOM     27  C   UNL     1       3.548  14.187  18.280  0.00  0.00    +0.000 C 
ENDBRANCH  17  24
ENDBRANCH  11  17
ENDBRANCH   1  14
BRANCH   4  28
ATOM     28  C   UNL     1       5.165   4.137  17.569  0.00  0.00    +0.000 C 
BRANCH  28  29
ATOM     29  C   UNL     1       4.704   3.905  16.137  0.00  0.00    +0.000 C 
ATOM     30  O   UNL     1       3.608   3.421  15.855  0.00  0.00    +0.000 OA
ATOM     31  N   UNL     1       5.647   4.170  15.151  0.00  0.00    +0.000 N 
ATOM     32  C   UNL     1       5.421   3.799  13.767  0.00  0.00    +0.000 C 
ATOM     33  C   UNL     1       6.799   3.919  13.135  0.00  0.00    +0.000 C 
ATOM     34  C   UNL     1       7.432   5.090  13.879  0.00  0.00    +0.000 C 
ATOM     35  C   UNL     1       6.779   5.077  15.259  0.00  0.00    +0.000 C 
ENDBRANCH  28  29
ENDBRANCH   4  28
TORSDOF 5
ENDMDL
MODEL 5
REMARK VINA RESULT:      -9.5      3.325     10.249
REMARK  Name = 
REMARK  8 active torsions:
REMARK  status: ('A' for Active; 'I' for Inactive)
REMARK    1  A    between atoms: C_1  and  C_2
REMARK    2  A    between atoms: C_5  and  S_6
REMARK    3  A    between atoms: S_6  and  N_9
REMARK    4  A    between atoms: C_12  and  C_13
REMARK    5  A    between atoms: C_14  and  C_15
REMARK    6  A    between atoms: N_16  and  C_17
REMARK    7  A    between atoms: C_17  and  C_18
REMARK    8  A    between atoms: C_34  and  C_35
REMARK                            x       y       z     vdW  Elec       q    Type
REMARK                         _______ _______ _______ _____ _____    ______ ____
ROOT
ATOM      1  C   UNL     1       0.065  10.449  19.227  0.00  0.00    +0.000 A 
ATOM      2  C   UNL     1       0.306  11.633  19.900  0.00  0.00    +0.000 A 
ATOM      3  C   UNL     1       1.516  12.056  20.666  0.00  0.00    +0.000 C 
ATOM      4  N   UNL     1      -0.827  12.418  19.767  0.00  0.00    +0.000 N 
ATOM      5  C   UNL     1      -1.770  11.757  18.989  0.00  0.00    +0.000 A 
ATOM      6  C   UNL     1      -3.064  12.131  18.588  0.00  0.00    +0.000 A 
ATOM      7  C   UNL     1      -3.806  11.232  17.815  0.00  0.00    +0.000 A 
ATOM      8  C   UNL     1      -3.278   9.999  17.447  0.00  0.00    +0.000 A 
ATOM      9  C   UNL     1      -1.991   9.631  17.850  0.00  0.00    +0.000 A 
ATOM     10  C   UNL     1      -1.223  10.519  18.634  0.00  0.00    +0.000 A 
ENDROOT
BRANCH   1  14
ATOM     11  N   UNL     1       2.420   6.867  19.308  0.00  0.00    +0.000 NA
ATOM     12  C   UNL     1       2.247   7.550  18.011  0.00  0.00    +0.000 C 
ATOM     13  C   UNL     1       1.453   8.809  18.094  0.00  0.00    +0.000 C 
ATOM     14  C   UNL     1       0.962   9.340  19.224  0.00  0.00    +0.000 C 
ATOM     15  C   UNL     1       1.228   8.703  20.552  0.00  0.00    +0.000 C 
ATOM     16  C   UNL     1       1.465   7.204  20.398  0.00  0.00    +0.000 C 
BRANCH  11  17
ATOM     17  S   UNL     1       2.843   5.213  19.187  0.00  0.00    +0.000 S 
ATOM     18  O   UNL     1       1.715   4.515  18.606  0.00  0.00    +0.000 OA
ATOM     19  O   UNL     1       3.410   4.792  20.449  0.00  0.00    +0.000 OA
BRANCH  17  24
ATOM     20  C   UNL     1       7.391   5.131  15.127  0.00  0.00    +0.000 C 
ATOM     21  C   UNL     1       6.258   5.187  16.117  0.00  0.00    +0.000 A 
ATOM     22  C   UNL     1       5.133   4.361  15.934  0.00  0.00    +0.000 A 
ATOM     23  C   UNL     1       4.077   4.365  16.850  0.00  0.00    +0.000 A 
ATOM     24  C   UNL     1       4.151   5.192  17.966  0.00  0.00    +0.000 A 
ATOM     25  C   UNL     1       5.233   6.061  18.132  0.00  0.00    +0.000 A 
ATOM     26  C   UNL     1       6.300   6.058  17.220  0.00  0.00    +0.000 A 
ATOM     27  C   UNL     1       7.458   6.994  17.451  0.00  0.00    +0.000 C 
ENDBRANCH  17  24
ENDBRANCH  11  17
ENDBRANCH   1  14
BRANCH   4  28
ATOM     28  C   UNL     1      -1.106  13.650  20.508  0.00  0.00    +0.000 C 
BRANCH  28  29
ATOM     29  C   UNL     1      -1.566  13.453  21.945  0.00  0.00    +0.000 C 
ATOM     30  O   UNL     1      -0.799  13.156  22.861  0.00  0.00    +0.000 OA
ATOM     31  N   UNL     1      -2.939  13.519  22.152  0.00  0.00    +0.000 N 
ATOM     32  C   UNL     1      -3.533  13.146  23.422  0.00  0.00    +0.000 C 
ATOM     33  C   UNL     1      -5.012  13.006  23.097  0.00  0.00    +0.000 C 
ATOM     34  C   UNL     1      -5.247  14.074  22.036  0.00  0.00    +0.000 C 
ATOM     35  C   UNL     1      -3.905  14.220  21.322  0.00  0.00    +0.000 C 
ENDBRANCH  28  29
ENDBRANCH   4  28
TORSDOF 5
ENDMDL
MODEL 6
REMARK VINA RESULT:      -9.4      0.806      1.052
REMARK  Name = 
REMARK  8 active torsions:
REMARK  status: ('A' for Active; 'I' for Inactive)
REMARK    1  A    between atoms: C_1  and  C_2
REMARK    2  A    between atoms: C_5  and  S_6
REMARK    3  A    between atoms: S_6  and  N_9
REMARK    4  A    between atoms: C_12  and  C_13
REMARK    5  A    between atoms: C_14  and  C_15
REMARK    6  A    between atoms: N_16  and  C_17
REMARK    7  A    between atoms: C_17  and  C_18
REMARK    8  A    between atoms: C_34  and  C_35
REMARK                            x       y       z     vdW  Elec       q    Type
REMARK                         _______ _______ _______ _____ _____    ______ ____
ROOT
ATOM      1  C   UNL     1       2.867   6.450  19.138  0.00  0.00    +0.000 A 
ATOM      2  C   UNL     1       3.990   6.183  18.376  0.00  0.00    +0.000 A 
ATOM      3  C   UNL     1       4.856   7.125  17.604  0.00  0.00    +0.000 C 
ATOM      4  N   UNL     1       4.199   4.815  18.418  0.00  0.00    +0.000 N 
ATOM      5  C   UNL     1       3.241   4.216  19.226  0.00  0.00    +0.000 A 
ATOM      6  C   UNL     1       3.028   2.870  19.566  0.00  0.00    +0.000 A 
ATOM      7  C   UNL     1       1.944   2.556  20.393  0.00  0.00    +0.000 A 
ATOM      8  C   UNL     1       1.099   3.551  20.873  0.00  0.00    +0.000 A 
ATOM      9  C   UNL     1       1.314   4.888  20.530  0.00  0.00    +0.000 A 
ATOM     10  C   UNL     1       2.398   5.231  19.694  0.00  0.00    +0.000 A 
ENDROOT
BRANCH   1  14
ATOM     11  N   UNL     1       0.750  10.176  19.253  0.00  0.00    +0.000 NA
ATOM     12  C   UNL     1       0.913   9.435  20.520  0.00  0.00    +0.000 C 
ATOM     13  C   UNL     1       1.703   8.177  20.385  0.00  0.00    +0.000 C 
ATOM     14  C   UNL     1       2.273   7.741  19.252  0.00  0.00    +0.000 C 
ATOM     15  C   UNL     1       2.197   8.545  17.992  0.00  0.00    +0.000 C 
ATOM     16  C   UNL     1       0.949   9.425  17.984  0.00  0.00    +0.000 C 
BRANCH  11  17
ATOM     17  S   UNL     1      -0.546  11.294  19.249  0.00  0.00    +0.000 S 
ATOM     18  O   UNL     1      -1.125  11.297  20.576  0.00  0.00    +0.000 OA
ATOM     19  O   UNL     1      -1.361  11.044  18.080  0.00  0.00    +0.000 OA
BRANCH  17  24
ATOM     20  C   UNL     1       2.117  16.740  18.605  0.00  0.00    +0.000 C 
ATOM     21  C   UNL     1       1.442  15.400  18.729  0.00  0.00    +0.000 A 
ATOM     22  C   UNL     1       2.210  14.224  18.633  0.00  0.00    +0.000 A 
ATOM     23  C   UNL     1       1.620  12.964  18.774  0.00  0.00    +0.000 A 
ATOM     24  C   UNL     1       0.255  12.879  19.028  0.00  0.00    +0.000 A 
ATOM     25  C   UNL     1      -0.531  14.034  19.068  0.00  0.00    +0.000 A 
ATOM     26  C   UNL     1       0.055  15.303  18.932  0.00  0.00    +0.000 A 
ATOM     27  C   UNL     1      -0.826  16.523  19.006  0.00  0.00    +0.000 C 
ENDBRANCH  17  24
ENDBRANCH  11  17
ENDBRANCH   1  14
BRANCH   4  28
ATOM     28  C   UNL     1       5.131   4.065  17.572  0.00  0.00    +0.000 C 
BRANCH  28  29
ATOM     29  C   UNL     1       4.678   3.855  16.135  0.00  0.00    +0.000 C 
ATOM     30  O   UNL     1       3.586   3.371  15.838  0.00  0.00    +0.000 OA
ATOM     31  N   UNL     1       5.625   4.141  15.158  0.00  0.00    +0.000 N 
ATOM     32  C   UNL     1       5.408   3.792  13.767  0.00  0.00    +0.000 C 
ATOM     33  C   UNL     1       6.789   3.930  13.145  0.00  0.00    +0.000 C 
ATOM     34  C   UNL     1       7.412   5.090  13.911  0.00  0.00    +0.000 C 
ATOM     35  C   UNL     1       6.752   5.051  15.288  0.00  0.00    +0.000 C 
ENDBRANCH  28  29
ENDBRANCH   4  28
TORSDOF 5
ENDMDL
MODEL 7
REMARK VINA RESULT:      -9.4      2.272      3.115
REMARK  Name = 
REMARK  8 active torsions:
REMARK  status: ('A' for Active; 'I' for Inactive)
REMARK    1  A    between atoms: C_1  and  C_2
REMARK    2  A    between atoms: C_5  and  S_6
REMARK    3  A    between atoms: S_6  and  N_9
REMARK    4  A    between atoms: C_12  and  C_13
REMARK    5  A    between atoms: C_14  and  C_15
REMARK    6  A    between atoms: N_16  and  C_17
REMARK    7  A    between atoms: C_17  and  C_18
REMARK    8  A    between atoms: C_34  and  C_35
REMARK                            x       y       z     vdW  Elec       q    Type
REMARK                         _______ _______ _______ _____ _____    ______ ____
ROOT
ATOM      1  C   UNL     1       2.976   6.336  19.298  0.00  0.00    +0.000 A 
ATOM      2  C   UNL     1       4.006   6.197  18.385  0.00  0.00    +0.000 A 
ATOM      3  C   UNL     1       4.532   7.184  17.395  0.00  0.00    +0.000 C 
ATOM      4  N   UNL     1       4.501   4.911  18.518  0.00  0.00    +0.000 N 
ATOM      5  C   UNL     1       3.818   4.245  19.529  0.00  0.00    +0.000 A 
ATOM      6  C   UNL     1       3.943   2.935  20.022  0.00  0.00    +0.000 A 
ATOM      7  C   UNL     1       3.082   2.526  21.046  0.00  0.00    +0.000 A 
ATOM      8  C   UNL     1       2.127   3.391  21.567  0.00  0.00    +0.000 A 
ATOM      9  C   UNL     1       2.005   4.692  21.071  0.00  0.00    +0.000 A 
ATOM     10  C   UNL     1       2.859   5.129  20.036  0.00  0.00    +0.000 A 
ENDROOT
BRANCH   1  14
ATOM     11  N   UNL     1       0.788   9.984  19.838  0.00  0.00    +0.000 NA
ATOM     12  C   UNL     1       1.338   9.701  18.497  0.00  0.00    +0.000 C 
ATOM     13  C   UNL     1       2.041   8.389  18.399  0.00  0.00    +0.000 C 
ATOM     14  C   UNL     1       2.148   7.493  19.391  0.00  0.00    +0.000 C 
ATOM     15  C   UNL     1       1.499   7.734  20.718  0.00  0.00    +0.000 C 
ATOM     16  C   UNL     1       1.354   9.229  20.989  0.00  0.00    +0.000 C 
BRANCH  11  17
ATOM     17  S   UNL     1       0.459  11.637  20.133  0.00  0.00    +0.000 S 
ATOM     18  O   UNL     1       1.176  12.410  19.140  0.00  0.00    +0.000 OA
ATOM     19  O   UNL     1       0.635  11.892  21.546  0.00  0.00    +0.000 OA
BRANCH  17  24
ATOM     20  C   UNL     1      -5.467  12.334  18.880  0.00  0.00    +0.000 C 
ATOM     21  C   UNL     1      -4.013  12.140  19.221  0.00  0.00    +0.000 A 
ATOM     22  C   UNL     1      -3.206  11.335  18.394  0.00  0.00    +0.000 A 
ATOM     23  C   UNL     1      -1.846  11.158  18.663  0.00  0.00    +0.000 A 
ATOM     24  C   UNL     1      -1.284  11.802  19.761  0.00  0.00    +0.000 A 
ATOM     25  C   UNL     1      -2.081  12.557  20.624  0.00  0.00    +0.000 A 
ATOM     26  C   UNL     1      -3.447  12.744  20.357  0.00  0.00    +0.000 A 
ATOM     27  C   UNL     1      -4.266  13.586  21.301  0.00  0.00    +0.000 C 
ENDBRANCH  17  24
ENDBRANCH  11  17
ENDBRANCH   1  14
BRANCH   4  28
ATOM     28  C   UNL     1       5.434   4.253  17.601  0.00  0.00    +0.000 C 
BRANCH  28  29
ATOM     29  C   UNL     1       4.886   3.968  16.210  0.00  0.00    +0.000 C 
ATOM     30  O   UNL     1       3.777   3.470  16.014  0.00  0.00    +0.000 OA
ATOM     31  N   UNL     1       5.764   4.201  15.158  0.00  0.00    +0.000 N 
ATOM     32  C   UNL     1       5.455   3.779  13.805  0.00  0.00    +0.000 C 
ATOM     33  C   UNL     1       6.790   3.882  13.085  0.00  0.00    +0.000 C 
ATOM     34  C   UNL     1       7.461   5.081  13.745  0.00  0.00    +0.000 C 
ATOM     35  C   UNL     1       6.895   5.115  15.163  0.00  0.00    +0.000 C 
ENDBRANCH  28  29
ENDBRANCH   4  28
TORSDOF 5
ENDMDL
MODEL 8
REMARK VINA RESULT:      -9.4      2.050      2.954
REMARK  Name = 
REMARK  8 active torsions:
REMARK  status: ('A' for Active; 'I' for Inactive)
REMARK    1  A    between atoms: C_1  and  C_2
REMARK    2  A    between atoms: C_5  and  S_6
REMARK    3  A    between atoms: S_6  and  N_9
REMARK    4  A    between atoms: C_12  and  C_13
REMARK    5  A    between atoms: C_14  and  C_15
REMARK    6  A    between atoms: N_16  and  C_17
REMARK    7  A    between atoms: C_17  and  C_18
REMARK    8  A    between atoms: C_34  and  C_35
REMARK                            x       y       z     vdW  Elec       q    Type
REMARK                         _______ _______ _______ _____ _____    ______ ____
ROOT
ATOM      1  C   UNL     1       2.810   6.208  19.072  0.00  0.00    +0.000 A 
ATOM      2  C   UNL     1       3.687   5.904  18.047  0.00  0.00    +0.000 A 
ATOM      3  C   UNL     1       4.151   6.761  16.914  0.00  0.00    +0.000 C 
ATOM      4  N   UNL     1       4.087   4.591  18.224  0.00  0.00    +0.000 N 
ATOM      5  C   UNL     1       3.498   4.070  19.370  0.00  0.00    +0.000 A 
ATOM      6  C   UNL     1       3.582   2.794  19.954  0.00  0.00    +0.000 A 
ATOM      7  C   UNL     1       2.841   2.545  21.114  0.00  0.00    +0.000 A 
ATOM      8  C   UNL     1       2.044   3.534  21.681  0.00  0.00    +0.000 A 
ATOM      9  C   UNL     1       1.962   4.800  21.094  0.00  0.00    +0.000 A 
ATOM     10  C   UNL     1       2.697   5.075  19.921  0.00  0.00    +0.000 A 
ENDROOT
BRANCH   1  14
ATOM     11  N   UNL     1       0.996  10.051  19.643  0.00  0.00    +0.000 NA
ATOM     12  C   UNL     1       1.532   9.732  18.305  0.00  0.00    +0.000 C 
ATOM     13  C   UNL     1       2.099   8.358  18.194  0.00  0.00    +0.000 C 
ATOM     14  C   UNL     1       2.103   7.442  19.174  0.00  0.00    +0.000 C 
ATOM     15  C   UNL     1       1.465   7.729  20.497  0.00  0.00    +0.000 C 
ATOM     16  C   UNL     1       1.468   9.227  20.788  0.00  0.00    +0.000 C 
BRANCH  11  17
ATOM     17  S   UNL     1       0.833  11.724  19.960  0.00  0.00    +0.000 S 
ATOM     18  O   UNL     1       1.454  12.440  18.864  0.00  0.00    +0.000 OA
ATOM     19  O   UNL     1       1.227  11.971  21.330  0.00  0.00    +0.000 OA
BRANCH  17  24
ATOM     20  C   UNL     1      -5.187  12.584  19.529  0.00  0.00    +0.000 C 
ATOM     21  C   UNL     1      -3.696  12.393  19.603  0.00  0.00    +0.000 A 
ATOM     22  C   UNL     1      -2.965  13.021  20.630  0.00  0.00    +0.000 A 
ATOM     23  C   UNL     1      -1.583  12.841  20.746  0.00  0.00    +0.000 A 
ATOM     24  C   UNL     1      -0.929  12.016  19.838  0.00  0.00    +0.000 A 
ATOM     25  C   UNL     1      -1.629  11.433  18.779  0.00  0.00    +0.000 A 
ATOM     26  C   UNL     1      -3.017  11.604  18.658  0.00  0.00    +0.000 A 
ATOM     27  C   UNL     1      -3.738  10.937  17.515  0.00  0.00    +0.000 C 
ENDBRANCH  17  24
ENDBRANCH  11  17
ENDBRANCH   1  14
BRANCH   4  28
ATOM     28  C   UNL     1       4.825   3.782  17.252  0.00  0.00    +0.000 C 
BRANCH  28  29
ATOM     29  C   UNL     1       6.212   4.297  16.898  0.00  0.00    +0.000 C 
ATOM     30  O   UNL     1       7.013   4.703  17.740  0.00  0.00    +0.000 OA
ATOM     31  N   UNL     1       6.491   4.390  15.539  0.00  0.00    +0.000 N 
ATOM     32  C   UNL     1       7.684   5.056  15.053  0.00  0.00    +0.000 C 
ATOM     33  C   UNL     1       7.406   5.254  13.572  0.00  0.00    +0.000 C 
ATOM     34  C   UNL     1       6.594   4.021  13.193  0.00  0.00    +0.000 C 
ATOM     35  C   UNL     1       5.864   3.623  14.474  0.00  0.00    +0.000 C 
ENDBRANCH  28  29
ENDBRANCH   4  28
TORSDOF 5
ENDMDL
MODEL 9
REMARK VINA RESULT:      -9.4      2.257      3.163
REMARK  Name = 
REMARK  8 active torsions:
REMARK  status: ('A' for Active; 'I' for Inactive)
REMARK    1  A    between atoms: C_1  and  C_2
REMARK    2  A    between atoms: C_5  and  S_6
REMARK    3  A    between atoms: S_6  and  N_9
REMARK    4  A    between atoms: C_12  and  C_13
REMARK    5  A    between atoms: C_14  and  C_15
REMARK    6  A    between atoms: N_16  and  C_17
REMARK    7  A    between atoms: C_17  and  C_18
REMARK    8  A    between atoms: C_34  and  C_35
REMARK                            x       y       z     vdW  Elec       q    Type
REMARK                         _______ _______ _______ _____ _____    ______ ____
ROOT
ATOM      1  C   UNL     1       2.706   6.473  19.232  0.00  0.00    +0.000 A 
ATOM      2  C   UNL     1       3.819   6.321  18.425  0.00  0.00    +0.000 A 
ATOM      3  C   UNL     1       4.482   7.317  17.532  0.00  0.00    +0.000 C 
ATOM      4  N   UNL     1       4.247   5.012  18.560  0.00  0.00    +0.000 N 
ATOM      5  C   UNL     1       3.438   4.342  19.469  0.00  0.00    +0.000 A 
ATOM      6  C   UNL     1       3.462   3.012  19.924  0.00  0.00    +0.000 A 
ATOM      7  C   UNL     1       2.484   2.605  20.838  0.00  0.00    +0.000 A 
ATOM      8  C   UNL     1       1.514   3.492  21.291  0.00  0.00    +0.000 A 
ATOM      9  C   UNL     1       1.494   4.813  20.833  0.00  0.00    +0.000 A 
ATOM     10  C   UNL     1       2.467   5.248  19.909  0.00  0.00    +0.000 A 
ENDROOT
BRANCH   1  14
ATOM     11  N   UNL     1       0.677  10.235  19.565  0.00  0.00    +0.000 NA
ATOM     12  C   UNL     1       0.997   9.741  18.212  0.00  0.00    +0.000 C 
ATOM     13  C   UNL     1       1.659   8.405  18.198  0.00  0.00    +0.000 C 
ATOM     14  C   UNL     1       1.917   7.660  19.283  0.00  0.00    +0.000 C 
ATOM     15  C   UNL     1       1.498   8.114  20.646  0.00  0.00    +0.000 C 
ATOM     16  C   UNL     1       1.415   9.637  20.710  0.00  0.00    +0.000 C 
BRANCH  11  17
ATOM     17  S   UNL     1       0.420  11.924  19.660  0.00  0.00    +0.000 S 
ATOM     18  O   UNL     1      -0.177  12.346  18.409  0.00  0.00    +0.000 OA
ATOM     19  O   UNL     1       1.629  12.544  20.155  0.00  0.00    +0.000 OA
BRANCH  17  24
ATOM     20  C   UNL     1      -3.953  12.448  23.876  0.00  0.00    +0.000 C 
ATOM     21  C   UNL     1      -2.873  12.357  22.831  0.00  0.00    +0.000 A 
ATOM     22  C   UNL     1      -1.576  11.954  23.205  0.00  0.00    +0.000 A 
ATOM     23  C   UNL     1      -0.557  11.830  22.256  0.00  0.00    +0.000 A 
ATOM     24  C   UNL     1      -0.839  12.098  20.920  0.00  0.00    +0.000 A 
ATOM     25  C   UNL     1      -2.103  12.555  20.542  0.00  0.00    +0.000 A 
ATOM     26  C   UNL     1      -3.134  12.677  21.488  0.00  0.00    +0.000 A 
ATOM     27  C   UNL     1      -4.490  13.151  21.032  0.00  0.00    +0.000 C 
ENDBRANCH  17  24
ENDBRANCH  11  17
ENDBRANCH   1  14
BRANCH   4  28
ATOM     28  C   UNL     1       5.245   4.347  17.719  0.00  0.00    +0.000 C 
BRANCH  28  29
ATOM     29  C   UNL     1       4.784   4.007  16.309  0.00  0.00    +0.000 C 
ATOM     30  O   UNL     1       3.716   3.445  16.068  0.00  0.00    +0.000 OA
ATOM     31  N   UNL     1       5.700   4.270  15.297  0.00  0.00    +0.000 N 
ATOM     32  C   UNL     1       5.484   3.808  13.939  0.00  0.00    +0.000 C 
ATOM     33  C   UNL     1       6.846   3.973  13.284  0.00  0.00    +0.000 C 
ATOM     34  C   UNL     1       7.416   5.219  13.952  0.00  0.00    +0.000 C 
ATOM     35  C   UNL     1       6.778   5.246  15.339  0.00  0.00    +0.000 C 
ENDBRANCH  28  29
ENDBRANCH   4  28
TORSDOF 5
ENDMDL
