MODEL 1
REMARK VINA RESULT:      -9.1      0.000      0.000
REMARK  Name = 
REMARK  5 active torsions:
REMARK  status: ('A' for Active; 'I' for Inactive)
REMARK    1  A    between atoms: C_1  and  C_2
REMARK    2  A    between atoms: C_7  and  N_8
REMARK    3  A    between atoms: N_8  and  C_9
REMARK    4  A    between atoms: C_9  and  C_10
REMARK    5  A    between atoms: C_15  and  C_16
REMARK                            x       y       z     vdW  Elec       q    Type
REMARK                         _______ _______ _______ _____ _____    ______ ____
ROOT
ATOM      1  C   UNL     1       6.546   6.007  17.511  0.00  0.00    +0.000 C 
ATOM      2  N   UNL     1       6.077   5.936  16.067  0.00  0.00    +0.000 NA
ATOM      3  C   UNL     1       6.839   5.043  15.512  0.00  0.00    +0.000 C 
ATOM      4  N   UNL     1       7.746   4.442  16.312  0.00  0.00    +0.000 N 
ATOM      5  C   UNL     1       7.573   4.877  17.593  0.00  0.00    +0.000 C 
ATOM      6  O   UNL     1       8.182   4.444  18.558  0.00  0.00    +0.000 OA
ATOM      7  H   UNL     1       8.333   3.654  16.093  0.00  0.00    +0.000 HD
ENDROOT
BRANCH   3   8
ATOM      8  C   UNL     1       6.749   4.623  14.094  0.00  0.00    +0.000 A 
ATOM      9  C   UNL     1       7.655   5.082  13.127  0.00  0.00    +0.000 A 
ATOM     10  C   UNL     1       7.575   4.612  11.811  0.00  0.00    +0.000 A 
ATOM     11  C   UNL     1       6.590   3.688  11.458  0.00  0.00    +0.000 A 
ATOM     12  C   UNL     1       5.671   3.250  12.411  0.00  0.00    +0.000 A 
ATOM     13  C   UNL     1       5.744   3.723  13.725  0.00  0.00    +0.000 A 
ENDBRANCH   3   8
BRANCH   1  14
ATOM     14  C   UNL     1       7.409   7.312  17.748  0.00  0.00    +0.000 C 
ATOM     15  F   UNL     1       6.626   8.417  17.887  0.00  0.00    +0.000 F 
ATOM     16  F   UNL     1       8.212   7.266  18.838  0.00  0.00    +0.000 F 
ATOM     17  F   UNL     1       8.228   7.573  16.693  0.00  0.00    +0.000 F 
ENDBRANCH   1  14
BRANCH   1  18
ATOM     18  N   UNL     1       5.423   5.938  18.478  0.00  0.00    +0.000 N 
ATOM     19  H   UNL     1       5.192   6.871  18.797  0.00  0.00    +0.000 HD
BRANCH  18  26
ATOM     20  C   UNL     1       2.936   7.357  18.003  0.00  0.00    +0.000 C 
ATOM     21  C   UNL     1       3.045   5.858  18.064  0.00  0.00    +0.000 A 
ATOM     22  C   UNL     1       1.870   5.099  17.975  0.00  0.00    +0.000 A 
ATOM     23  C   UNL     1       1.935   3.719  18.068  0.00  0.00    +0.000 A 
ATOM     24  C   UNL     1       3.179   3.147  18.230  0.00  0.00    +0.000 A 
ATOM     25  N   UNL     1       4.336   3.847  18.310  0.00  0.00    +0.000 NA
ATOM     26  C   UNL     1       4.280   5.193  18.246  0.00  0.00    +0.000 A 
ENDBRANCH  18  26
ENDBRANCH   1  18
TORSDOF 4
ENDMDL
MODEL 2
REMARK VINA RESULT:      -8.9      3.959      7.030
REMARK  Name = 
REMARK  5 active torsions:
REMARK  status: ('A' for Active; 'I' for Inactive)
REMARK    1  A    between atoms: C_1  and  C_2
REMARK    2  A    between atoms: C_7  and  N_8
REMARK    3  A    between atoms: N_8  and  C_9
REMARK    4  A    between atoms: C_9  and  C_10
REMARK    5  A    between atoms: C_15  and  C_16
REMARK                            x       y       z     vdW  Elec       q    Type
REMARK                         _______ _______ _______ _____ _____    ______ ____
ROOT
ATOM      1  C   UNL     1       2.880   4.273  19.409  0.00  0.00    +0.000 C 
ATOM      2  N   UNL     1       2.740   5.644  18.767  0.00  0.00    +0.000 NA
ATOM      3  C   UNL     1       2.174   6.381  19.675  0.00  0.00    +0.000 C 
ATOM      4  N   UNL     1       1.917   5.787  20.860  0.00  0.00    +0.000 N 
ATOM      5  C   UNL     1       2.419   4.520  20.846  0.00  0.00    +0.000 C 
ATOM      6  O   UNL     1       2.423   3.768  21.807  0.00  0.00    +0.000 OA
ATOM      7  H   UNL     1       1.597   6.223  21.710  0.00  0.00    +0.000 HD
ENDROOT
BRANCH   3   8
ATOM      8  C   UNL     1       1.839   7.814  19.507  0.00  0.00    +0.000 A 
ATOM      9  C   UNL     1       2.084   8.496  18.306  0.00  0.00    +0.000 A 
ATOM     10  C   UNL     1       1.695   9.833  18.166  0.00  0.00    +0.000 A 
ATOM     11  C   UNL     1       1.065  10.492  19.223  0.00  0.00    +0.000 A 
ATOM     12  C   UNL     1       0.844   9.824  20.427  0.00  0.00    +0.000 A 
ATOM     13  C   UNL     1       1.238   8.491  20.573  0.00  0.00    +0.000 A 
ENDBRANCH   3   8
BRANCH   1  14
ATOM     14  C   UNL     1       1.792   3.280  18.833  0.00  0.00    +0.000 C 
ATOM     15  F   UNL     1       2.246   1.997  18.802  0.00  0.00    +0.000 F 
ATOM     16  F   UNL     1       0.625   3.262  19.522  0.00  0.00    +0.000 F 
ATOM     17  F   UNL     1       1.461   3.583  17.548  0.00  0.00    +0.000 F 
ENDBRANCH   1  14
BRANCH   1  18
ATOM     18  N   UNL     1       4.243   3.708  19.251  0.00  0.00    +0.000 N 
ATOM     19  H   UNL     1       4.188   2.824  18.761  0.00  0.00    +0.000 HD
BRANCH  18  26
ATOM     20  C   UNL     1       4.776   3.787  16.399  0.00  0.00    +0.000 C 
ATOM     21  C   UNL     1       5.632   4.471  17.429  0.00  0.00    +0.000 A 
ATOM     22  C   UNL     1       6.804   5.112  17.004  0.00  0.00    +0.000 A 
ATOM     23  C   UNL     1       7.632   5.716  17.934  0.00  0.00    +0.000 A 
ATOM     24  C   UNL     1       7.247   5.672  19.258  0.00  0.00    +0.000 A 
ATOM     25  N   UNL     1       6.118   5.071  19.704  0.00  0.00    +0.000 NA
ATOM     26  C   UNL     1       5.318   4.458  18.808  0.00  0.00    +0.000 A 
ENDBRANCH  18  26
ENDBRANCH   1  18
TORSDOF 4
ENDMDL
MODEL 3
REMARK VINA RESULT:      -8.7      3.820      7.131
REMARK  Name = 
REMARK  5 active torsions:
REMARK  status: ('A' for Active; 'I' for Inactive)
REMARK    1  A    between atoms: C_1  and  C_2
REMARK    2  A    between atoms: C_7  and  N_8
REMARK    3  A    between atoms: N_8  and  C_9
REMARK    4  A    between atoms: C_9  and  C_10
REMARK    5  A    between atoms: C_15  and  C_16
REMARK                            x       y       z     vdW  Elec       q    Type
REMARK                         _______ _______ _______ _____ _____    ______ ____
ROOT
ATOM      1  C   UNL     1       3.021   4.762  18.511  0.00  0.00    +0.000 C 
ATOM      2  N   UNL     1       2.628   6.224  18.379  0.00  0.00    +0.000 NA
ATOM      3  C   UNL     1       2.236   6.573  19.568  0.00  0.00    +0.000 C 
ATOM      4  N   UNL     1       2.312   5.628  20.529  0.00  0.00    +0.000 N 
ATOM      5  C   UNL     1       2.894   4.508  20.013  0.00  0.00    +0.000 C 
ATOM      6  O   UNL     1       3.183   3.517  20.665  0.00  0.00    +0.000 OA
ATOM      7  H   UNL     1       2.169   5.745  21.519  0.00  0.00    +0.000 HD
ENDROOT
BRANCH   3   8
ATOM      8  C   UNL     1       1.761   7.927  19.934  0.00  0.00    +0.000 A 
ATOM      9  C   UNL     1       1.593   8.937  18.976  0.00  0.00    +0.000 A 
ATOM     10  C   UNL     1       1.082  10.184  19.352  0.00  0.00    +0.000 A 
ATOM     11  C   UNL     1       0.740  10.426  20.683  0.00  0.00    +0.000 A 
ATOM     12  C   UNL     1       0.930   9.432  21.643  0.00  0.00    +0.000 A 
ATOM     13  C   UNL     1       1.448   8.188  21.272  0.00  0.00    +0.000 A 
ENDBRANCH   3   8
BRANCH   1  14
ATOM     14  C   UNL     1       1.909   3.831  17.880  0.00  0.00    +0.000 C 
ATOM     15  F   UNL     1       0.995   4.547  17.168  0.00  0.00    +0.000 F 
ATOM     16  F   UNL     1       2.382   2.871  17.049  0.00  0.00    +0.000 F 
ATOM     17  F   UNL     1       1.196   3.177  18.837  0.00  0.00    +0.000 F 
ENDBRANCH   1  14
BRANCH   1  18
ATOM     18  N   UNL     1       4.348   4.473  17.912  0.00  0.00    +0.000 N 
ATOM     19  H   UNL     1       4.243   4.308  16.919  0.00  0.00    +0.000 HD
BRANCH  18  26
ATOM     20  C   UNL     1       5.150   6.445  15.939  0.00  0.00    +0.000 C 
ATOM     21  C   UNL     1       5.914   6.171  17.206  0.00  0.00    +0.000 A 
ATOM     22  C   UNL     1       7.128   6.839  17.411  0.00  0.00    +0.000 A 
ATOM     23  C   UNL     1       7.872   6.578  18.548  0.00  0.00    +0.000 A 
ATOM     24  C   UNL     1       7.363   5.668  19.451  0.00  0.00    +0.000 A 
ATOM     25  N   UNL     1       6.189   5.011  19.291  0.00  0.00    +0.000 NA
ATOM     26  C   UNL     1       5.470   5.241  18.174  0.00  0.00    +0.000 A 
ENDBRANCH  18  26
ENDBRANCH   1  18
TORSDOF 4
ENDMDL
MODEL 4
REMARK VINA RESULT:      -8.7      3.954      7.002
REMARK  Name = 
REMARK  5 active torsions:
REMARK  status: ('A' for Active; 'I' for Inactive)
REMARK    1  A    between atoms: C_1  and  C_2
REMARK    2  A    between atoms: C_7  and  N_8
REMARK    3  A    between atoms: N_8  and  C_9
REMARK    4  A    between atoms: C_9  and  C_10
REMARK    5  A    between atoms: C_15  and  C_16
REMARK                            x       y       z     vdW  Elec       q    Type
REMARK                         _______ _______ _______ _____ _____    ______ ____
ROOT
ATOM      1  C   UNL     1       2.918   4.272  19.395  0.00  0.00    +0.000 C 
ATOM      2  N   UNL     1       2.764   5.625  18.719  0.00  0.00    +0.000 NA
ATOM      3  C   UNL     1       2.188   6.378  19.607  0.00  0.00    +0.000 C 
ATOM      4  N   UNL     1       1.934   5.811  20.806  0.00  0.00    +0.000 N 
ATOM      5  C   UNL     1       2.450   4.549  20.824  0.00  0.00    +0.000 C 
ATOM      6  O   UNL     1       2.461   3.821  21.804  0.00  0.00    +0.000 OA
ATOM      7  H   UNL     1       1.607   6.263  21.644  0.00  0.00    +0.000 HD
ENDROOT
BRANCH   3   8
ATOM      8  C   UNL     1       1.837   7.802  19.403  0.00  0.00    +0.000 A 
ATOM      9  C   UNL     1       1.242   8.571  20.414  0.00  0.00    +0.000 A 
ATOM     10  C   UNL     1       0.983   9.930  20.203  0.00  0.00    +0.000 A 
ATOM     11  C   UNL     1       1.314  10.523  18.984  0.00  0.00    +0.000 A 
ATOM     12  C   UNL     1       1.882   9.756  17.967  0.00  0.00    +0.000 A 
ATOM     13  C   UNL     1       2.134   8.396  18.172  0.00  0.00    +0.000 A 
ENDBRANCH   3   8
BRANCH   1  14
ATOM     14  C   UNL     1       1.843   3.253  18.841  0.00  0.00    +0.000 C 
ATOM     15  F   UNL     1       1.534   3.502  17.539  0.00  0.00    +0.000 F 
ATOM     16  F   UNL     1       2.213   1.951  18.910  0.00  0.00    +0.000 F 
ATOM     17  F   UNL     1       0.667   3.342  19.521  0.00  0.00    +0.000 F 
ENDBRANCH   1  14
BRANCH   1  18
ATOM     18  N   UNL     1       4.288   3.718  19.254  0.00  0.00    +0.000 N 
ATOM     19  H   UNL     1       4.246   2.835  18.762  0.00  0.00    +0.000 HD
BRANCH  18  26
ATOM     20  C   UNL     1       4.888   3.764  16.414  0.00  0.00    +0.000 C 
ATOM     21  C   UNL     1       5.710   4.476  17.455  0.00  0.00    +0.000 A 
ATOM     22  C   UNL     1       6.881   5.128  17.048  0.00  0.00    +0.000 A 
ATOM     23  C   UNL     1       7.678   5.758  17.989  0.00  0.00    +0.000 A 
ATOM     24  C   UNL     1       7.262   5.727  19.303  0.00  0.00    +0.000 A 
ATOM     25  N   UNL     1       6.131   5.117  19.731  0.00  0.00    +0.000 NA
ATOM     26  C   UNL     1       5.362   4.478  18.825  0.00  0.00    +0.000 A 
ENDBRANCH  18  26
ENDBRANCH   1  18
TORSDOF 4
ENDMDL
MODEL 5
REMARK VINA RESULT:      -8.7      3.826      7.147
REMARK  Name = 
REMARK  5 active torsions:
REMARK  status: ('A' for Active; 'I' for Inactive)
REMARK    1  A    between atoms: C_1  and  C_2
REMARK    2  A    between atoms: C_7  and  N_8
REMARK    3  A    between atoms: N_8  and  C_9
REMARK    4  A    between atoms: C_9  and  C_10
REMARK    5  A    between atoms: C_15  and  C_16
REMARK                            x       y       z     vdW  Elec       q    Type
REMARK                         _______ _______ _______ _____ _____    ______ ____
ROOT
ATOM      1  C   UNL     1       3.034   4.745  18.517  0.00  0.00    +0.000 C 
ATOM      2  N   UNL     1       2.603   6.197  18.399  0.00  0.00    +0.000 NA
ATOM      3  C   UNL     1       2.225   6.532  19.597  0.00  0.00    +0.000 C 
ATOM      4  N   UNL     1       2.341   5.585  20.552  0.00  0.00    +0.000 N 
ATOM      5  C   UNL     1       2.940   4.481  20.020  0.00  0.00    +0.000 C 
ATOM      6  O   UNL     1       3.265   3.495  20.662  0.00  0.00    +0.000 OA
ATOM      7  H   UNL     1       2.214   5.694  21.545  0.00  0.00    +0.000 HD
ENDROOT
BRANCH   3   8
ATOM      8  C   UNL     1       1.724   7.872  19.978  0.00  0.00    +0.000 A 
ATOM      9  C   UNL     1       1.396   8.191  21.303  0.00  0.00    +0.000 A 
ATOM     10  C   UNL     1       0.986   9.488  21.633  0.00  0.00    +0.000 A 
ATOM     11  C   UNL     1       0.899  10.466  20.642  0.00  0.00    +0.000 A 
ATOM     12  C   UNL     1       1.199  10.146  19.318  0.00  0.00    +0.000 A 
ATOM     13  C   UNL     1       1.602   8.849  18.984  0.00  0.00    +0.000 A 
ENDBRANCH   3   8
BRANCH   1  14
ATOM     14  C   UNL     1       1.932   3.791  17.902  0.00  0.00    +0.000 C 
ATOM     15  F   UNL     1       2.471   2.890  17.035  0.00  0.00    +0.000 F 
ATOM     16  F   UNL     1       1.230   3.077  18.816  0.00  0.00    +0.000 F 
ATOM     17  F   UNL     1       1.008   4.484  17.183  0.00  0.00    +0.000 F 
ENDBRANCH   1  14
BRANCH   1  18
ATOM     18  N   UNL     1       4.356   4.491  17.893  0.00  0.00    +0.000 N 
ATOM     19  H   UNL     1       4.240   4.361  16.896  0.00  0.00    +0.000 HD
BRANCH  18  26
ATOM     20  C   UNL     1       5.134   6.522  15.971  0.00  0.00    +0.000 C 
ATOM     21  C   UNL     1       5.906   6.218  17.226  0.00  0.00    +0.000 A 
ATOM     22  C   UNL     1       7.118   6.888  17.443  0.00  0.00    +0.000 A 
ATOM     23  C   UNL     1       7.869   6.600  18.569  0.00  0.00    +0.000 A 
ATOM     24  C   UNL     1       7.371   5.662  19.448  0.00  0.00    +0.000 A 
ATOM     25  N   UNL     1       6.200   5.002  19.277  0.00  0.00    +0.000 NA
ATOM     26  C   UNL     1       5.474   5.258  18.170  0.00  0.00    +0.000 A 
ENDBRANCH  18  26
ENDBRANCH   1  18
TORSDOF 4
ENDMDL
MODEL 6
REMARK VINA RESULT:      -8.6      3.705      6.992
REMARK  Name = 
REMARK  5 active torsions:
REMARK  status: ('A' for Active; 'I' for Inactive)
REMARK    1  A    between atoms: C_1  and  C_2
REMARK    2  A    between atoms: C_7  and  N_8
REMARK    3  A    between atoms: N_8  and  C_9
REMARK    4  A    between atoms: C_9  and  C_10
REMARK    5  A    between atoms: C_15  and  C_16
REMARK                            x       y       z     vdW  Elec       q    Type
REMARK                         _______ _______ _______ _____ _____    ______ ____
ROOT
ATOM      1  C   UNL     1       3.294   3.941  19.017  0.00  0.00    +0.000 C 
ATOM      2  N   UNL     1       2.998   5.376  18.615  0.00  0.00    +0.000 NA
ATOM      3  C   UNL     1       2.362   5.882  19.628  0.00  0.00    +0.000 C 
ATOM      4  N   UNL     1       2.182   5.072  20.693  0.00  0.00    +0.000 N 
ATOM      5  C   UNL     1       2.820   3.888  20.470  0.00  0.00    +0.000 C 
ATOM      6  O   UNL     1       2.916   2.989  21.290  0.00  0.00    +0.000 OA
ATOM      7  H   UNL     1       1.823   5.319  21.601  0.00  0.00    +0.000 HD
ENDROOT
BRANCH   3   8
ATOM      8  C   UNL     1       1.869   7.277  19.702  0.00  0.00    +0.000 A 
ATOM      9  C   UNL     1       1.347   7.817  20.886  0.00  0.00    +0.000 A 
ATOM     10  C   UNL     1       0.950   9.158  20.932  0.00  0.00    +0.000 A 
ATOM     11  C   UNL     1       1.070   9.961  19.797  0.00  0.00    +0.000 A 
ATOM     12  C   UNL     1       1.564   9.421  18.610  0.00  0.00    +0.000 A 
ATOM     13  C   UNL     1       1.954   8.079  18.559  0.00  0.00    +0.000 A 
ENDBRANCH   3   8
BRANCH   1  14
ATOM     14  C   UNL     1       2.317   2.946  18.270  0.00  0.00    +0.000 C 
ATOM     15  F   UNL     1       2.714   1.651  18.406  0.00  0.00    +0.000 F 
ATOM     16  F   UNL     1       1.028   3.001  18.687  0.00  0.00    +0.000 F 
ATOM     17  F   UNL     1       2.285   3.180  16.930  0.00  0.00    +0.000 F 
ENDBRANCH   1  14
BRANCH   1  18
ATOM     18  N   UNL     1       4.709   3.564  18.779  0.00  0.00    +0.000 N 
ATOM     19  H   UNL     1       4.751   2.825  18.088  0.00  0.00    +0.000 HD
BRANCH  18  26
ATOM     20  C   UNL     1       5.401   4.247  16.044  0.00  0.00    +0.000 C 
ATOM     21  C   UNL     1       6.102   4.810  17.250  0.00  0.00    +0.000 A 
ATOM     22  C   UNL     1       7.209   5.646  17.049  0.00  0.00    +0.000 A 
ATOM     23  C   UNL     1       7.898   6.147  18.139  0.00  0.00    +0.000 A 
ATOM     24  C   UNL     1       7.441   5.808  19.395  0.00  0.00    +0.000 A 
ATOM     25  N   UNL     1       6.370   5.013  19.628  0.00  0.00    +0.000 NA
ATOM     26  C   UNL     1       5.708   4.499  18.572  0.00  0.00    +0.000 A 
ENDBRANCH  18  26
ENDBRANCH   1  18
TORSDOF 4
ENDMDL
MODEL 7
REMARK VINA RESULT:      -8.5      0.574      1.424
REMARK  Name = 
REMARK  5 active torsions:
REMARK  status: ('A' for Active; 'I' for Inactive)
REMARK    1  A    between atoms: C_1  and  C_2
REMARK    2  A    between atoms: C_7  and  N_8
REMARK    3  A    between atoms: N_8  and  C_9
REMARK    4  A    between atoms: C_9  and  C_10
REMARK    5  A    between atoms: C_15  and  C_16
REMARK                            x       y       z     vdW  Elec       q    Type
REMARK                         _______ _______ _______ _____ _____    ______ ____
ROOT
ATOM      1  C   UNL     1       6.553   5.951  17.615  0.00  0.00    +0.000 C 
ATOM      2  N   UNL     1       6.001   5.813  16.206  0.00  0.00    +0.000 NA
ATOM      3  C   UNL     1       6.761   4.927  15.636  0.00  0.00    +0.000 C 
ATOM      4  N   UNL     1       7.736   4.387  16.398  0.00  0.00    +0.000 N 
ATOM      5  C   UNL     1       7.624   4.861  17.672  0.00  0.00    +0.000 C 
ATOM      6  O   UNL     1       8.306   4.484  18.611  0.00  0.00    +0.000 OA
ATOM      7  H   UNL     1       8.337   3.612  16.170  0.00  0.00    +0.000 HD
ENDROOT
BRANCH   3   8
ATOM      8  C   UNL     1       6.601   4.453  14.241  0.00  0.00    +0.000 A 
ATOM      9  C   UNL     1       5.519   3.650  13.851  0.00  0.00    +0.000 A 
ATOM     10  C   UNL     1       5.370   3.275  12.511  0.00  0.00    +0.000 A 
ATOM     11  C   UNL     1       6.299   3.697  11.560  0.00  0.00    +0.000 A 
ATOM     12  C   UNL     1       7.391   4.475  11.949  0.00  0.00    +0.000 A 
ATOM     13  C   UNL     1       7.547   4.844  13.288  0.00  0.00    +0.000 A 
ENDBRANCH   3   8
BRANCH   1  14
ATOM     14  C   UNL     1       7.380   7.293  17.754  0.00  0.00    +0.000 C 
ATOM     15  F   UNL     1       8.190   7.501  16.680  0.00  0.00    +0.000 F 
ATOM     16  F   UNL     1       6.624   8.409  17.892  0.00  0.00    +0.000 F 
ATOM     17  F   UNL     1       8.206   7.267  18.836  0.00  0.00    +0.000 F 
ENDBRANCH   1  14
BRANCH   1  18
ATOM     18  N   UNL     1       5.494   5.878  18.652  0.00  0.00    +0.000 N 
ATOM     19  H   UNL     1       5.017   6.769  18.712  0.00  0.00    +0.000 HD
BRANCH  18  26
ATOM     20  C   UNL     1       2.710   6.395  18.011  0.00  0.00    +0.000 C 
ATOM     21  C   UNL     1       3.228   5.061  18.479  0.00  0.00    +0.000 A 
ATOM     22  C   UNL     1       2.307   4.030  18.704  0.00  0.00    +0.000 A 
ATOM     23  C   UNL     1       2.749   2.804  19.172  0.00  0.00    +0.000 A 
ATOM     24  C   UNL     1       4.103   2.651  19.381  0.00  0.00    +0.000 A 
ATOM     25  N   UNL     1       5.023   3.621  19.165  0.00  0.00    +0.000 NA
ATOM     26  C   UNL     1       4.598   4.826  18.733  0.00  0.00    +0.000 A 
ENDBRANCH  18  26
ENDBRANCH   1  18
TORSDOF 4
ENDMDL
MODEL 8
REMARK VINA RESULT:      -8.5      1.775      5.818
REMARK  Name = 
REMARK  5 active torsions:
REMARK  status: ('A' for Active; 'I' for Inactive)
REMARK    1  A    between atoms: C_1  and  C_2
REMARK    2  A    between atoms: C_7  and  N_8
REMARK    3  A    between atoms: N_8  and  C_9
REMARK    4  A    between atoms: C_9  and  C_10
REMARK    5  A    between atoms: C_15  and  C_16
REMARK                            x       y       z     vdW  Elec       q    Type
REMARK                         _______ _______ _______ _____ _____    ______ ____
ROOT
ATOM      1  C   UNL     1       6.548   5.935  17.082  0.00  0.00    +0.000 C 
ATOM      2  N   UNL     1       5.958   5.212  18.282  0.00  0.00    +0.000 NA
ATOM      3  C   UNL     1       4.695   5.514  18.265  0.00  0.00    +0.000 C 
ATOM      4  N   UNL     1       4.275   6.296  17.248  0.00  0.00    +0.000 N 
ATOM      5  C   UNL     1       5.314   6.518  16.393  0.00  0.00    +0.000 C 
ATOM      6  O   UNL     1       5.220   7.112  15.331  0.00  0.00    +0.000 OA
ATOM      7  H   UNL     1       3.327   6.533  17.005  0.00  0.00    +0.000 HD
ENDROOT
BRANCH   3   8
ATOM      8  C   UNL     1       3.700   5.028  19.250  0.00  0.00    +0.000 A 
ATOM      9  C   UNL     1       2.695   5.862  19.759  0.00  0.00    +0.000 A 
ATOM     10  C   UNL     1       1.736   5.349  20.640  0.00  0.00    +0.000 A 
ATOM     11  C   UNL     1       1.780   4.006  21.016  0.00  0.00    +0.000 A 
ATOM     12  C   UNL     1       2.795   3.180  20.531  0.00  0.00    +0.000 A 
ATOM     13  C   UNL     1       3.759   3.692  19.657  0.00  0.00    +0.000 A 
ENDBRANCH   3   8
BRANCH   1  14
ATOM     14  C   UNL     1       7.353   7.214  17.549  0.00  0.00    +0.000 C 
ATOM     15  F   UNL     1       8.050   6.983  18.696  0.00  0.00    +0.000 F 
ATOM     16  F   UNL     1       8.244   7.682  16.642  0.00  0.00    +0.000 F 
ATOM     17  F   UNL     1       6.524   8.258  17.828  0.00  0.00    +0.000 F 
ENDBRANCH   1  14
BRANCH   1  18
ATOM     18  N   UNL     1       7.402   5.053  16.249  0.00  0.00    +0.000 N 
ATOM     19  H   UNL     1       7.541   4.169  16.724  0.00  0.00    +0.000 HD
BRANCH  18  26
ATOM     20  C   UNL     1       5.399   3.115  15.439  0.00  0.00    +0.000 C 
ATOM     21  C   UNL     1       6.255   3.887  14.472  0.00  0.00    +0.000 A 
ATOM     22  C   UNL     1       6.147   3.598  13.106  0.00  0.00    +0.000 A 
ATOM     23  C   UNL     1       6.950   4.265  12.196  0.00  0.00    +0.000 A 
ATOM     24  C   UNL     1       7.823   5.212  12.689  0.00  0.00    +0.000 A 
ATOM     25  N   UNL     1       7.947   5.526  14.000  0.00  0.00    +0.000 NA
ATOM     26  C   UNL     1       7.187   4.863  14.895  0.00  0.00    +0.000 A 
ENDBRANCH  18  26
ENDBRANCH   1  18
TORSDOF 4
ENDMDL
MODEL 9
REMARK VINA RESULT:      -8.4      3.420      6.686
REMARK  Name = 
REMARK  5 active torsions:
REMARK  status: ('A' for Active; 'I' for Inactive)
REMARK    1  A    between atoms: C_1  and  C_2
REMARK    2  A    between atoms: C_7  and  N_8
REMARK    3  A    between atoms: N_8  and  C_9
REMARK    4  A    between atoms: C_9  and  C_10
REMARK    5  A    between atoms: C_15  and  C_16
REMARK                            x       y       z     vdW  Elec       q    Type
REMARK                         _______ _______ _______ _____ _____    ______ ____
ROOT
ATOM      1  C   UNL     1       3.412   3.944  18.681  0.00  0.00    +0.000 C 
ATOM      2  N   UNL     1       3.179   5.366  18.197  0.00  0.00    +0.000 NA
ATOM      3  C   UNL     1       2.551   5.951  19.172  0.00  0.00    +0.000 C 
ATOM      4  N   UNL     1       2.325   5.209  20.277  0.00  0.00    +0.000 N 
ATOM      5  C   UNL     1       2.919   3.990  20.128  0.00  0.00    +0.000 C 
ATOM      6  O   UNL     1       2.968   3.135  20.998  0.00  0.00    +0.000 OA
ATOM      7  H   UNL     1       1.966   5.520  21.164  0.00  0.00    +0.000 HD
ENDROOT
BRANCH   3   8
ATOM      8  C   UNL     1       2.114   7.367  19.162  0.00  0.00    +0.000 A 
ATOM      9  C   UNL     1       2.194   8.159  18.007  0.00  0.00    +0.000 A 
ATOM     10  C   UNL     1       1.712   9.472  18.022  0.00  0.00    +0.000 A 
ATOM     11  C   UNL     1       1.154   9.999  19.187  0.00  0.00    +0.000 A 
ATOM     12  C   UNL     1       1.096   9.223  20.345  0.00  0.00    +0.000 A 
ATOM     13  C   UNL     1       1.584   7.912  20.336  0.00  0.00    +0.000 A 
ENDBRANCH   3   8
BRANCH   1  14
ATOM     14  C   UNL     1       2.405   2.949  17.976  0.00  0.00    +0.000 C 
ATOM     15  F   UNL     1       2.839   1.660  18.043  0.00  0.00    +0.000 F 
ATOM     16  F   UNL     1       1.149   2.962  18.485  0.00  0.00    +0.000 F 
ATOM     17  F   UNL     1       2.272   3.221  16.649  0.00  0.00    +0.000 F 
ENDBRANCH   1  14
BRANCH   1  18
ATOM     18  N   UNL     1       4.814   3.499  18.486  0.00  0.00    +0.000 N 
ATOM     19  H   UNL     1       4.858   2.489  18.532  0.00  0.00    +0.000 HD
BRANCH  18  26
ATOM     20  C   UNL     1       6.775   5.532  19.154  0.00  0.00    +0.000 C 
ATOM     21  C   UNL     1       6.546   5.017  17.759  0.00  0.00    +0.000 A 
ATOM     22  C   UNL     1       7.255   5.608  16.704  0.00  0.00    +0.000 A 
ATOM     23  C   UNL     1       7.036   5.181  15.406  0.00  0.00    +0.000 A 
ATOM     24  C   UNL     1       6.127   4.163  15.212  0.00  0.00    +0.000 A 
ATOM     25  N   UNL     1       5.432   3.561  16.207  0.00  0.00    +0.000 NA
ATOM     26  C   UNL     1       5.620   3.988  17.472  0.00  0.00    +0.000 A 
ENDBRANCH  18  26
ENDBRANCH   1  18
TORSDOF 4
ENDMDL
