MODEL 1
REMARK VINA RESULT:      -8.8      0.000      0.000
REMARK  Name = 
REMARK  4 active torsions:
REMARK  status: ('A' for Active; 'I' for Inactive)
REMARK    1  A    between atoms: C_1  and  C_2
REMARK    2  A    between atoms: C_9  and  C_10
REMARK    3  A    between atoms: C_17  and  O_18
REMARK    4  A    between atoms: O_18  and  C_19
REMARK                            x       y       z     vdW  Elec       q    Type
REMARK                         _______ _______ _______ _____ _____    ______ ____
ROOT
ATOM      1  C   UNL     1       1.854   5.018  19.867  0.00  0.00    +0.000 A 
ATOM      2  C   UNL     1       0.930   4.278  20.628  0.00  0.00    +0.000 A 
ATOM      3  C   UNL     1       0.996   2.890  20.690  0.00  0.00    +0.000 A 
ATOM      4  C   UNL     1       1.989   2.220  19.990  0.00  0.00    +0.000 A 
ATOM      5  C   UNL     1       2.918   2.932  19.215  0.00  0.00    +0.000 A 
ATOM      6  C   UNL     1       3.918   2.254  18.504  0.00  0.00    +0.000 A 
ATOM      7  C   UNL     1       4.809   2.960  17.706  0.00  0.00    +0.000 A 
ATOM      8  C   UNL     1       4.662   4.329  17.641  0.00  0.00    +0.000 A 
ATOM      9  N   UNL     1       3.752   5.016  18.366  0.00  0.00    +0.000 NA
ATOM     10  C   UNL     1       2.862   4.343  19.136  0.00  0.00    +0.000 A 
ENDROOT
BRANCH   1  19
ATOM     11  C   UNL     1      -0.365   9.370  22.347  0.00  0.00    +0.000 C 
ATOM     12  C   UNL     1       0.987   9.631  21.682  0.00  0.00    +0.000 C 
ATOM     13  C   UNL     1       0.982  11.018  20.980  0.00  0.00    +0.000 C 
ATOM     14  N   UNL     1       1.353  11.078  19.568  0.00  0.00    +0.000 N 
ATOM     15  C   UNL     1       1.641  10.019  18.743  0.00  0.00    +0.000 C 
ATOM     16  O   UNL     1       1.885  10.190  17.553  0.00  0.00    +0.000 OA
ATOM     17  C   UNL     1       1.633   8.722  19.383  0.00  0.00    +0.000 A 
ATOM     18  C   UNL     1       1.898   7.434  18.853  0.00  0.00    +0.000 A 
ATOM     19  C   UNL     1       1.742   6.497  19.866  0.00  0.00    +0.000 A 
ATOM     20  N   UNL     1       1.404   7.218  20.999  0.00  0.00    +0.000 N 
ATOM     21  C   UNL     1       1.331   8.553  20.713  0.00  0.00    +0.000 A 
ATOM     22  H   UNL     1       1.337  11.970  19.091  0.00  0.00    +0.000 HD
ATOM     23  H   UNL     1       1.217   6.780  21.894  0.00  0.00    +0.000 HD
ENDBRANCH   1  19
BRANCH   8  24
ATOM     24  O   UNL     1       5.516   5.015  16.786  0.00  0.00    +0.000 OA
BRANCH  24  25
ATOM     25  C   UNL     1       6.424   5.894  17.335  0.00  0.00    +0.000 A 
ATOM     26  C   UNL     1       7.182   5.417  18.406  0.00  0.00    +0.000 A 
ATOM     27  C   UNL     1       8.124   6.244  19.024  0.00  0.00    +0.000 A 
ATOM     28  C   UNL     1       8.313   7.549  18.569  0.00  0.00    +0.000 A 
ATOM     29  C   UNL     1       7.585   8.017  17.477  0.00  0.00    +0.000 A 
ATOM     30  C   UNL     1       6.663   7.183  16.845  0.00  0.00    +0.000 A 
ENDBRANCH  24  25
ENDBRANCH   8  24
TORSDOF 3
ENDMDL
MODEL 2
REMARK VINA RESULT:      -8.6      1.335      1.901
REMARK  Name = 
REMARK  4 active torsions:
REMARK  status: ('A' for Active; 'I' for Inactive)
REMARK    1  A    between atoms: C_1  and  C_2
REMARK    2  A    between atoms: C_9  and  C_10
REMARK    3  A    between atoms: C_17  and  O_18
REMARK    4  A    between atoms: O_18  and  C_19
REMARK                            x       y       z     vdW  Elec       q    Type
REMARK                         _______ _______ _______ _____ _____    ______ ____
ROOT
ATOM      1  C   UNL     1       1.762   5.014  19.785  0.00  0.00    +0.000 A 
ATOM      2  C   UNL     1       0.931   4.078  20.431  0.00  0.00    +0.000 A 
ATOM      3  C   UNL     1       1.099   2.712  20.236  0.00  0.00    +0.000 A 
ATOM      4  C   UNL     1       2.102   2.258  19.390  0.00  0.00    +0.000 A 
ATOM      5  C   UNL     1       2.938   3.169  18.726  0.00  0.00    +0.000 A 
ATOM      6  C   UNL     1       3.949   2.712  17.868  0.00  0.00    +0.000 A 
ATOM      7  C   UNL     1       4.746   3.618  17.181  0.00  0.00    +0.000 A 
ATOM      8  C   UNL     1       4.499   4.960  17.373  0.00  0.00    +0.000 A 
ATOM      9  N   UNL     1       3.579   5.432  18.244  0.00  0.00    +0.000 NA
ATOM     10  C   UNL     1       2.778   4.563  18.909  0.00  0.00    +0.000 A 
ENDROOT
BRANCH   1  19
ATOM     11  C   UNL     1       2.414  10.111  17.885  0.00  0.00    +0.000 C 
ATOM     12  C   UNL     1       1.204   9.917  18.799  0.00  0.00    +0.000 C 
ATOM     13  C   UNL     1       1.048  11.137  19.751  0.00  0.00    +0.000 C 
ATOM     14  N   UNL     1       0.971  10.885  21.188  0.00  0.00    +0.000 N 
ATOM     15  C   UNL     1       1.098   9.674  21.823  0.00  0.00    +0.000 C 
ATOM     16  O   UNL     1       1.072   9.595  23.048  0.00  0.00    +0.000 OA
ATOM     17  C   UNL     1       1.259   8.535  20.948  0.00  0.00    +0.000 A 
ATOM     18  C   UNL     1       1.398   7.156  21.248  0.00  0.00    +0.000 A 
ATOM     19  C   UNL     1       1.545   6.455  20.059  0.00  0.00    +0.000 A 
ATOM     20  N   UNL     1       1.476   7.402  19.051  0.00  0.00    +0.000 N 
ATOM     21  C   UNL     1       1.312   8.652  19.579  0.00  0.00    +0.000 A 
ATOM     22  H   UNL     1       0.889  11.669  21.822  0.00  0.00    +0.000 HD
ATOM     23  H   UNL     1       1.567   7.168  18.070  0.00  0.00    +0.000 HD
ENDBRANCH   1  19
BRANCH   8  24
ATOM     24  O   UNL     1       5.259   5.854  16.628  0.00  0.00    +0.000 OA
BRANCH  24  25
ATOM     25  C   UNL     1       6.294   6.514  17.255  0.00  0.00    +0.000 A 
ATOM     26  C   UNL     1       7.012   5.784  18.205  0.00  0.00    +0.000 A 
ATOM     27  C   UNL     1       8.075   6.378  18.890  0.00  0.00    +0.000 A 
ATOM     28  C   UNL     1       8.426   7.702  18.624  0.00  0.00    +0.000 A 
ATOM     29  C   UNL     1       7.735   8.422  17.651  0.00  0.00    +0.000 A 
ATOM     30  C   UNL     1       6.691   7.820  16.949  0.00  0.00    +0.000 A 
ENDBRANCH  24  25
ENDBRANCH   8  24
TORSDOF 3
ENDMDL
MODEL 3
REMARK VINA RESULT:      -8.4      6.386     10.001
REMARK  Name = 
REMARK  4 active torsions:
REMARK  status: ('A' for Active; 'I' for Inactive)
REMARK    1  A    between atoms: C_1  and  C_2
REMARK    2  A    between atoms: C_9  and  C_10
REMARK    3  A    between atoms: C_17  and  O_18
REMARK    4  A    between atoms: O_18  and  C_19
REMARK                            x       y       z     vdW  Elec       q    Type
REMARK                         _______ _______ _______ _____ _____    ______ ____
ROOT
ATOM      1  C   UNL     1      -0.652  11.351  20.398  0.00  0.00    +0.000 A 
ATOM      2  C   UNL     1       0.585  10.680  20.462  0.00  0.00    +0.000 A 
ATOM      3  C   UNL     1       1.009   9.853  19.428  0.00  0.00    +0.000 A 
ATOM      4  C   UNL     1       0.201   9.683  18.311  0.00  0.00    +0.000 A 
ATOM      5  C   UNL     1      -1.040  10.331  18.226  0.00  0.00    +0.000 A 
ATOM      6  C   UNL     1      -1.858  10.155  17.101  0.00  0.00    +0.000 A 
ATOM      7  C   UNL     1      -3.103  10.767  17.039  0.00  0.00    +0.000 A 
ATOM      8  C   UNL     1      -3.493  11.532  18.117  0.00  0.00    +0.000 A 
ATOM      9  N   UNL     1      -2.701  11.775  19.185  0.00  0.00    +0.000 NA
ATOM     10  C   UNL     1      -1.489  11.172  19.271  0.00  0.00    +0.000 A 
ENDROOT
BRANCH   1  19
ATOM     11  C   UNL     1      -4.805  13.371  23.347  0.00  0.00    +0.000 C 
ATOM     12  C   UNL     1      -3.486  13.230  24.108  0.00  0.00    +0.000 C 
ATOM     13  C   UNL     1      -3.267  14.459  25.035  0.00  0.00    +0.000 C 
ATOM     14  N   UNL     1      -2.014  15.200  24.914  0.00  0.00    +0.000 N 
ATOM     15  C   UNL     1      -1.010  14.983  24.003  0.00  0.00    +0.000 C 
ATOM     16  O   UNL     1      -0.023  15.712  23.960  0.00  0.00    +0.000 OA
ATOM     17  C   UNL     1      -1.211  13.852  23.125  0.00  0.00    +0.000 A 
ATOM     18  C   UNL     1      -0.388  13.329  22.095  0.00  0.00    +0.000 A 
ATOM     19  C   UNL     1      -1.030  12.238  21.524  0.00  0.00    +0.000 A 
ATOM     20  N   UNL     1      -2.221  12.096  22.217  0.00  0.00    +0.000 N 
ATOM     21  C   UNL     1      -2.337  13.065  23.174  0.00  0.00    +0.000 A 
ATOM     22  H   UNL     1      -1.864  16.013  25.496  0.00  0.00    +0.000 HD
ATOM     23  H   UNL     1      -2.901  11.377  21.999  0.00  0.00    +0.000 HD
ENDBRANCH   1  19
BRANCH   8  24
ATOM     24  O   UNL     1      -4.769  12.081  18.071  0.00  0.00    +0.000 OA
BRANCH  24  25
ATOM     25  C   UNL     1      -5.714  11.617  18.961  0.00  0.00    +0.000 A 
ATOM     26  C   UNL     1      -6.209  10.332  18.727  0.00  0.00    +0.000 A 
ATOM     27  C   UNL     1      -7.173   9.785  19.578  0.00  0.00    +0.000 A 
ATOM     28  C   UNL     1      -7.640  10.520  20.668  0.00  0.00    +0.000 A 
ATOM     29  C   UNL     1      -7.123  11.787  20.925  0.00  0.00    +0.000 A 
ATOM     30  C   UNL     1      -6.143  12.322  20.090  0.00  0.00    +0.000 A 
ENDBRANCH  24  25
ENDBRANCH   8  24
TORSDOF 3
ENDMDL
MODEL 4
REMARK VINA RESULT:      -8.4      6.645     10.212
REMARK  Name = 
REMARK  4 active torsions:
REMARK  status: ('A' for Active; 'I' for Inactive)
REMARK    1  A    between atoms: C_1  and  C_2
REMARK    2  A    between atoms: C_9  and  C_10
REMARK    3  A    between atoms: C_17  and  O_18
REMARK    4  A    between atoms: O_18  and  C_19
REMARK                            x       y       z     vdW  Elec       q    Type
REMARK                         _______ _______ _______ _____ _____    ______ ____
ROOT
ATOM      1  C   UNL     1      -0.988  11.362  20.047  0.00  0.00    +0.000 A 
ATOM      2  C   UNL     1       0.283  10.761  19.978  0.00  0.00    +0.000 A 
ATOM      3  C   UNL     1       0.662  10.003  18.876  0.00  0.00    +0.000 A 
ATOM      4  C   UNL     1      -0.227   9.833  17.823  0.00  0.00    +0.000 A 
ATOM      5  C   UNL     1      -1.503  10.412  17.870  0.00  0.00    +0.000 A 
ATOM      6  C   UNL     1      -2.403  10.237  16.809  0.00  0.00    +0.000 A 
ATOM      7  C   UNL     1      -3.680  10.778  16.878  0.00  0.00    +0.000 A 
ATOM      8  C   UNL     1      -4.018  11.475  18.018  0.00  0.00    +0.000 A 
ATOM      9  N   UNL     1      -3.152  11.718  19.027  0.00  0.00    +0.000 NA
ATOM     10  C   UNL     1      -1.907  11.183  18.986  0.00  0.00    +0.000 A 
ENDROOT
BRANCH   1  19
ATOM     11  C   UNL     1      -5.016  13.271  23.233  0.00  0.00    +0.000 C 
ATOM     12  C   UNL     1      -3.684  13.049  23.948  0.00  0.00    +0.000 C 
ATOM     13  C   UNL     1      -3.411  14.206  24.950  0.00  0.00    +0.000 C 
ATOM     14  N   UNL     1      -2.144  14.925  24.847  0.00  0.00    +0.000 N 
ATOM     15  C   UNL     1      -1.168  14.747  23.897  0.00  0.00    +0.000 C 
ATOM     16  O   UNL     1      -0.165  15.454  23.879  0.00  0.00    +0.000 OA
ATOM     17  C   UNL     1      -1.418  13.683  22.950  0.00  0.00    +0.000 A 
ATOM     18  C   UNL     1      -0.634  13.213  21.867  0.00  0.00    +0.000 A 
ATOM     19  C   UNL     1      -1.316  12.179  21.240  0.00  0.00    +0.000 A 
ATOM     20  N   UNL     1      -2.493  12.017  21.953  0.00  0.00    +0.000 N 
ATOM     21  C   UNL     1      -2.562  12.921  22.976  0.00  0.00    +0.000 A 
ATOM     22  H   UNL     1      -1.959  15.693  25.479  0.00  0.00    +0.000 HD
ATOM     23  H   UNL     1      -3.196  11.331  21.704  0.00  0.00    +0.000 HD
ENDBRANCH   1  19
BRANCH   8  24
ATOM     24  O   UNL     1      -5.321  11.951  18.103  0.00  0.00    +0.000 OA
BRANCH  24  25
ATOM     25  C   UNL     1      -6.174  11.368  19.015  0.00  0.00    +0.000 A 
ATOM     26  C   UNL     1      -6.673  12.200  20.019  0.00  0.00    +0.000 A 
ATOM     27  C   UNL     1      -7.541  11.688  20.988  0.00  0.00    +0.000 A 
ATOM     28  C   UNL     1      -7.916  10.345  20.951  0.00  0.00    +0.000 A 
ATOM     29  C   UNL     1      -7.448   9.521  19.930  0.00  0.00    +0.000 A 
ATOM     30  C   UNL     1      -6.602  10.038  18.949  0.00  0.00    +0.000 A 
ENDBRANCH  24  25
ENDBRANCH   8  24
TORSDOF 3
ENDMDL
MODEL 5
REMARK VINA RESULT:      -8.2      1.442      2.057
REMARK  Name = 
REMARK  4 active torsions:
REMARK  status: ('A' for Active; 'I' for Inactive)
REMARK    1  A    between atoms: C_1  and  C_2
REMARK    2  A    between atoms: C_9  and  C_10
REMARK    3  A    between atoms: C_17  and  O_18
REMARK    4  A    between atoms: O_18  and  C_19
REMARK                            x       y       z     vdW  Elec       q    Type
REMARK                         _______ _______ _______ _____ _____    ______ ____
ROOT
ATOM      1  C   UNL     1       2.025   5.240  20.234  0.00  0.00    +0.000 A 
ATOM      2  C   UNL     1       1.014   4.519  20.898  0.00  0.00    +0.000 A 
ATOM      3  C   UNL     1       1.128   3.150  21.111  0.00  0.00    +0.000 A 
ATOM      4  C   UNL     1       2.257   2.478  20.662  0.00  0.00    +0.000 A 
ATOM      5  C   UNL     1       3.275   3.170  19.989  0.00  0.00    +0.000 A 
ATOM      6  C   UNL     1       4.414   2.492  19.531  0.00  0.00    +0.000 A 
ATOM      7  C   UNL     1       5.400   3.173  18.830  0.00  0.00    +0.000 A 
ATOM      8  C   UNL     1       5.207   4.519  18.602  0.00  0.00    +0.000 A 
ATOM      9  N   UNL     1       4.155   5.214  19.088  0.00  0.00    +0.000 NA
ATOM     10  C   UNL     1       3.173   4.563  19.759  0.00  0.00    +0.000 A 
ENDROOT
BRANCH   1  19
ATOM     11  C   UNL     1      -0.429   9.741  22.167  0.00  0.00    +0.000 C 
ATOM     12  C   UNL     1       0.924   9.985  21.500  0.00  0.00    +0.000 C 
ATOM     13  C   UNL     1       0.876  11.283  20.645  0.00  0.00    +0.000 C 
ATOM     14  N   UNL     1       1.275  11.200  19.242  0.00  0.00    +0.000 N 
ATOM     15  C   UNL     1       1.625  10.068  18.548  0.00  0.00    +0.000 C 
ATOM     16  O   UNL     1       1.887  10.115  17.350  0.00  0.00    +0.000 OA
ATOM     17  C   UNL     1       1.658   8.853  19.330  0.00  0.00    +0.000 A 
ATOM     18  C   UNL     1       1.988   7.526  18.954  0.00  0.00    +0.000 A 
ATOM     19  C   UNL     1       1.850   6.703  20.064  0.00  0.00    +0.000 A 
ATOM     20  N   UNL     1       1.457   7.531  21.102  0.00  0.00    +0.000 N 
ATOM     21  C   UNL     1       1.334   8.821  20.666  0.00  0.00    +0.000 A 
ATOM     22  H   UNL     1       1.232  12.031  18.667  0.00  0.00    +0.000 HD
ATOM     23  H   UNL     1       1.269   7.189  22.037  0.00  0.00    +0.000 HD
ENDBRANCH   1  19
BRANCH   8  24
ATOM     24  O   UNL     1       6.168   5.173  17.840  0.00  0.00    +0.000 OA
BRANCH  24  25
ATOM     25  C   UNL     1       6.206   4.928  16.484  0.00  0.00    +0.000 A 
ATOM     26  C   UNL     1       7.416   5.193  15.839  0.00  0.00    +0.000 A 
ATOM     27  C   UNL     1       7.540   4.976  14.464  0.00  0.00    +0.000 A 
ATOM     28  C   UNL     1       6.457   4.489  13.732  0.00  0.00    +0.000 A 
ATOM     29  C   UNL     1       5.260   4.190  14.378  0.00  0.00    +0.000 A 
ATOM     30  C   UNL     1       5.144   4.382  15.754  0.00  0.00    +0.000 A 
ENDBRANCH  24  25
ENDBRANCH   8  24
TORSDOF 3
ENDMDL
MODEL 6
REMARK VINA RESULT:      -8.2      1.885      2.487
REMARK  Name = 
REMARK  4 active torsions:
REMARK  status: ('A' for Active; 'I' for Inactive)
REMARK    1  A    between atoms: C_1  and  C_2
REMARK    2  A    between atoms: C_9  and  C_10
REMARK    3  A    between atoms: C_17  and  O_18
REMARK    4  A    between atoms: O_18  and  C_19
REMARK                            x       y       z     vdW  Elec       q    Type
REMARK                         _______ _______ _______ _____ _____    ______ ____
ROOT
ATOM      1  C   UNL     1       2.085   5.185  19.705  0.00  0.00    +0.000 A 
ATOM      2  C   UNL     1       1.358   4.328  20.553  0.00  0.00    +0.000 A 
ATOM      3  C   UNL     1       1.542   2.950  20.512  0.00  0.00    +0.000 A 
ATOM      4  C   UNL     1       2.457   2.407  19.620  0.00  0.00    +0.000 A 
ATOM      5  C   UNL     1       3.187   3.237  18.757  0.00  0.00    +0.000 A 
ATOM      6  C   UNL     1       4.108   2.689  17.852  0.00  0.00    +0.000 A 
ATOM      7  C   UNL     1       4.797   3.511  16.971  0.00  0.00    +0.000 A 
ATOM      8  C   UNL     1       4.535   4.863  17.021  0.00  0.00    +0.000 A 
ATOM      9  N   UNL     1       3.705   5.429  17.926  0.00  0.00    +0.000 NA
ATOM     10  C   UNL     1       3.008   4.641  18.781  0.00  0.00    +0.000 A 
ENDROOT
BRANCH   1  19
ATOM     11  C   UNL     1      -0.409   9.150  22.547  0.00  0.00    +0.000 C 
ATOM     12  C   UNL     1       0.903   9.566  21.883  0.00  0.00    +0.000 C 
ATOM     13  C   UNL     1       0.776  10.997  21.289  0.00  0.00    +0.000 C 
ATOM     14  N   UNL     1       1.110  11.192  19.880  0.00  0.00    +0.000 N 
ATOM     15  C   UNL     1       1.461  10.224  18.972  0.00  0.00    +0.000 C 
ATOM     16  O   UNL     1       1.664  10.503  17.794  0.00  0.00    +0.000 OA
ATOM     17  C   UNL     1       1.567   8.886  19.510  0.00  0.00    +0.000 A 
ATOM     18  C   UNL     1       1.919   7.666  18.879  0.00  0.00    +0.000 A 
ATOM     19  C   UNL     1       1.858   6.646  19.820  0.00  0.00    +0.000 A 
ATOM     20  N   UNL     1       1.490   7.251  21.010  0.00  0.00    +0.000 N 
ATOM     21  C   UNL     1       1.308   8.594  20.828  0.00  0.00    +0.000 A 
ATOM     22  H   UNL     1       1.014  12.113  19.474  0.00  0.00    +0.000 HD
ATOM     23  H   UNL     1       1.358   6.734  21.871  0.00  0.00    +0.000 HD
ENDBRANCH   1  19
BRANCH   8  24
ATOM     24  O   UNL     1       5.181   5.665  16.088  0.00  0.00    +0.000 OA
BRANCH  24  25
ATOM     25  C   UNL     1       5.671   5.074  14.944  0.00  0.00    +0.000 A 
ATOM     26  C   UNL     1       7.010   5.327  14.638  0.00  0.00    +0.000 A 
ATOM     27  C   UNL     1       7.587   4.770  13.493  0.00  0.00    +0.000 A 
ATOM     28  C   UNL     1       6.827   3.954  12.655  0.00  0.00    +0.000 A 
ATOM     29  C   UNL     1       5.502   3.670  12.976  0.00  0.00    +0.000 A 
ATOM     30  C   UNL     1       4.934   4.205  14.131  0.00  0.00    +0.000 A 
ENDBRANCH  24  25
ENDBRANCH   8  24
TORSDOF 3
ENDMDL
MODEL 7
REMARK VINA RESULT:      -8.1      5.843      9.102
REMARK  Name = 
REMARK  4 active torsions:
REMARK  status: ('A' for Active; 'I' for Inactive)
REMARK    1  A    between atoms: C_1  and  C_2
REMARK    2  A    between atoms: C_9  and  C_10
REMARK    3  A    between atoms: C_17  and  O_18
REMARK    4  A    between atoms: O_18  and  C_19
REMARK                            x       y       z     vdW  Elec       q    Type
REMARK                         _______ _______ _______ _____ _____    ______ ____
ROOT
ATOM      1  C   UNL     1      -4.431  12.338  19.209  0.00  0.00    +0.000 A 
ATOM      2  C   UNL     1      -5.616  12.699  18.539  0.00  0.00    +0.000 A 
ATOM      3  C   UNL     1      -5.836  12.329  17.216  0.00  0.00    +0.000 A 
ATOM      4  C   UNL     1      -4.873  11.590  16.542  0.00  0.00    +0.000 A 
ATOM      5  C   UNL     1      -3.679  11.225  17.183  0.00  0.00    +0.000 A 
ATOM      6  C   UNL     1      -2.704  10.483  16.501  0.00  0.00    +0.000 A 
ATOM      7  C   UNL     1      -1.507  10.160  17.126  0.00  0.00    +0.000 A 
ATOM      8  C   UNL     1      -1.322  10.600  18.419  0.00  0.00    +0.000 A 
ATOM      9  N   UNL     1      -2.269  11.257  19.125  0.00  0.00    +0.000 NA
ATOM     10  C   UNL     1      -3.436  11.598  18.526  0.00  0.00    +0.000 A 
ENDROOT
BRANCH   1  19
ATOM     11  C   UNL     1      -0.994  14.375  22.958  0.00  0.00    +0.000 C 
ATOM     12  C   UNL     1      -2.468  14.705  23.192  0.00  0.00    +0.000 C 
ATOM     13  C   UNL     1      -2.807  14.604  24.707  0.00  0.00    +0.000 C 
ATOM     14  N   UNL     1      -3.922  13.750  25.109  0.00  0.00    +0.000 N 
ATOM     15  C   UNL     1      -4.681  12.944  24.296  0.00  0.00    +0.000 C 
ATOM     16  O   UNL     1      -5.559  12.223  24.760  0.00  0.00    +0.000 OA
ATOM     17  C   UNL     1      -4.363  13.018  22.888  0.00  0.00    +0.000 A 
ATOM     18  C   UNL     1      -4.943  12.353  21.778  0.00  0.00    +0.000 A 
ATOM     19  C   UNL     1      -4.273  12.744  20.626  0.00  0.00    +0.000 A 
ATOM     20  N   UNL     1      -3.311  13.651  21.038  0.00  0.00    +0.000 N 
ATOM     21  C   UNL     1      -3.356  13.814  22.395  0.00  0.00    +0.000 A 
ATOM     22  H   UNL     1      -4.144  13.659  26.091  0.00  0.00    +0.000 HD
ATOM     23  H   UNL     1      -2.662  14.092  20.398  0.00  0.00    +0.000 HD
ENDBRANCH   1  19
BRANCH   8  24
ATOM     24  O   UNL     1      -0.093  10.328  19.008  0.00  0.00    +0.000 OA
BRANCH  24  25
ATOM     25  C   UNL     1      -0.052  10.113  20.369  0.00  0.00    +0.000 A 
ATOM     26  C   UNL     1       0.643   8.980  20.798  0.00  0.00    +0.000 A 
ATOM     27  C   UNL     1       0.730   8.685  22.161  0.00  0.00    +0.000 A 
ATOM     28  C   UNL     1       0.127   9.523  23.098  0.00  0.00    +0.000 A 
ATOM     29  C   UNL     1      -0.537  10.673  22.676  0.00  0.00    +0.000 A 
ATOM     30  C   UNL     1      -0.602  10.981  21.318  0.00  0.00    +0.000 A 
ENDBRANCH  24  25
ENDBRANCH   8  24
TORSDOF 3
ENDMDL
MODEL 8
REMARK VINA RESULT:      -8.1      1.510      2.036
REMARK  Name = 
REMARK  4 active torsions:
REMARK  status: ('A' for Active; 'I' for Inactive)
REMARK    1  A    between atoms: C_1  and  C_2
REMARK    2  A    between atoms: C_9  and  C_10
REMARK    3  A    between atoms: C_17  and  O_18
REMARK    4  A    between atoms: O_18  and  C_19
REMARK                            x       y       z     vdW  Elec       q    Type
REMARK                         _______ _______ _______ _____ _____    ______ ____
ROOT
ATOM      1  C   UNL     1       2.283   4.802  20.383  0.00  0.00    +0.000 A 
ATOM      2  C   UNL     1       1.963   4.269  21.647  0.00  0.00    +0.000 A 
ATOM      3  C   UNL     1       2.182   2.927  21.938  0.00  0.00    +0.000 A 
ATOM      4  C   UNL     1       2.726   2.095  20.968  0.00  0.00    +0.000 A 
ATOM      5  C   UNL     1       3.045   2.598  19.698  0.00  0.00    +0.000 A 
ATOM      6  C   UNL     1       3.589   1.757  18.717  0.00  0.00    +0.000 A 
ATOM      7  C   UNL     1       3.864   2.250  17.448  0.00  0.00    +0.000 A 
ATOM      8  C   UNL     1       3.576   3.574  17.201  0.00  0.00    +0.000 A 
ATOM      9  N   UNL     1       3.116   4.426  18.144  0.00  0.00    +0.000 NA
ATOM     10  C   UNL     1       2.823   3.959  19.383  0.00  0.00    +0.000 A 
ENDROOT
BRANCH   1  19
ATOM     11  C   UNL     1      -0.415   9.261  22.073  0.00  0.00    +0.000 C 
ATOM     12  C   UNL     1       0.942   9.539  21.427  0.00  0.00    +0.000 C 
ATOM     13  C   UNL     1       0.857  10.798  20.518  0.00  0.00    +0.000 C 
ATOM     14  N   UNL     1       1.293  10.677  19.129  0.00  0.00    +0.000 N 
ATOM     15  C   UNL     1       1.710   9.535  18.490  0.00  0.00    +0.000 C 
ATOM     16  O   UNL     1       1.999   9.545  17.298  0.00  0.00    +0.000 OA
ATOM     17  C   UNL     1       1.778   8.355  19.323  0.00  0.00    +0.000 A 
ATOM     18  C   UNL     1       2.176   7.030  19.010  0.00  0.00    +0.000 A 
ATOM     19  C   UNL     1       2.048   6.247  20.149  0.00  0.00    +0.000 A 
ATOM     20  N   UNL     1       1.593   7.098  21.143  0.00  0.00    +0.000 N 
ATOM     21  C   UNL     1       1.423   8.362  20.651  0.00  0.00    +0.000 A 
ATOM     22  H   UNL     1       1.226  11.481  18.520  0.00  0.00    +0.000 HD
ATOM     23  H   UNL     1       1.398   6.786  22.087  0.00  0.00    +0.000 HD
ENDBRANCH   1  19
BRANCH   8  24
ATOM     24  O   UNL     1       3.793   4.036  15.908  0.00  0.00    +0.000 OA
BRANCH  24  25
ATOM     25  C   UNL     1       5.069   4.418  15.554  0.00  0.00    +0.000 A 
ATOM     26  C   UNL     1       5.474   4.107  14.255  0.00  0.00    +0.000 A 
ATOM     27  C   UNL     1       6.754   4.455  13.815  0.00  0.00    +0.000 A 
ATOM     28  C   UNL     1       7.630   5.120  14.673  0.00  0.00    +0.000 A 
ATOM     29  C   UNL     1       7.218   5.464  15.958  0.00  0.00    +0.000 A 
ATOM     30  C   UNL     1       5.932   5.139  16.388  0.00  0.00    +0.000 A 
ENDBRANCH  24  25
ENDBRANCH   8  24
TORSDOF 3
ENDMDL
MODEL 9
REMARK VINA RESULT:      -8.1      6.829     10.371
REMARK  Name = 
REMARK  4 active torsions:
REMARK  status: ('A' for Active; 'I' for Inactive)
REMARK    1  A    between atoms: C_1  and  C_2
REMARK    2  A    between atoms: C_9  and  C_10
REMARK    3  A    between atoms: C_17  and  O_18
REMARK    4  A    between atoms: O_18  and  C_19
REMARK                            x       y       z     vdW  Elec       q    Type
REMARK                         _______ _______ _______ _____ _____    ______ ____
ROOT
ATOM      1  C   UNL     1      -1.255  11.575  20.079  0.00  0.00    +0.000 A 
ATOM      2  C   UNL     1       0.065  11.093  20.160  0.00  0.00    +0.000 A 
ATOM      3  C   UNL     1       0.600  10.287  19.161  0.00  0.00    +0.000 A 
ATOM      4  C   UNL     1      -0.180   9.950  18.062  0.00  0.00    +0.000 A 
ATOM      5  C   UNL     1      -1.502  10.409  17.961  0.00  0.00    +0.000 A 
ATOM      6  C   UNL     1      -2.291  10.065  16.854  0.00  0.00    +0.000 A 
ATOM      7  C   UNL     1      -3.612  10.487  16.778  0.00  0.00    +0.000 A 
ATOM      8  C   UNL     1      -4.103  11.238  17.824  0.00  0.00    +0.000 A 
ATOM      9  N   UNL     1      -3.349  11.643  18.870  0.00  0.00    +0.000 NA
ATOM     10  C   UNL     1      -2.063  11.225  18.972  0.00  0.00    +0.000 A 
ENDROOT
BRANCH   1  19
ATOM     11  C   UNL     1      -5.223  15.018  21.636  0.00  0.00    +0.000 C 
ATOM     12  C   UNL     1      -4.561  14.244  22.777  0.00  0.00    +0.000 C 
ATOM     13  C   UNL     1      -4.358  15.171  24.009  0.00  0.00    +0.000 C 
ATOM     14  N   UNL     1      -3.018  15.278  24.579  0.00  0.00    +0.000 N 
ATOM     15  C   UNL     1      -1.867  14.701  24.100  0.00  0.00    +0.000 C 
ATOM     16  O   UNL     1      -0.783  14.911  24.635  0.00  0.00    +0.000 OA
ATOM     17  C   UNL     1      -2.042  13.850  22.945  0.00  0.00    +0.000 A 
ATOM     18  C   UNL     1      -1.095  13.092  22.210  0.00  0.00    +0.000 A 
ATOM     19  C   UNL     1      -1.752  12.451  21.167  0.00  0.00    +0.000 A 
ATOM     20  N   UNL     1      -3.086  12.807  21.286  0.00  0.00    +0.000 N 
ATOM     21  C   UNL     1      -3.263  13.651  22.347  0.00  0.00    +0.000 A 
ATOM     22  H   UNL     1      -2.865  15.891  25.369  0.00  0.00    +0.000 HD
ATOM     23  H   UNL     1      -3.799  12.489  20.641  0.00  0.00    +0.000 HD
ENDBRANCH   1  19
BRANCH   8  24
ATOM     24  O   UNL     1      -5.445  11.596  17.767  0.00  0.00    +0.000 OA
BRANCH  24  25
ATOM     25  C   UNL     1      -6.250  11.289  18.843  0.00  0.00    +0.000 A 
ATOM     26  C   UNL     1      -6.628   9.951  18.975  0.00  0.00    +0.000 A 
ATOM     27  C   UNL     1      -7.447   9.554  20.036  0.00  0.00    +0.000 A 
ATOM     28  C   UNL     1      -7.886  10.493  20.969  0.00  0.00    +0.000 A 
ATOM     29  C   UNL     1      -7.483  11.822  20.861  0.00  0.00    +0.000 A 
ATOM     30  C   UNL     1      -6.645  12.214  19.817  0.00  0.00    +0.000 A 
ENDBRANCH  24  25
ENDBRANCH   8  24
TORSDOF 3
ENDMDL
