MODEL 1
REMARK VINA RESULT:      -7.8      0.000      0.000
REMARK  Name = 
REMARK  6 active torsions:
REMARK  status: ('A' for Active; 'I' for Inactive)
REMARK    1  A    between atoms: C_1  and  C_2
REMARK    2  A    between atoms: C_2  and  N_3
REMARK    3  A    between atoms: C_2  and  C_19
REMARK    4  A    between atoms: N_6  and  C_7
REMARK    5  A    between atoms: C_10  and  O_11
REMARK    6  A    between atoms: O_11  and  C_12
REMARK                            x       y       z     vdW  Elec       q    Type
REMARK                         _______ _______ _______ _____ _____    ______ ____
ROOT
ATOM      1  N   UNL     1       8.643   9.940  17.960  0.00  0.00    +0.000 N 
ATOM      2  C   UNL     1       8.198   8.656  18.071  0.00  0.00    +0.000 C 
ATOM      3  O   UNL     1       8.682   7.918  18.927  0.00  0.00    +0.000 OA
ATOM      4  N   UNL     1       7.214   8.316  17.171  0.00  0.00    +0.000 N 
ATOM      5  H   UNL     1       8.293  10.589  17.272  0.00  0.00    +0.000 HD
ATOM      6  H   UNL     1       7.076   8.926  16.380  0.00  0.00    +0.000 HD
ENDROOT
BRANCH   4   7
ATOM      7  C   UNL     1       6.523   7.079  17.177  0.00  0.00    +0.000 A 
ATOM      8  C   UNL     1       7.185   5.881  16.914  0.00  0.00    +0.000 A 
ATOM      9  C   UNL     1       6.515   4.665  16.900  0.00  0.00    +0.000 A 
ATOM     10  C   UNL     1       5.164   4.596  17.204  0.00  0.00    +0.000 A 
ATOM     11  C   UNL     1       4.475   5.788  17.457  0.00  0.00    +0.000 A 
ATOM     12  C   UNL     1       5.154   7.025  17.457  0.00  0.00    +0.000 A 
BRANCH  10  13
ATOM     13  O   UNL     1       4.464   3.418  17.280  0.00  0.00    +0.000 OA
BRANCH  13  14
ATOM     14  C   UNL     1       3.399   3.398  18.244  0.00  0.00    +0.000 C 
ATOM     15  C   UNL     1       2.030   3.535  17.582  0.00  0.00    +0.000 C 
ATOM     16  C   UNL     1       1.057   2.876  18.543  0.00  0.00    +0.000 C 
ATOM     17  C   UNL     1       1.863   1.840  19.317  0.00  0.00    +0.000 C 
ATOM     18  C   UNL     1       3.333   2.050  18.955  0.00  0.00    +0.000 C 
ENDBRANCH  13  14
ENDBRANCH  10  13
ENDBRANCH   4   7
BRANCH   1  20
ATOM     19  C   UNL     1       9.117  10.951  20.167  0.00  0.00    +0.000 C 
ATOM     20  C   UNL     1       9.694  10.410  18.860  0.00  0.00    +0.000 C 
BRANCH  20  21
ATOM     21  C   UNL     1      10.539  11.429  18.158  0.00  0.00    +0.000 A 
ATOM     22  N   UNL     1       9.984  12.507  17.512  0.00  0.00    +0.000 NA
ATOM     23  C   UNL     1      11.028  13.160  17.071  0.00  0.00    +0.000 A 
ATOM     24  N   UNL     1      12.160  12.502  17.424  0.00  0.00    +0.000 N 
ATOM     25  N   UNL     1      11.882  11.389  18.127  0.00  0.00    +0.000 NA
ATOM     26  H   UNL     1      13.123  12.745  17.232  0.00  0.00    +0.000 HD
ENDBRANCH  20  21
ENDBRANCH   1  20
TORSDOF 5
ENDMDL
MODEL 2
REMARK VINA RESULT:      -7.4      1.822      2.415
REMARK  Name = 
REMARK  6 active torsions:
REMARK  status: ('A' for Active; 'I' for Inactive)
REMARK    1  A    between atoms: C_1  and  C_2
REMARK    2  A    between atoms: C_2  and  N_3
REMARK    3  A    between atoms: C_2  and  C_19
REMARK    4  A    between atoms: N_6  and  C_7
REMARK    5  A    between atoms: C_10  and  O_11
REMARK    6  A    between atoms: O_11  and  C_12
REMARK                            x       y       z     vdW  Elec       q    Type
REMARK                         _______ _______ _______ _____ _____    ______ ____
ROOT
ATOM      1  N   UNL     1       9.553   9.952  18.825  0.00  0.00    +0.000 N 
ATOM      2  C   UNL     1       8.514   9.173  18.413  0.00  0.00    +0.000 C 
ATOM      3  O   UNL     1       7.594   9.677  17.772  0.00  0.00    +0.000 OA
ATOM      4  N   UNL     1       8.616   7.849  18.777  0.00  0.00    +0.000 N 
ATOM      5  H   UNL     1      10.330   9.599  19.362  0.00  0.00    +0.000 HD
ATOM      6  H   UNL     1       9.287   7.615  19.493  0.00  0.00    +0.000 HD
ENDROOT
BRANCH   4   7
ATOM      7  C   UNL     1       7.717   6.837  18.362  0.00  0.00    +0.000 A 
ATOM      8  C   UNL     1       7.210   6.809  17.064  0.00  0.00    +0.000 A 
ATOM      9  C   UNL     1       6.315   5.831  16.651  0.00  0.00    +0.000 A 
ATOM     10  C   UNL     1       5.936   4.809  17.508  0.00  0.00    +0.000 A 
ATOM     11  C   UNL     1       6.421   4.824  18.821  0.00  0.00    +0.000 A 
ATOM     12  C   UNL     1       7.319   5.827  19.244  0.00  0.00    +0.000 A 
BRANCH  10  13
ATOM     13  O   UNL     1       5.115   3.774  17.136  0.00  0.00    +0.000 OA
BRANCH  13  14
ATOM     14  C   UNL     1       3.981   3.554  17.988  0.00  0.00    +0.000 C 
ATOM     15  C   UNL     1       2.794   4.430  17.593  0.00  0.00    +0.000 C 
ATOM     16  C   UNL     1       1.568   3.684  18.084  0.00  0.00    +0.000 C 
ATOM     17  C   UNL     1       1.952   2.209  18.109  0.00  0.00    +0.000 C 
ATOM     18  C   UNL     1       3.454   2.130  17.838  0.00  0.00    +0.000 C 
ENDBRANCH  13  14
ENDBRANCH  10  13
ENDBRANCH   4   7
BRANCH   1  20
ATOM     19  C   UNL     1      10.795  11.784  17.719  0.00  0.00    +0.000 C 
ATOM     20  C   UNL     1       9.547  11.377  18.500  0.00  0.00    +0.000 C 
BRANCH  20  21
ATOM     21  C   UNL     1       9.388  12.178  19.757  0.00  0.00    +0.000 A 
ATOM     22  N   UNL     1       9.740  11.674  20.984  0.00  0.00    +0.000 NA
ATOM     23  C   UNL     1       9.489  12.668  21.798  0.00  0.00    +0.000 A 
ATOM     24  N   UNL     1       8.998  13.719  21.096  0.00  0.00    +0.000 N 
ATOM     25  N   UNL     1       8.925  13.440  19.782  0.00  0.00    +0.000 NA
ATOM     26  H   UNL     1       8.706  14.627  21.432  0.00  0.00    +0.000 HD
ENDBRANCH  20  21
ENDBRANCH   1  20
TORSDOF 5
ENDMDL
MODEL 3
REMARK VINA RESULT:      -7.4      1.892      2.306
REMARK  Name = 
REMARK  6 active torsions:
REMARK  status: ('A' for Active; 'I' for Inactive)
REMARK    1  A    between atoms: C_1  and  C_2
REMARK    2  A    between atoms: C_2  and  N_3
REMARK    3  A    between atoms: C_2  and  C_19
REMARK    4  A    between atoms: N_6  and  C_7
REMARK    5  A    between atoms: C_10  and  O_11
REMARK    6  A    between atoms: O_11  and  C_12
REMARK                            x       y       z     vdW  Elec       q    Type
REMARK                         _______ _______ _______ _____ _____    ______ ____
ROOT
ATOM      1  N   UNL     1       9.567   9.879  18.864  0.00  0.00    +0.000 N 
ATOM      2  C   UNL     1       8.532   9.099  18.443  0.00  0.00    +0.000 C 
ATOM      3  O   UNL     1       7.624   9.600  17.782  0.00  0.00    +0.000 OA
ATOM      4  N   UNL     1       8.623   7.779  18.822  0.00  0.00    +0.000 N 
ATOM      5  H   UNL     1      10.333   9.528  19.417  0.00  0.00    +0.000 HD
ATOM      6  H   UNL     1       9.281   7.549  19.551  0.00  0.00    +0.000 HD
ENDROOT
BRANCH   4   7
ATOM      7  C   UNL     1       7.727   6.766  18.402  0.00  0.00    +0.000 A 
ATOM      8  C   UNL     1       7.270   5.793  19.289  0.00  0.00    +0.000 A 
ATOM      9  C   UNL     1       6.405   4.785  18.884  0.00  0.00    +0.000 A 
ATOM     10  C   UNL     1       5.918   4.747  17.586  0.00  0.00    +0.000 A 
ATOM     11  C   UNL     1       6.374   5.706  16.674  0.00  0.00    +0.000 A 
ATOM     12  C   UNL     1       7.265   6.721  17.083  0.00  0.00    +0.000 A 
BRANCH  10  13
ATOM     13  O   UNL     1       5.004   3.822  17.147  0.00  0.00    +0.000 OA
BRANCH  13  14
ATOM     14  C   UNL     1       3.892   3.593  18.026  0.00  0.00    +0.000 C 
ATOM     15  C   UNL     1       2.704   4.490  17.686  0.00  0.00    +0.000 C 
ATOM     16  C   UNL     1       1.484   3.744  18.195  0.00  0.00    +0.000 C 
ATOM     17  C   UNL     1       1.854   2.265  18.174  0.00  0.00    +0.000 C 
ATOM     18  C   UNL     1       3.346   2.178  17.858  0.00  0.00    +0.000 C 
ENDBRANCH  13  14
ENDBRANCH  10  13
ENDBRANCH   4   7
BRANCH   1  20
ATOM     19  C   UNL     1      10.824  11.690  17.741  0.00  0.00    +0.000 C 
ATOM     20  C   UNL     1       9.571  11.300  18.525  0.00  0.00    +0.000 C 
BRANCH  20  21
ATOM     21  C   UNL     1       9.416  12.116  19.773  0.00  0.00    +0.000 A 
ATOM     22  N   UNL     1       9.018  13.429  19.732  0.00  0.00    +0.000 NA
ATOM     23  C   UNL     1       8.970  13.766  20.996  0.00  0.00    +0.000 A 
ATOM     24  N   UNL     1       9.333  12.708  21.763  0.00  0.00    +0.000 N 
ATOM     25  N   UNL     1       9.621  11.631  21.010  0.00  0.00    +0.000 NA
ATOM     26  H   UNL     1       9.401  12.646  22.771  0.00  0.00    +0.000 HD
ENDBRANCH  20  21
ENDBRANCH   1  20
TORSDOF 5
ENDMDL
MODEL 4
REMARK VINA RESULT:      -7.4      5.808      8.227
REMARK  Name = 
REMARK  6 active torsions:
REMARK  status: ('A' for Active; 'I' for Inactive)
REMARK    1  A    between atoms: C_1  and  C_2
REMARK    2  A    between atoms: C_2  and  N_3
REMARK    3  A    between atoms: C_2  and  C_19
REMARK    4  A    between atoms: N_6  and  C_7
REMARK    5  A    between atoms: C_10  and  O_11
REMARK    6  A    between atoms: O_11  and  C_12
REMARK                            x       y       z     vdW  Elec       q    Type
REMARK                         _______ _______ _______ _____ _____    ______ ____
ROOT
ATOM      1  N   UNL     1       4.066   5.216  19.516  0.00  0.00    +0.000 N 
ATOM      2  C   UNL     1       3.141   6.086  19.022  0.00  0.00    +0.000 C 
ATOM      3  O   UNL     1       2.570   5.830  17.965  0.00  0.00    +0.000 OA
ATOM      4  N   UNL     1       2.943   7.206  19.799  0.00  0.00    +0.000 N 
ATOM      5  H   UNL     1       4.574   5.375  20.372  0.00  0.00    +0.000 HD
ATOM      6  H   UNL     1       3.634   7.410  20.505  0.00  0.00    +0.000 HD
ENDROOT
BRANCH   4   7
ATOM      7  C   UNL     1       1.953   8.186  19.545  0.00  0.00    +0.000 A 
ATOM      8  C   UNL     1       1.863   8.819  18.307  0.00  0.00    +0.000 A 
ATOM      9  C   UNL     1       0.906   9.793  18.053  0.00  0.00    +0.000 A 
ATOM     10  C   UNL     1      -0.034  10.131  19.014  0.00  0.00    +0.000 A 
ATOM     11  C   UNL     1       0.045   9.519  20.270  0.00  0.00    +0.000 A 
ATOM     12  C   UNL     1       1.027   8.539  20.532  0.00  0.00    +0.000 A 
BRANCH  10  13
ATOM     13  O   UNL     1      -1.048  11.030  18.797  0.00  0.00    +0.000 OA
BRANCH  13  14
ATOM     14  C   UNL     1      -2.256  10.474  18.254  0.00  0.00    +0.000 C 
ATOM     15  C   UNL     1      -3.410  11.472  18.292  0.00  0.00    +0.000 C 
ATOM     16  C   UNL     1      -4.345  11.041  17.177  0.00  0.00    +0.000 C 
ATOM     17  C   UNL     1      -3.476  10.324  16.150  0.00  0.00    +0.000 C 
ATOM     18  C   UNL     1      -2.090  10.157  16.770  0.00  0.00    +0.000 C 
ENDBRANCH  13  14
ENDBRANCH  10  13
ENDBRANCH   4   7
BRANCH   1  20
ATOM     19  C   UNL     1       4.432   2.775  19.688  0.00  0.00    +0.000 C 
ATOM     20  C   UNL     1       4.363   3.994  18.770  0.00  0.00    +0.000 C 
BRANCH  20  21
ATOM     21  C   UNL     1       5.627   4.178  17.988  0.00  0.00    +0.000 A 
ATOM     22  N   UNL     1       5.632   4.183  16.614  0.00  0.00    +0.000 NA
ATOM     23  C   UNL     1       6.889   4.401  16.321  0.00  0.00    +0.000 A 
ATOM     24  N   UNL     1       7.611   4.511  17.464  0.00  0.00    +0.000 N 
ATOM     25  N   UNL     1       6.831   4.378  18.552  0.00  0.00    +0.000 NA
ATOM     26  H   UNL     1       8.603   4.675  17.576  0.00  0.00    +0.000 HD
ENDBRANCH  20  21
ENDBRANCH   1  20
TORSDOF 5
ENDMDL
MODEL 5
REMARK VINA RESULT:      -7.3      5.892      8.397
REMARK  Name = 
REMARK  6 active torsions:
REMARK  status: ('A' for Active; 'I' for Inactive)
REMARK    1  A    between atoms: C_1  and  C_2
REMARK    2  A    between atoms: C_2  and  N_3
REMARK    3  A    between atoms: C_2  and  C_19
REMARK    4  A    between atoms: N_6  and  C_7
REMARK    5  A    between atoms: C_10  and  O_11
REMARK    6  A    between atoms: O_11  and  C_12
REMARK                            x       y       z     vdW  Elec       q    Type
REMARK                         _______ _______ _______ _____ _____    ______ ____
ROOT
ATOM      1  N   UNL     1       3.776   5.191  19.796  0.00  0.00    +0.000 N 
ATOM      2  C   UNL     1       2.872   6.107  19.348  0.00  0.00    +0.000 C 
ATOM      3  O   UNL     1       2.306   5.925  18.272  0.00  0.00    +0.000 OA
ATOM      4  N   UNL     1       2.687   7.182  20.187  0.00  0.00    +0.000 N 
ATOM      5  H   UNL     1       4.280   5.291  20.664  0.00  0.00    +0.000 HD
ATOM      6  H   UNL     1       3.375   7.331  20.911  0.00  0.00    +0.000 HD
ENDROOT
BRANCH   4   7
ATOM      7  C   UNL     1       1.717   8.193  19.984  0.00  0.00    +0.000 A 
ATOM      8  C   UNL     1       1.718   8.975  18.831  0.00  0.00    +0.000 A 
ATOM      9  C   UNL     1       0.782   9.980  18.629  0.00  0.00    +0.000 A 
ATOM     10  C   UNL     1      -0.228  10.205  19.552  0.00  0.00    +0.000 A 
ATOM     11  C   UNL     1      -0.241   9.442  20.725  0.00  0.00    +0.000 A 
ATOM     12  C   UNL     1       0.719   8.430  20.936  0.00  0.00    +0.000 A 
BRANCH  10  13
ATOM     13  O   UNL     1      -1.224  11.131  19.374  0.00  0.00    +0.000 OA
BRANCH  13  14
ATOM     14  C   UNL     1      -1.788  11.180  18.053  0.00  0.00    +0.000 C 
ATOM     15  C   UNL     1      -1.958   9.785  17.455  0.00  0.00    +0.000 C 
ATOM     16  C   UNL     1      -3.081   9.922  16.444  0.00  0.00    +0.000 C 
ATOM     17  C   UNL     1      -3.945  11.082  16.925  0.00  0.00    +0.000 C 
ATOM     18  C   UNL     1      -3.205  11.744  18.086  0.00  0.00    +0.000 C 
ENDBRANCH  13  14
ENDBRANCH  10  13
ENDBRANCH   4   7
BRANCH   1  20
ATOM     19  C   UNL     1       4.097   2.738  19.826  0.00  0.00    +0.000 C 
ATOM     20  C   UNL     1       4.058   4.011  18.982  0.00  0.00    +0.000 C 
BRANCH  20  21
ATOM     21  C   UNL     1       5.333   4.217  18.222  0.00  0.00    +0.000 A 
ATOM     22  N   UNL     1       6.488   4.622  18.845  0.00  0.00    +0.000 NA
ATOM     23  C   UNL     1       7.360   4.650  17.869  0.00  0.00    +0.000 A 
ATOM     24  N   UNL     1       6.757   4.288  16.709  0.00  0.00    +0.000 N 
ATOM     25  N   UNL     1       5.457   3.999  16.901  0.00  0.00    +0.000 NA
ATOM     26  H   UNL     1       7.155   4.214  15.783  0.00  0.00    +0.000 HD
ENDBRANCH  20  21
ENDBRANCH   1  20
TORSDOF 5
ENDMDL
MODEL 6
REMARK VINA RESULT:      -7.3      0.734      1.347
REMARK  Name = 
REMARK  6 active torsions:
REMARK  status: ('A' for Active; 'I' for Inactive)
REMARK    1  A    between atoms: C_1  and  C_2
REMARK    2  A    between atoms: C_2  and  N_3
REMARK    3  A    between atoms: C_2  and  C_19
REMARK    4  A    between atoms: N_6  and  C_7
REMARK    5  A    between atoms: C_10  and  O_11
REMARK    6  A    between atoms: O_11  and  C_12
REMARK                            x       y       z     vdW  Elec       q    Type
REMARK                         _______ _______ _______ _____ _____    ______ ____
ROOT
ATOM      1  N   UNL     1       8.627  10.018  18.090  0.00  0.00    +0.000 N 
ATOM      2  C   UNL     1       8.248   8.711  18.163  0.00  0.00    +0.000 C 
ATOM      3  O   UNL     1       8.805   7.961  18.963  0.00  0.00    +0.000 OA
ATOM      4  N   UNL     1       7.240   8.361  17.294  0.00  0.00    +0.000 N 
ATOM      5  H   UNL     1       8.216  10.677  17.448  0.00  0.00    +0.000 HD
ATOM      6  H   UNL     1       7.038   8.997  16.537  0.00  0.00    +0.000 HD
ENDROOT
BRANCH   4   7
ATOM      7  C   UNL     1       6.609   7.094  17.274  0.00  0.00    +0.000 A 
ATOM      8  C   UNL     1       5.387   6.905  16.631  0.00  0.00    +0.000 A 
ATOM      9  C   UNL     1       4.751   5.670  16.620  0.00  0.00    +0.000 A 
ATOM     10  C   UNL     1       5.344   4.562  17.206  0.00  0.00    +0.000 A 
ATOM     11  C   UNL     1       6.564   4.731  17.870  0.00  0.00    +0.000 A 
ATOM     12  C   UNL     1       7.203   5.989  17.894  0.00  0.00    +0.000 A 
BRANCH  10  13
ATOM     13  O   UNL     1       4.801   3.302  17.163  0.00  0.00    +0.000 OA
BRANCH  13  14
ATOM     14  C   UNL     1       3.716   3.070  18.074  0.00  0.00    +0.000 C 
ATOM     15  C   UNL     1       3.822   3.946  19.320  0.00  0.00    +0.000 C 
ATOM     16  C   UNL     1       2.399   4.088  19.828  0.00  0.00    +0.000 C 
ATOM     17  C   UNL     1       1.497   3.923  18.610  0.00  0.00    +0.000 C 
ATOM     18  C   UNL     1       2.384   3.477  17.449  0.00  0.00    +0.000 C 
ENDBRANCH  13  14
ENDBRANCH  10  13
ENDBRANCH   4   7
BRANCH   1  20
ATOM     19  C   UNL     1       9.142  11.095  20.257  0.00  0.00    +0.000 C 
ATOM     20  C   UNL     1       9.695  10.499  18.963  0.00  0.00    +0.000 C 
BRANCH  20  21
ATOM     21  C   UNL     1      10.551  11.478  18.218  0.00  0.00    +0.000 A 
ATOM     22  N   UNL     1      10.012  12.561  17.569  0.00  0.00    +0.000 NA
ATOM     23  C   UNL     1      11.063  13.173  17.085  0.00  0.00    +0.000 A 
ATOM     24  N   UNL     1      12.184  12.485  17.417  0.00  0.00    +0.000 N 
ATOM     25  N   UNL     1      11.891  11.394  18.149  0.00  0.00    +0.000 NA
ATOM     26  H   UNL     1      13.148  12.693  17.193  0.00  0.00    +0.000 HD
ENDBRANCH  20  21
ENDBRANCH   1  20
TORSDOF 5
ENDMDL
MODEL 7
REMARK VINA RESULT:      -7.2      5.178      7.390
REMARK  Name = 
REMARK  6 active torsions:
REMARK  status: ('A' for Active; 'I' for Inactive)
REMARK    1  A    between atoms: C_1  and  C_2
REMARK    2  A    between atoms: C_2  and  N_3
REMARK    3  A    between atoms: C_2  and  C_19
REMARK    4  A    between atoms: N_6  and  C_7
REMARK    5  A    between atoms: C_10  and  O_11
REMARK    6  A    between atoms: O_11  and  C_12
REMARK                            x       y       z     vdW  Elec       q    Type
REMARK                         _______ _______ _______ _____ _____    ______ ____
ROOT
ATOM      1  N   UNL     1       5.331   4.663  18.240  0.00  0.00    +0.000 N 
ATOM      2  C   UNL     1       4.828   5.927  18.310  0.00  0.00    +0.000 C 
ATOM      3  O   UNL     1       5.540   6.882  18.005  0.00  0.00    +0.000 OA
ATOM      4  N   UNL     1       3.520   5.997  18.734  0.00  0.00    +0.000 N 
ATOM      5  H   UNL     1       4.799   3.842  18.486  0.00  0.00    +0.000 HD
ATOM      6  H   UNL     1       3.130   5.177  19.174  0.00  0.00    +0.000 HD
ENDROOT
BRANCH   4   7
ATOM      7  C   UNL     1       2.757   7.189  18.772  0.00  0.00    +0.000 A 
ATOM      8  C   UNL     1       2.651   8.015  17.655  0.00  0.00    +0.000 A 
ATOM      9  C   UNL     1       1.920   9.195  17.686  0.00  0.00    +0.000 A 
ATOM     10  C   UNL     1       1.219   9.565  18.824  0.00  0.00    +0.000 A 
ATOM     11  C   UNL     1       1.321   8.758  19.963  0.00  0.00    +0.000 A 
ATOM     12  C   UNL     1       2.077   7.566  19.935  0.00  0.00    +0.000 A 
BRANCH  10  13
ATOM     13  O   UNL     1       0.419  10.678  18.892  0.00  0.00    +0.000 OA
BRANCH  13  14
ATOM     14  C   UNL     1      -0.994  10.420  18.882  0.00  0.00    +0.000 C 
ATOM     15  C   UNL     1      -1.806  11.692  19.118  0.00  0.00    +0.000 C 
ATOM     16  C   UNL     1      -3.151  11.430  18.467  0.00  0.00    +0.000 C 
ATOM     17  C   UNL     1      -2.894  10.418  17.356  0.00  0.00    +0.000 C 
ATOM     18  C   UNL     1      -1.451   9.940  17.507  0.00  0.00    +0.000 C 
ENDBRANCH  13  14
ENDBRANCH  10  13
ENDBRANCH   4   7
BRANCH   1  20
ATOM     19  C   UNL     1       7.667   5.429  18.517  0.00  0.00    +0.000 C 
ATOM     20  C   UNL     1       6.713   4.469  17.808  0.00  0.00    +0.000 C 
BRANCH  20  21
ATOM     21  C   UNL     1       6.797   4.598  16.317  0.00  0.00    +0.000 A 
ATOM     22  N   UNL     1       6.062   3.793  15.481  0.00  0.00    +0.000 NA
ATOM     23  C   UNL     1       6.380   4.232  14.289  0.00  0.00    +0.000 A 
ATOM     24  N   UNL     1       7.273   5.247  14.401  0.00  0.00    +0.000 N 
ATOM     25  N   UNL     1       7.558   5.510  15.689  0.00  0.00    +0.000 NA
ATOM     26  H   UNL     1       7.712   5.790  13.670  0.00  0.00    +0.000 HD
ENDBRANCH  20  21
ENDBRANCH   1  20
TORSDOF 5
ENDMDL
MODEL 8
REMARK VINA RESULT:      -7.2      6.304      8.702
REMARK  Name = 
REMARK  6 active torsions:
REMARK  status: ('A' for Active; 'I' for Inactive)
REMARK    1  A    between atoms: C_1  and  C_2
REMARK    2  A    between atoms: C_2  and  N_3
REMARK    3  A    between atoms: C_2  and  C_19
REMARK    4  A    between atoms: N_6  and  C_7
REMARK    5  A    between atoms: C_10  and  O_11
REMARK    6  A    between atoms: O_11  and  C_12
REMARK                            x       y       z     vdW  Elec       q    Type
REMARK                         _______ _______ _______ _____ _____    ______ ____
ROOT
ATOM      1  N   UNL     1       3.628   5.387  19.776  0.00  0.00    +0.000 N 
ATOM      2  C   UNL     1       2.765   6.280  19.214  0.00  0.00    +0.000 C 
ATOM      3  O   UNL     1       2.251   6.025  18.127  0.00  0.00    +0.000 OA
ATOM      4  N   UNL     1       2.557   7.418  19.961  0.00  0.00    +0.000 N 
ATOM      5  H   UNL     1       4.088   5.544  20.660  0.00  0.00    +0.000 HD
ATOM      6  H   UNL     1       3.210   7.611  20.706  0.00  0.00    +0.000 HD
ENDROOT
BRANCH   4   7
ATOM      7  C   UNL     1       1.618   8.425  19.632  0.00  0.00    +0.000 A 
ATOM      8  C   UNL     1       0.645   8.831  20.544  0.00  0.00    +0.000 A 
ATOM      9  C   UNL     1      -0.291   9.806  20.226  0.00  0.00    +0.000 A 
ATOM     10  C   UNL     1      -0.253  10.454  19.001  0.00  0.00    +0.000 A 
ATOM     11  C   UNL     1       0.706  10.053  18.064  0.00  0.00    +0.000 A 
ATOM     12  C   UNL     1       1.648   9.052  18.382  0.00  0.00    +0.000 A 
BRANCH  10  13
ATOM     13  O   UNL     1      -1.103  11.476  18.658  0.00  0.00    +0.000 OA
BRANCH  13  14
ATOM     14  C   UNL     1      -2.501  11.151  18.697  0.00  0.00    +0.000 C 
ATOM     15  C   UNL     1      -3.305  12.190  19.476  0.00  0.00    +0.000 C 
ATOM     16  C   UNL     1      -4.713  12.104  18.916  0.00  0.00    +0.000 C 
ATOM     17  C   UNL     1      -4.569  11.594  17.487  0.00  0.00    +0.000 C 
ATOM     18  C   UNL     1      -3.109  11.187  17.298  0.00  0.00    +0.000 C 
ENDBRANCH  13  14
ENDBRANCH  10  13
ENDBRANCH   4   7
BRANCH   1  20
ATOM     19  C   UNL     1       3.858   2.934  19.997  0.00  0.00    +0.000 C 
ATOM     20  C   UNL     1       3.928   4.145  19.068  0.00  0.00    +0.000 C 
BRANCH  20  21
ATOM     21  C   UNL     1       5.264   4.259  18.398  0.00  0.00    +0.000 A 
ATOM     22  N   UNL     1       5.388   4.252  17.031  0.00  0.00    +0.000 NA
ATOM     23  C   UNL     1       6.675   4.404  16.847  0.00  0.00    +0.000 A 
ATOM     24  N   UNL     1       7.300   4.487  18.049  0.00  0.00    +0.000 N 
ATOM     25  N   UNL     1       6.422   4.403  19.065  0.00  0.00    +0.000 NA
ATOM     26  H   UNL     1       8.285   4.603  18.246  0.00  0.00    +0.000 HD
ENDBRANCH  20  21
ENDBRANCH   1  20
TORSDOF 5
ENDMDL
MODEL 9
REMARK VINA RESULT:      -7.1      5.757      8.128
REMARK  Name = 
REMARK  6 active torsions:
REMARK  status: ('A' for Active; 'I' for Inactive)
REMARK    1  A    between atoms: C_1  and  C_2
REMARK    2  A    between atoms: C_2  and  N_3
REMARK    3  A    between atoms: C_2  and  C_19
REMARK    4  A    between atoms: N_6  and  C_7
REMARK    5  A    between atoms: C_10  and  O_11
REMARK    6  A    between atoms: O_11  and  C_12
REMARK                            x       y       z     vdW  Elec       q    Type
REMARK                         _______ _______ _______ _____ _____    ______ ____
ROOT
ATOM      1  N   UNL     1       3.571   5.090  19.795  0.00  0.00    +0.000 N 
ATOM      2  C   UNL     1       3.044   6.221  19.246  0.00  0.00    +0.000 C 
ATOM      3  O   UNL     1       3.138   6.408  18.035  0.00  0.00    +0.000 OA
ATOM      4  N   UNL     1       2.441   7.065  20.151  0.00  0.00    +0.000 N 
ATOM      5  H   UNL     1       3.535   4.886  20.782  0.00  0.00    +0.000 HD
ATOM      6  H   UNL     1       2.638   6.915  21.130  0.00  0.00    +0.000 HD
ENDROOT
BRANCH   4   7
ATOM      7  C   UNL     1       1.728   8.236  19.796  0.00  0.00    +0.000 A 
ATOM      8  C   UNL     1       1.878   8.819  18.539  0.00  0.00    +0.000 A 
ATOM      9  C   UNL     1       1.197   9.977  18.186  0.00  0.00    +0.000 A 
ATOM     10  C   UNL     1       0.294  10.564  19.060  0.00  0.00    +0.000 A 
ATOM     11  C   UNL     1       0.137  10.003  20.333  0.00  0.00    +0.000 A 
ATOM     12  C   UNL     1       0.841   8.835  20.697  0.00  0.00    +0.000 A 
BRANCH  10  13
ATOM     13  O   UNL     1      -0.463  11.663  18.742  0.00  0.00    +0.000 OA
BRANCH  13  14
ATOM     14  C   UNL     1      -1.579  11.408  17.874  0.00  0.00    +0.000 C 
ATOM     15  C   UNL     1      -1.693   9.928  17.513  0.00  0.00    +0.000 C 
ATOM     16  C   UNL     1      -3.159   9.711  17.186  0.00  0.00    +0.000 C 
ATOM     17  C   UNL     1      -3.928  10.767  17.971  0.00  0.00    +0.000 C 
ATOM     18  C   UNL     1      -2.898  11.719  18.576  0.00  0.00    +0.000 C 
ENDBRANCH  13  14
ENDBRANCH  10  13
ENDBRANCH   4   7
BRANCH   1  20
ATOM     19  C   UNL     1       4.100   2.698  19.456  0.00  0.00    +0.000 C 
ATOM     20  C   UNL     1       4.242   4.124  18.929  0.00  0.00    +0.000 C 
BRANCH  20  21
ATOM     21  C   UNL     1       5.678   4.517  18.757  0.00  0.00    +0.000 A 
ATOM     22  N   UNL     1       6.330   4.364  17.558  0.00  0.00    +0.000 NA
ATOM     23  C   UNL     1       7.523   4.843  17.803  0.00  0.00    +0.000 A 
ATOM     24  N   UNL     1       7.591   5.257  19.093  0.00  0.00    +0.000 N 
ATOM     25  N   UNL     1       6.423   5.066  19.732  0.00  0.00    +0.000 NA
ATOM     26  H   UNL     1       8.371   5.668  19.588  0.00  0.00    +0.000 HD
ENDBRANCH  20  21
ENDBRANCH   1  20
TORSDOF 5
ENDMDL
