MODEL 1
REMARK VINA RESULT:      -7.7      0.000      0.000
REMARK  Name = 
REMARK  7 active torsions:
REMARK  status: ('A' for Active; 'I' for Inactive)
REMARK    1  A    between atoms: C_1  and  O_2
REMARK    2  A    between atoms: O_2  and  C_3
REMARK    3  A    between atoms: C_7  and  N_8
REMARK    4  A    between atoms: C_11  and  N_12
REMARK    5  A    between atoms: N_12  and  C_13
REMARK    6  A    between atoms: N_12  and  C_14
REMARK    7  A    between atoms: C_14  and  C_15
REMARK                            x       y       z     vdW  Elec       q    Type
REMARK                         _______ _______ _______ _____ _____    ______ ____
ROOT
ATOM      1  N   UNL     1       2.197   6.987  19.916  0.00  0.00    +0.000 N 
ATOM      2  C   UNL     1       2.604   6.751  18.533  0.00  0.00    +0.000 C 
ATOM      3  C   UNL     1       2.024   5.465  17.959  0.00  0.00    +0.000 C 
ATOM      4  C   UNL     1       2.091   4.250  18.905  0.00  0.00    +0.000 C 
ATOM      5  C   UNL     1       1.453   4.664  20.240  0.00  0.00    +0.000 C 
ATOM      6  C   UNL     1       2.091   5.890  20.870  0.00  0.00    +0.000 C 
ENDROOT
BRANCH   1  11
ATOM      7  C   UNL     1       0.724   9.621  21.802  0.00  0.00    +0.000 A 
ATOM      8  N   UNL     1       0.488  10.606  20.928  0.00  0.00    +0.000 NA
ATOM      9  C   UNL     1       0.829  10.340  19.660  0.00  0.00    +0.000 A 
ATOM     10  C   UNL     1       1.388   9.150  19.265  0.00  0.00    +0.000 A 
ATOM     11  C   UNL     1       1.594   8.189  20.243  0.00  0.00    +0.000 A 
ATOM     12  N   UNL     1       1.240   8.416  21.515  0.00  0.00    +0.000 NA
BRANCH   7  14
ATOM     13  C   UNL     1      -0.922  10.467  23.191  0.00  0.00    +0.000 C 
ATOM     14  O   UNL     1       0.384   9.911  23.106  0.00  0.00    +0.000 OA
ENDBRANCH   7  14
ENDBRANCH   1  11
BRANCH   4  15
ATOM     15  N   UNL     1       3.388   3.524  18.952  0.00  0.00    +0.000 NA
ATOM     16  C   UNL     1       3.518   2.443  19.920  0.00  0.00    +0.000 C 
BRANCH  15  17
ATOM     17  C   UNL     1       3.883   3.090  17.632  0.00  0.00    +0.000 C 
BRANCH  17  18
ATOM     18  C   UNL     1       4.993   3.964  17.091  0.00  0.00    +0.000 A 
ATOM     19  C   UNL     1       5.077   4.229  15.714  0.00  0.00    +0.000 A 
ATOM     20  C   UNL     1       6.110   5.013  15.200  0.00  0.00    +0.000 A 
ATOM     21  C   UNL     1       7.070   5.543  16.058  0.00  0.00    +0.000 A 
ATOM     22  C   UNL     1       6.983   5.291  17.422  0.00  0.00    +0.000 A 
ATOM     23  F   UNL     1       7.906   5.798  18.248  0.00  0.00    +0.000 F 
ATOM     24  C   UNL     1       5.956   4.511  17.946  0.00  0.00    +0.000 A 
ENDBRANCH  17  18
ENDBRANCH  15  17
ENDBRANCH   4  15
TORSDOF 5
ENDMDL
MODEL 2
REMARK VINA RESULT:      -7.6      0.902      1.330
REMARK  Name = 
REMARK  7 active torsions:
REMARK  status: ('A' for Active; 'I' for Inactive)
REMARK    1  A    between atoms: C_1  and  O_2
REMARK    2  A    between atoms: O_2  and  C_3
REMARK    3  A    between atoms: C_7  and  N_8
REMARK    4  A    between atoms: C_11  and  N_12
REMARK    5  A    between atoms: N_12  and  C_13
REMARK    6  A    between atoms: N_12  and  C_14
REMARK    7  A    between atoms: C_14  and  C_15
REMARK                            x       y       z     vdW  Elec       q    Type
REMARK                         _______ _______ _______ _____ _____    ______ ____
ROOT
ATOM      1  N   UNL     1       2.172   6.971  19.938  0.00  0.00    +0.000 N 
ATOM      2  C   UNL     1       2.671   6.761  18.581  0.00  0.00    +0.000 C 
ATOM      3  C   UNL     1       2.098   5.508  17.930  0.00  0.00    +0.000 C 
ATOM      4  C   UNL     1       2.062   4.267  18.843  0.00  0.00    +0.000 C 
ATOM      5  C   UNL     1       1.342   4.664  20.141  0.00  0.00    +0.000 C 
ATOM      6  C   UNL     1       1.967   5.852  20.849  0.00  0.00    +0.000 C 
ENDROOT
BRANCH   1  11
ATOM      7  C   UNL     1       0.729   9.635  21.805  0.00  0.00    +0.000 A 
ATOM      8  N   UNL     1       0.501  10.615  20.923  0.00  0.00    +0.000 NA
ATOM      9  C   UNL     1       0.837  10.335  19.657  0.00  0.00    +0.000 A 
ATOM     10  C   UNL     1       1.383   9.136  19.270  0.00  0.00    +0.000 A 
ATOM     11  C   UNL     1       1.582   8.182  20.256  0.00  0.00    +0.000 A 
ATOM     12  N   UNL     1       1.232   8.422  21.527  0.00  0.00    +0.000 NA
BRANCH   7  14
ATOM     13  C   UNL     1      -0.936  10.434  23.199  0.00  0.00    +0.000 C 
ATOM     14  O   UNL     1       0.394   9.939  23.107  0.00  0.00    +0.000 OA
ENDBRANCH   7  14
ENDBRANCH   1  11
BRANCH   4  15
ATOM     15  N   UNL     1       3.331   3.501  18.961  0.00  0.00    +0.000 NA
ATOM     16  C   UNL     1       3.362   2.393  19.906  0.00  0.00    +0.000 C 
BRANCH  15  17
ATOM     17  C   UNL     1       3.905   3.084  17.667  0.00  0.00    +0.000 C 
BRANCH  17  18
ATOM     18  C   UNL     1       5.057   3.953  17.215  0.00  0.00    +0.000 A 
ATOM     19  C   UNL     1       5.872   4.597  18.161  0.00  0.00    +0.000 A 
ATOM     20  C   UNL     1       6.923   5.421  17.756  0.00  0.00    +0.000 A 
ATOM     21  C   UNL     1       7.170   5.609  16.398  0.00  0.00    +0.000 A 
ATOM     22  C   UNL     1       6.373   4.965  15.461  0.00  0.00    +0.000 A 
ATOM     23  F   UNL     1       6.610   5.146  14.156  0.00  0.00    +0.000 F 
ATOM     24  C   UNL     1       5.323   4.139  15.854  0.00  0.00    +0.000 A 
ENDBRANCH  17  18
ENDBRANCH  15  17
ENDBRANCH   4  15
TORSDOF 5
ENDMDL
MODEL 3
REMARK VINA RESULT:      -7.3      1.405      1.912
REMARK  Name = 
REMARK  7 active torsions:
REMARK  status: ('A' for Active; 'I' for Inactive)
REMARK    1  A    between atoms: C_1  and  O_2
REMARK    2  A    between atoms: O_2  and  C_3
REMARK    3  A    between atoms: C_7  and  N_8
REMARK    4  A    between atoms: C_11  and  N_12
REMARK    5  A    between atoms: N_12  and  C_13
REMARK    6  A    between atoms: N_12  and  C_14
REMARK    7  A    between atoms: C_14  and  C_15
REMARK                            x       y       z     vdW  Elec       q    Type
REMARK                         _______ _______ _______ _____ _____    ______ ____
ROOT
ATOM      1  N   UNL     1       2.294   6.552  19.587  0.00  0.00    +0.000 N 
ATOM      2  C   UNL     1       2.436   6.269  18.161  0.00  0.00    +0.000 C 
ATOM      3  C   UNL     1       1.791   4.950  17.754  0.00  0.00    +0.000 C 
ATOM      4  C   UNL     1       2.069   3.776  18.713  0.00  0.00    +0.000 C 
ATOM      5  C   UNL     1       1.686   4.230  20.129  0.00  0.00    +0.000 C 
ATOM      6  C   UNL     1       2.400   5.492  20.581  0.00  0.00    +0.000 C 
ENDROOT
BRANCH   1  11
ATOM      7  C   UNL     1       1.030   9.878  19.491  0.00  0.00    +0.000 A 
ATOM      8  N   UNL     1       0.534  10.113  20.711  0.00  0.00    +0.000 NA
ATOM      9  C   UNL     1       0.661   9.105  21.585  0.00  0.00    +0.000 A 
ATOM     10  C   UNL     1       1.248   7.905  21.270  0.00  0.00    +0.000 A 
ATOM     11  C   UNL     1       1.733   7.755  19.980  0.00  0.00    +0.000 A 
ATOM     12  N   UNL     1       1.645   8.753  19.091  0.00  0.00    +0.000 NA
BRANCH   7  14
ATOM     13  C   UNL     1       1.354  12.141  19.140  0.00  0.00    +0.000 C 
ATOM     14  O   UNL     1       0.881  10.915  18.596  0.00  0.00    +0.000 OA
ENDBRANCH   7  14
ENDBRANCH   1  11
BRANCH   4  15
ATOM     15  N   UNL     1       3.369   3.076  18.536  0.00  0.00    +0.000 NA
ATOM     16  C   UNL     1       3.397   1.640  18.780  0.00  0.00    +0.000 C 
BRANCH  15  17
ATOM     17  C   UNL     1       4.056   3.393  17.270  0.00  0.00    +0.000 C 
BRANCH  17  18
ATOM     18  C   UNL     1       5.233   4.327  17.444  0.00  0.00    +0.000 A 
ATOM     19  C   UNL     1       5.824   4.937  16.325  0.00  0.00    +0.000 A 
ATOM     20  C   UNL     1       6.925   5.781  16.470  0.00  0.00    +0.000 A 
ATOM     21  C   UNL     1       7.448   6.026  17.738  0.00  0.00    +0.000 A 
ATOM     22  C   UNL     1       6.859   5.432  18.848  0.00  0.00    +0.000 A 
ATOM     23  F   UNL     1       7.361   5.665  20.066  0.00  0.00    +0.000 F 
ATOM     24  C   UNL     1       5.758   4.590  18.714  0.00  0.00    +0.000 A 
ENDBRANCH  17  18
ENDBRANCH  15  17
ENDBRANCH   4  15
TORSDOF 5
ENDMDL
MODEL 4
REMARK VINA RESULT:      -7.3      1.480      2.086
REMARK  Name = 
REMARK  7 active torsions:
REMARK  status: ('A' for Active; 'I' for Inactive)
REMARK    1  A    between atoms: C_1  and  O_2
REMARK    2  A    between atoms: O_2  and  C_3
REMARK    3  A    between atoms: C_7  and  N_8
REMARK    4  A    between atoms: C_11  and  N_12
REMARK    5  A    between atoms: N_12  and  C_13
REMARK    6  A    between atoms: N_12  and  C_14
REMARK    7  A    between atoms: C_14  and  C_15
REMARK                            x       y       z     vdW  Elec       q    Type
REMARK                         _______ _______ _______ _____ _____    ______ ____
ROOT
ATOM      1  N   UNL     1       2.216   6.851  19.810  0.00  0.00    +0.000 N 
ATOM      2  C   UNL     1       2.583   6.603  18.418  0.00  0.00    +0.000 C 
ATOM      3  C   UNL     1       1.981   5.315  17.870  0.00  0.00    +0.000 C 
ATOM      4  C   UNL     1       2.067   4.108  18.823  0.00  0.00    +0.000 C 
ATOM      5  C   UNL     1       1.468   4.535  20.172  0.00  0.00    +0.000 C 
ATOM      6  C   UNL     1       2.130   5.762  20.774  0.00  0.00    +0.000 C 
ENDROOT
BRANCH   1  11
ATOM      7  C   UNL     1       0.832  10.119  19.542  0.00  0.00    +0.000 A 
ATOM      8  N   UNL     1       0.376  10.422  20.763  0.00  0.00    +0.000 NA
ATOM      9  C   UNL     1       0.573   9.482  21.697  0.00  0.00    +0.000 A 
ATOM     10  C   UNL     1       1.190   8.283  21.440  0.00  0.00    +0.000 A 
ATOM     11  C   UNL     1       1.629   8.059  20.144  0.00  0.00    +0.000 A 
ATOM     12  N   UNL     1       1.470   8.990  19.193  0.00  0.00    +0.000 NA
BRANCH   7  14
ATOM     13  C   UNL     1      -0.519  11.888  18.909  0.00  0.00    +0.000 C 
ATOM     14  O   UNL     1       0.611  11.087  18.586  0.00  0.00    +0.000 OA
ENDBRANCH   7  14
ENDBRANCH   1  11
BRANCH   4  15
ATOM     15  N   UNL     1       3.361   3.375  18.840  0.00  0.00    +0.000 NA
ATOM     16  C   UNL     1       3.434   2.161  19.643  0.00  0.00    +0.000 C 
BRANCH  15  17
ATOM     17  C   UNL     1       3.937   3.138  17.503  0.00  0.00    +0.000 C 
BRANCH  17  18
ATOM     18  C   UNL     1       5.120   4.028  17.195  0.00  0.00    +0.000 A 
ATOM     19  C   UNL     1       5.758   4.740  18.225  0.00  0.00    +0.000 A 
ATOM     20  C   UNL     1       6.835   5.583  17.949  0.00  0.00    +0.000 A 
ATOM     21  C   UNL     1       7.288   5.722  16.639  0.00  0.00    +0.000 A 
ATOM     22  C   UNL     1       6.666   5.011  15.621  0.00  0.00    +0.000 A 
ATOM     23  F   UNL     1       7.100   5.144  14.362  0.00  0.00    +0.000 F 
ATOM     24  C   UNL     1       5.592   4.165  15.885  0.00  0.00    +0.000 A 
ENDBRANCH  17  18
ENDBRANCH  15  17
ENDBRANCH   4  15
TORSDOF 5
ENDMDL
MODEL 5
REMARK VINA RESULT:      -6.9      4.761      8.109
REMARK  Name = 
REMARK  7 active torsions:
REMARK  status: ('A' for Active; 'I' for Inactive)
REMARK    1  A    between atoms: C_1  and  O_2
REMARK    2  A    between atoms: O_2  and  C_3
REMARK    3  A    between atoms: C_7  and  N_8
REMARK    4  A    between atoms: C_11  and  N_12
REMARK    5  A    between atoms: N_12  and  C_13
REMARK    6  A    between atoms: N_12  and  C_14
REMARK    7  A    between atoms: C_14  and  C_15
REMARK                            x       y       z     vdW  Elec       q    Type
REMARK                         _______ _______ _______ _____ _____    ______ ____
ROOT
ATOM      1  N   UNL     1       5.907   4.660  15.760  0.00  0.00    +0.000 N 
ATOM      2  C   UNL     1       4.920   5.705  16.026  0.00  0.00    +0.000 C 
ATOM      3  C   UNL     1       5.362   6.669  17.119  0.00  0.00    +0.000 C 
ATOM      4  C   UNL     1       5.991   5.995  18.355  0.00  0.00    +0.000 C 
ATOM      5  C   UNL     1       7.118   5.075  17.861  0.00  0.00    +0.000 C 
ATOM      6  C   UNL     1       6.664   4.045  16.842  0.00  0.00    +0.000 C 
ENDROOT
BRANCH   1  11
ATOM      7  C   UNL     1       6.177   3.505  12.405  0.00  0.00    +0.000 A 
ATOM      8  N   UNL     1       7.192   4.188  11.866  0.00  0.00    +0.000 NA
ATOM      9  C   UNL     1       7.805   5.049  12.690  0.00  0.00    +0.000 A 
ATOM     10  C   UNL     1       7.428   5.237  13.997  0.00  0.00    +0.000 A 
ATOM     11  C   UNL     1       6.364   4.483  14.466  0.00  0.00    +0.000 A 
ATOM     12  N   UNL     1       5.748   3.595  13.674  0.00  0.00    +0.000 NA
BRANCH   7  14
ATOM     13  C   UNL     1       4.220   3.060  11.252  0.00  0.00    +0.000 C 
ATOM     14  O   UNL     1       5.545   2.633  11.544  0.00  0.00    +0.000 OA
ENDBRANCH   7  14
ENDBRANCH   1  11
BRANCH   4  15
ATOM     15  N   UNL     1       5.042   5.450  19.361  0.00  0.00    +0.000 NA
ATOM     16  C   UNL     1       3.741   6.096  19.475  0.00  0.00    +0.000 C 
BRANCH  15  17
ATOM     17  C   UNL     1       4.881   3.985  19.306  0.00  0.00    +0.000 C 
BRANCH  17  18
ATOM     18  C   UNL     1       3.438   3.538  19.387  0.00  0.00    +0.000 A 
ATOM     19  C   UNL     1       2.660   3.441  18.221  0.00  0.00    +0.000 A 
ATOM     20  C   UNL     1       1.321   3.053  18.287  0.00  0.00    +0.000 A 
ATOM     21  C   UNL     1       0.746   2.756  19.520  0.00  0.00    +0.000 A 
ATOM     22  C   UNL     1       1.516   2.841  20.673  0.00  0.00    +0.000 A 
ATOM     23  F   UNL     1       0.963   2.557  21.859  0.00  0.00    +0.000 F 
ATOM     24  C   UNL     1       2.853   3.225  20.619  0.00  0.00    +0.000 A 
ENDBRANCH  17  18
ENDBRANCH  15  17
ENDBRANCH   4  15
TORSDOF 5
ENDMDL
MODEL 6
REMARK VINA RESULT:      -6.9      1.050      1.127
REMARK  Name = 
REMARK  7 active torsions:
REMARK  status: ('A' for Active; 'I' for Inactive)
REMARK    1  A    between atoms: C_1  and  O_2
REMARK    2  A    between atoms: O_2  and  C_3
REMARK    3  A    between atoms: C_7  and  N_8
REMARK    4  A    between atoms: C_11  and  N_12
REMARK    5  A    between atoms: N_12  and  C_13
REMARK    6  A    between atoms: N_12  and  C_14
REMARK    7  A    between atoms: C_14  and  C_15
REMARK                            x       y       z     vdW  Elec       q    Type
REMARK                         _______ _______ _______ _____ _____    ______ ____
ROOT
ATOM      1  N   UNL     1       2.545   6.373  18.895  0.00  0.00    +0.000 N 
ATOM      2  C   UNL     1       2.012   5.603  17.773  0.00  0.00    +0.000 C 
ATOM      3  C   UNL     1       1.537   4.215  18.182  0.00  0.00    +0.000 C 
ATOM      4  C   UNL     1       2.489   3.464  19.133  0.00  0.00    +0.000 C 
ATOM      5  C   UNL     1       2.780   4.385  20.327  0.00  0.00    +0.000 C 
ATOM      6  C   UNL     1       3.348   5.737  19.932  0.00  0.00    +0.000 C 
ENDROOT
BRANCH   1  11
ATOM      7  C   UNL     1       1.199   9.172  20.632  0.00  0.00    +0.000 A 
ATOM      8  N   UNL     1       1.076  10.141  19.719  0.00  0.00    +0.000 NA
ATOM      9  C   UNL     1       1.448   9.807  18.476  0.00  0.00    +0.000 A 
ATOM     10  C   UNL     1       1.931   8.566  18.142  0.00  0.00    +0.000 A 
ATOM     11  C   UNL     1       2.022   7.627  19.157  0.00  0.00    +0.000 A 
ATOM     12  N   UNL     1       1.633   7.922  20.405  0.00  0.00    +0.000 NA
BRANCH   7  14
ATOM     13  C   UNL     1      -0.211  10.502  21.896  0.00  0.00    +0.000 C 
ATOM     14  O   UNL     1       0.827   9.530  21.910  0.00  0.00    +0.000 OA
ENDBRANCH   7  14
ENDBRANCH   1  11
BRANCH   4  15
ATOM     15  N   UNL     1       3.640   2.770  18.497  0.00  0.00    +0.000 NA
ATOM     16  C   UNL     1       3.776   1.339  18.734  0.00  0.00    +0.000 C 
BRANCH  15  17
ATOM     17  C   UNL     1       3.804   3.066  17.061  0.00  0.00    +0.000 C 
BRANCH  17  18
ATOM     18  C   UNL     1       5.028   3.902  16.758  0.00  0.00    +0.000 A 
ATOM     19  C   UNL     1       5.314   4.285  15.437  0.00  0.00    +0.000 A 
ATOM     20  C   UNL     1       6.453   5.035  15.142  0.00  0.00    +0.000 A 
ATOM     21  C   UNL     1       7.318   5.412  16.166  0.00  0.00    +0.000 A 
ATOM     22  C   UNL     1       7.032   5.044  17.475  0.00  0.00    +0.000 A 
ATOM     23  F   UNL     1       7.864   5.404  18.459  0.00  0.00    +0.000 F 
ATOM     24  C   UNL     1       5.898   4.297  17.781  0.00  0.00    +0.000 A 
ENDBRANCH  17  18
ENDBRANCH  15  17
ENDBRANCH   4  15
TORSDOF 5
ENDMDL
MODEL 7
REMARK VINA RESULT:      -6.9      1.331      1.854
REMARK  Name = 
REMARK  7 active torsions:
REMARK  status: ('A' for Active; 'I' for Inactive)
REMARK    1  A    between atoms: C_1  and  O_2
REMARK    2  A    between atoms: O_2  and  C_3
REMARK    3  A    between atoms: C_7  and  N_8
REMARK    4  A    between atoms: C_11  and  N_12
REMARK    5  A    between atoms: N_12  and  C_13
REMARK    6  A    between atoms: N_12  and  C_14
REMARK    7  A    between atoms: C_14  and  C_15
REMARK                            x       y       z     vdW  Elec       q    Type
REMARK                         _______ _______ _______ _____ _____    ______ ____
ROOT
ATOM      1  N   UNL     1       2.207   7.699  19.567  0.00  0.00    +0.000 N 
ATOM      2  C   UNL     1       2.620   7.305  18.223  0.00  0.00    +0.000 C 
ATOM      3  C   UNL     1       2.196   5.885  17.868  0.00  0.00    +0.000 C 
ATOM      4  C   UNL     1       2.426   4.847  18.983  0.00  0.00    +0.000 C 
ATOM      5  C   UNL     1       1.761   5.380  20.261  0.00  0.00    +0.000 C 
ATOM      6  C   UNL     1       2.251   6.756  20.678  0.00  0.00    +0.000 C 
ENDROOT
BRANCH   1  11
ATOM      7  C   UNL     1       0.416  10.376  21.083  0.00  0.00    +0.000 A 
ATOM      8  N   UNL     1       0.077  11.197  20.084  0.00  0.00    +0.000 NA
ATOM      9  C   UNL     1       0.460  10.802  18.862  0.00  0.00    +0.000 A 
ATOM     10  C   UNL     1       1.158   9.643  18.631  0.00  0.00    +0.000 A 
ATOM     11  C   UNL     1       1.464   8.855  19.730  0.00  0.00    +0.000 A 
ATOM     12  N   UNL     1       1.073   9.211  20.961  0.00  0.00    +0.000 NA
BRANCH   7  14
ATOM     13  C   UNL     1      -0.180   9.700  23.214  0.00  0.00    +0.000 C 
ATOM     14  O   UNL     1       0.031  10.799  22.336  0.00  0.00    +0.000 OA
ENDBRANCH   7  14
ENDBRANCH   1  11
BRANCH   4  15
ATOM     15  N   UNL     1       3.804   4.298  19.095  0.00  0.00    +0.000 NA
ATOM     16  C   UNL     1       3.944   2.933  19.584  0.00  0.00    +0.000 C 
BRANCH  15  17
ATOM     17  C   UNL     1       4.631   4.496  17.891  0.00  0.00    +0.000 C 
BRANCH  17  18
ATOM     18  C   UNL     1       5.865   5.335  18.143  0.00  0.00    +0.000 A 
ATOM     19  C   UNL     1       6.767   4.978  19.160  0.00  0.00    +0.000 A 
ATOM     20  C   UNL     1       7.895   5.758  19.418  0.00  0.00    +0.000 A 
ATOM     21  C   UNL     1       8.134   6.902  18.661  0.00  0.00    +0.000 A 
ATOM     22  C   UNL     1       7.249   7.251  17.649  0.00  0.00    +0.000 A 
ATOM     23  F   UNL     1       7.477   8.352  16.922  0.00  0.00    +0.000 F 
ATOM     24  C   UNL     1       6.122   6.480  17.381  0.00  0.00    +0.000 A 
ENDBRANCH  17  18
ENDBRANCH  15  17
ENDBRANCH   4  15
TORSDOF 5
ENDMDL
MODEL 8
REMARK VINA RESULT:      -6.7      3.947      7.493
REMARK  Name = 
REMARK  7 active torsions:
REMARK  status: ('A' for Active; 'I' for Inactive)
REMARK    1  A    between atoms: C_1  and  O_2
REMARK    2  A    between atoms: O_2  and  C_3
REMARK    3  A    between atoms: C_7  and  N_8
REMARK    4  A    between atoms: C_11  and  N_12
REMARK    5  A    between atoms: N_12  and  C_13
REMARK    6  A    between atoms: N_12  and  C_14
REMARK    7  A    between atoms: C_14  and  C_15
REMARK                            x       y       z     vdW  Elec       q    Type
REMARK                         _______ _______ _______ _____ _____    ______ ____
ROOT
ATOM      1  N   UNL     1       4.504   4.507  17.117  0.00  0.00    +0.000 N 
ATOM      2  C   UNL     1       4.945   4.722  18.493  0.00  0.00    +0.000 C 
ATOM      3  C   UNL     1       4.473   3.627  19.441  0.00  0.00    +0.000 C 
ATOM      4  C   UNL     1       3.003   3.204  19.255  0.00  0.00    +0.000 C 
ATOM      5  C   UNL     1       2.803   2.854  17.772  0.00  0.00    +0.000 C 
ATOM      6  C   UNL     1       3.178   3.978  16.823  0.00  0.00    +0.000 C 
ENDROOT
BRANCH   1  11
ATOM      7  C   UNL     1       6.045   4.006  13.949  0.00  0.00    +0.000 A 
ATOM      8  N   UNL     1       7.271   4.532  14.054  0.00  0.00    +0.000 NA
ATOM      9  C   UNL     1       7.571   5.050  15.252  0.00  0.00    +0.000 A 
ATOM     10  C   UNL     1       6.695   5.057  16.310  0.00  0.00    +0.000 A 
ATOM     11  C   UNL     1       5.447   4.489  16.105  0.00  0.00    +0.000 A 
ATOM     12  N   UNL     1       5.127   3.939  14.926  0.00  0.00    +0.000 NA
BRANCH   7  14
ATOM     13  C   UNL     1       6.863   3.547  11.833  0.00  0.00    +0.000 C 
ATOM     14  O   UNL     1       5.742   3.490  12.707  0.00  0.00    +0.000 OA
ENDBRANCH   7  14
ENDBRANCH   1  11
BRANCH   4  15
ATOM     15  N   UNL     1       1.983   4.066  19.908  0.00  0.00    +0.000 NA
ATOM     16  C   UNL     1       0.944   3.405  20.686  0.00  0.00    +0.000 C 
BRANCH  15  17
ATOM     17  C   UNL     1       2.547   5.197  20.668  0.00  0.00    +0.000 C 
BRANCH  17  18
ATOM     18  C   UNL     1       2.142   6.548  20.121  0.00  0.00    +0.000 A 
ATOM     19  C   UNL     1       2.469   6.905  18.801  0.00  0.00    +0.000 A 
ATOM     20  C   UNL     1       2.122   8.157  18.293  0.00  0.00    +0.000 A 
ATOM     21  C   UNL     1       1.442   9.066  19.099  0.00  0.00    +0.000 A 
ATOM     22  C   UNL     1       1.107   8.712  20.401  0.00  0.00    +0.000 A 
ATOM     23  F   UNL     1       0.454   9.586  21.176  0.00  0.00    +0.000 F 
ATOM     24  C   UNL     1       1.447   7.465  20.917  0.00  0.00    +0.000 A 
ENDBRANCH  17  18
ENDBRANCH  15  17
ENDBRANCH   4  15
TORSDOF 5
ENDMDL
MODEL 9
REMARK VINA RESULT:      -6.6      4.301      7.958
REMARK  Name = 
REMARK  7 active torsions:
REMARK  status: ('A' for Active; 'I' for Inactive)
REMARK    1  A    between atoms: C_1  and  O_2
REMARK    2  A    between atoms: O_2  and  C_3
REMARK    3  A    between atoms: C_7  and  N_8
REMARK    4  A    between atoms: C_11  and  N_12
REMARK    5  A    between atoms: N_12  and  C_13
REMARK    6  A    between atoms: N_12  and  C_14
REMARK    7  A    between atoms: C_14  and  C_15
REMARK                            x       y       z     vdW  Elec       q    Type
REMARK                         _______ _______ _______ _____ _____    ______ ____
ROOT
ATOM      1  N   UNL     1       4.769   4.799  15.979  0.00  0.00    +0.000 N 
ATOM      2  C   UNL     1       5.020   5.945  16.850  0.00  0.00    +0.000 C 
ATOM      3  C   UNL     1       5.158   5.553  18.315  0.00  0.00    +0.000 C 
ATOM      4  C   UNL     1       4.112   4.536  18.811  0.00  0.00    +0.000 C 
ATOM      5  C   UNL     1       4.139   3.335  17.853  0.00  0.00    +0.000 C 
ATOM      6  C   UNL     1       3.902   3.706  16.400  0.00  0.00    +0.000 C 
ENDROOT
BRANCH   1  11
ATOM      7  C   UNL     1       6.004   3.655  12.843  0.00  0.00    +0.000 A 
ATOM      8  N   UNL     1       7.206   4.223  12.697  0.00  0.00    +0.000 NA
ATOM      9  C   UNL     1       7.600   4.999  13.715  0.00  0.00    +0.000 A 
ATOM     10  C   UNL     1       6.837   5.216  14.836  0.00  0.00    +0.000 A 
ATOM     11  C   UNL     1       5.605   4.584  14.897  0.00  0.00    +0.000 A 
ATOM     12  N   UNL     1       5.194   3.780  13.907  0.00  0.00    +0.000 NA
BRANCH   7  14
ATOM     13  C   UNL     1       4.263   3.158  11.403  0.00  0.00    +0.000 C 
ATOM     14  O   UNL     1       5.602   2.870  11.784  0.00  0.00    +0.000 OA
ENDBRANCH   7  14
ENDBRANCH   1  11
BRANCH   4  15
ATOM     15  N   UNL     1       2.785   5.090  19.191  0.00  0.00    +0.000 NA
ATOM     16  C   UNL     1       1.753   4.144  19.594  0.00  0.00    +0.000 C 
BRANCH  15  17
ATOM     17  C   UNL     1       2.852   6.210  20.148  0.00  0.00    +0.000 C 
BRANCH  17  18
ATOM     18  C   UNL     1       2.156   7.460  19.656  0.00  0.00    +0.000 A 
ATOM     19  C   UNL     1       2.267   7.849  18.311  0.00  0.00    +0.000 A 
ATOM     20  C   UNL     1       1.650   9.013  17.851  0.00  0.00    +0.000 A 
ATOM     21  C   UNL     1       0.912   9.800  18.733  0.00  0.00    +0.000 A 
ATOM     22  C   UNL     1       0.792   9.411  20.061  0.00  0.00    +0.000 A 
ATOM     23  F   UNL     1       0.084  10.167  20.909  0.00  0.00    +0.000 F 
ATOM     24  C   UNL     1       1.402   8.251  20.530  0.00  0.00    +0.000 A 
ENDBRANCH  17  18
ENDBRANCH  15  17
ENDBRANCH   4  15
TORSDOF 5
ENDMDL
