MODEL 1
REMARK VINA RESULT:      -6.5      0.000      0.000
REMARK  Name = 
REMARK  19 active torsions:
REMARK  status: ('A' for Active; 'I' for Inactive)
REMARK    1  A    between atoms: C_1  and  N_2
REMARK    2  A    between atoms: N_2  and  C_3
REMARK    3  A    between atoms: N_2  and  C_4
REMARK    4  A    between atoms: C_4  and  C_5
REMARK    5  A    between atoms: C_5  and  C_6
REMARK    6  A    between atoms: C_6  and  N_7
REMARK    7  A    between atoms: C_8  and  C_10
REMARK    8  A    between atoms: C_10  and  C_11
REMARK    9  A    between atoms: C_11  and  C_12
REMARK   10  A    between atoms: C_12  and  O_14
REMARK   11  A    between atoms: O_14  and  C_15
REMARK   12  A    between atoms: C_15  and  C_16
REMARK   13  A    between atoms: C_16  and  C_17
REMARK   14  A    between atoms: C_17  and  C_18
REMARK   15  A    between atoms: C_18  and  C_19
REMARK   16  A    between atoms: C_19  and  C_20
REMARK   17  A    between atoms: C_20  and  S_21
REMARK   18  A    between atoms: S_21  and  C_22
REMARK   19  A    between atoms: C_25  and  N_26
REMARK                            x       y       z     vdW  Elec       q    Type
REMARK                         _______ _______ _______ _____ _____    ______ ____
ROOT
ATOM      1  C   UNL     1       2.658   6.493  19.959  0.00  0.00    +0.000 C 
ENDROOT
BRANCH   1   2
ATOM      2  C   UNL     1       1.830   7.751  19.704  0.00  0.00    +0.000 C 
BRANCH   2   3
ATOM      3  O   UNL     1       1.997   8.204  18.353  0.00  0.00    +0.000 OA
BRANCH   3   4
ATOM      4  C   UNL     1       1.662   9.513  18.157  0.00  0.00    +0.000 C 
ATOM      5  O   UNL     1       2.317  10.316  17.507  0.00  0.00    +0.000 OA
BRANCH   4   6
ATOM      6  C   UNL     1       0.344   9.838  18.817  0.00  0.00    +0.000 C 
BRANCH   6   7
ATOM      7  C   UNL     1       0.241  11.316  19.172  0.00  0.00    +0.000 C 
BRANCH   7   9
ATOM      8  N   UNL     1      -0.999  11.625  21.236  0.00  0.00    +0.000 N 
ATOM      9  C   UNL     1       0.254  11.519  20.671  0.00  0.00    +0.000 C 
ATOM     10  O   UNL     1       1.289  11.615  21.319  0.00  0.00    +0.000 OA
ATOM     11  H   UNL     1      -1.830  11.607  20.660  0.00  0.00    +0.000 HD
BRANCH   8  12
ATOM     12  C   UNL     1      -1.166  11.821  22.661  0.00  0.00    +0.000 C 
BRANCH  12  13
ATOM     13  C   UNL     1      -2.013  13.049  22.983  0.00  0.00    +0.000 C 
BRANCH  13  14
ATOM     14  C   UNL     1      -1.215  14.154  23.702  0.00  0.00    +0.000 C 
BRANCH  14  16
ATOM     15  C   UNL     1      -3.363  14.428  24.769  0.00  0.00    +0.000 C 
ATOM     16  N   UNL     1      -2.080  15.070  24.473  0.00  0.00    +0.000 NA
ATOM     17  C   UNL     1      -1.447  15.476  25.732  0.00  0.00    +0.000 C 
ENDBRANCH  14  16
ENDBRANCH  13  14
ENDBRANCH  12  13
ENDBRANCH   8  12
ENDBRANCH   7   9
ENDBRANCH   6   7
ENDBRANCH   4   6
ENDBRANCH   3   4
ENDBRANCH   2   3
ENDBRANCH   1   2
BRANCH   1  18
ATOM     18  C   UNL     1       1.874   5.429  20.732  0.00  0.00    +0.000 C 
BRANCH  18  19
ATOM     19  C   UNL     1       1.221   4.387  19.815  0.00  0.00    +0.000 C 
BRANCH  19  20
ATOM     20  C   UNL     1       1.298   2.978  20.409  0.00  0.00    +0.000 C 
BRANCH  20  21
ATOM     21  C   UNL     1       2.270   2.085  19.631  0.00  0.00    +0.000 C 
BRANCH  21  22
ATOM     22  S   UNL     1       3.985   2.488  20.130  0.00  0.00    +0.000 S 
BRANCH  22  23
ATOM     23  C   UNL     1       4.523   3.444  18.743  0.00  0.00    +0.000 A 
ATOM     24  C   UNL     1       3.871   3.384  17.492  0.00  0.00    +0.000 A 
ATOM     25  C   UNL     1       4.249   4.180  16.376  0.00  0.00    +0.000 A 
ATOM     26  C   UNL     1       5.307   5.102  16.459  0.00  0.00    +0.000 A 
ATOM     27  C   UNL     1       5.972   5.223  17.688  0.00  0.00    +0.000 A 
ATOM     28  N   UNL     1       6.974   6.019  18.090  0.00  0.00    +0.000 NA
ATOM     29  O   UNL     1       7.200   5.712  19.420  0.00  0.00    +0.000 OA
ATOM     30  N   UNL     1       6.352   4.725  19.873  0.00  0.00    +0.000 NA
ATOM     31  C   UNL     1       5.573   4.392  18.833  0.00  0.00    +0.000 A 
BRANCH  26  32
ATOM     32  N   UNL     1       5.723   5.901  15.334  0.00  0.00    +0.000 N 
ATOM     33  O   UNL     1       6.767   5.543  14.752  0.00  0.00    +0.000 OA
ATOM     34  O   UNL     1       5.077   6.914  15.086  0.00  0.00    +0.000 OA
ENDBRANCH  26  32
ENDBRANCH  22  23
ENDBRANCH  21  22
ENDBRANCH  20  21
ENDBRANCH  19  20
ENDBRANCH  18  19
ENDBRANCH   1  18
TORSDOF 17
ENDMDL
MODEL 2
REMARK VINA RESULT:      -6.5      3.394     10.664
REMARK  Name = 
REMARK  19 active torsions:
REMARK  status: ('A' for Active; 'I' for Inactive)
REMARK    1  A    between atoms: C_1  and  N_2
REMARK    2  A    between atoms: N_2  and  C_3
REMARK    3  A    between atoms: N_2  and  C_4
REMARK    4  A    between atoms: C_4  and  C_5
REMARK    5  A    between atoms: C_5  and  C_6
REMARK    6  A    between atoms: C_6  and  N_7
REMARK    7  A    between atoms: C_8  and  C_10
REMARK    8  A    between atoms: C_10  and  C_11
REMARK    9  A    between atoms: C_11  and  C_12
REMARK   10  A    between atoms: C_12  and  O_14
REMARK   11  A    between atoms: O_14  and  C_15
REMARK   12  A    between atoms: C_15  and  C_16
REMARK   13  A    between atoms: C_16  and  C_17
REMARK   14  A    between atoms: C_17  and  C_18
REMARK   15  A    between atoms: C_18  and  C_19
REMARK   16  A    between atoms: C_19  and  C_20
REMARK   17  A    between atoms: C_20  and  S_21
REMARK   18  A    between atoms: S_21  and  C_22
REMARK   19  A    between atoms: C_25  and  N_26
REMARK                            x       y       z     vdW  Elec       q    Type
REMARK                         _______ _______ _______ _____ _____    ______ ____
ROOT
ATOM      1  C   UNL     1       2.046   6.611  19.461  0.00  0.00    +0.000 C 
ENDROOT
BRANCH   1   2
ATOM      2  C   UNL     1       2.944   5.632  20.216  0.00  0.00    +0.000 C 
BRANCH   2   3
ATOM      3  O   UNL     1       2.236   5.038  21.314  0.00  0.00    +0.000 OA
BRANCH   3   4
ATOM      4  C   UNL     1       2.033   3.694  21.186  0.00  0.00    +0.000 C 
ATOM      5  O   UNL     1       2.364   2.852  22.010  0.00  0.00    +0.000 OA
BRANCH   4   6
ATOM      6  C   UNL     1       1.302   3.377  19.904  0.00  0.00    +0.000 C 
BRANCH   6   7
ATOM      7  C   UNL     1       1.652   1.989  19.384  0.00  0.00    +0.000 C 
BRANCH   7   9
ATOM      8  N   UNL     1       3.146   3.174  17.881  0.00  0.00    +0.000 N 
ATOM      9  C   UNL     1       2.942   2.012  18.594  0.00  0.00    +0.000 C 
ATOM     10  O   UNL     1       3.720   1.066  18.567  0.00  0.00    +0.000 OA
ATOM     11  H   UNL     1       2.450   3.907  17.876  0.00  0.00    +0.000 HD
BRANCH   8  12
ATOM     12  C   UNL     1       4.333   3.360  17.073  0.00  0.00    +0.000 C 
BRANCH  12  13
ATOM     13  C   UNL     1       5.062   4.660  17.403  0.00  0.00    +0.000 C 
BRANCH  13  14
ATOM     14  C   UNL     1       6.482   4.717  16.806  0.00  0.00    +0.000 C 
BRANCH  14  16
ATOM     15  C   UNL     1       6.720   4.692  14.403  0.00  0.00    +0.000 C 
ATOM     16  N   UNL     1       6.552   5.544  15.584  0.00  0.00    +0.000 NA
ATOM     17  C   UNL     1       5.344   6.359  15.415  0.00  0.00    +0.000 C 
ENDBRANCH  14  16
ENDBRANCH  13  14
ENDBRANCH  12  13
ENDBRANCH   8  12
ENDBRANCH   7   9
ENDBRANCH   6   7
ENDBRANCH   4   6
ENDBRANCH   3   4
ENDBRANCH   2   3
ENDBRANCH   1   2
BRANCH   1  18
ATOM     18  C   UNL     1       2.820   7.416  18.412  0.00  0.00    +0.000 C 
BRANCH  18  19
ATOM     19  C   UNL     1       1.928   8.393  17.635  0.00  0.00    +0.000 C 
BRANCH  19  20
ATOM     20  C   UNL     1       2.174   9.845  18.055  0.00  0.00    +0.000 C 
BRANCH  20  21
ATOM     21  C   UNL     1       0.872  10.555  18.437  0.00  0.00    +0.000 C 
BRANCH  21  22
ATOM     22  S   UNL     1       1.269  12.195  19.150  0.00  0.00    +0.000 S 
BRANCH  22  23
ATOM     23  C   UNL     1      -0.033  12.373  20.332  0.00  0.00    +0.000 A 
ATOM     24  C   UNL     1      -1.127  13.241  20.119  0.00  0.00    +0.000 A 
ATOM     25  C   UNL     1      -2.213  13.364  21.028  0.00  0.00    +0.000 A 
ATOM     26  C   UNL     1      -2.269  12.604  22.210  0.00  0.00    +0.000 A 
ATOM     27  C   UNL     1      -1.222  11.704  22.457  0.00  0.00    +0.000 A 
ATOM     28  N   UNL     1      -1.008  10.831  23.453  0.00  0.00    +0.000 NA
ATOM     29  O   UNL     1       0.183  10.192  23.155  0.00  0.00    +0.000 OA
ATOM     30  N   UNL     1       0.734  10.651  21.978  0.00  0.00    +0.000 NA
ATOM     31  C   UNL     1      -0.104  11.588  21.511  0.00  0.00    +0.000 A 
BRANCH  26  32
ATOM     32  N   UNL     1      -3.348  12.730  23.157  0.00  0.00    +0.000 N 
ATOM     33  O   UNL     1      -4.432  12.197  22.842  0.00  0.00    +0.000 OA
ATOM     34  O   UNL     1      -3.153  13.419  24.153  0.00  0.00    +0.000 OA
ENDBRANCH  26  32
ENDBRANCH  22  23
ENDBRANCH  21  22
ENDBRANCH  20  21
ENDBRANCH  19  20
ENDBRANCH  18  19
ENDBRANCH   1  18
TORSDOF 17
ENDMDL
MODEL 3
REMARK VINA RESULT:      -6.2      6.479     10.539
REMARK  Name = 
REMARK  19 active torsions:
REMARK  status: ('A' for Active; 'I' for Inactive)
REMARK    1  A    between atoms: C_1  and  N_2
REMARK    2  A    between atoms: N_2  and  C_3
REMARK    3  A    between atoms: N_2  and  C_4
REMARK    4  A    between atoms: C_4  and  C_5
REMARK    5  A    between atoms: C_5  and  C_6
REMARK    6  A    between atoms: C_6  and  N_7
REMARK    7  A    between atoms: C_8  and  C_10
REMARK    8  A    between atoms: C_10  and  C_11
REMARK    9  A    between atoms: C_11  and  C_12
REMARK   10  A    between atoms: C_12  and  O_14
REMARK   11  A    between atoms: O_14  and  C_15
REMARK   12  A    between atoms: C_15  and  C_16
REMARK   13  A    between atoms: C_16  and  C_17
REMARK   14  A    between atoms: C_17  and  C_18
REMARK   15  A    between atoms: C_18  and  C_19
REMARK   16  A    between atoms: C_19  and  C_20
REMARK   17  A    between atoms: C_20  and  S_21
REMARK   18  A    between atoms: S_21  and  C_22
REMARK   19  A    between atoms: C_25  and  N_26
REMARK                            x       y       z     vdW  Elec       q    Type
REMARK                         _______ _______ _______ _____ _____    ______ ____
ROOT
ATOM      1  C   UNL     1       7.799   8.456  17.622  0.00  0.00    +0.000 C 
ENDROOT
BRANCH   1   2
ATOM      2  C   UNL     1       7.608   6.955  17.837  0.00  0.00    +0.000 C 
BRANCH   2   3
ATOM      3  O   UNL     1       6.332   6.529  17.338  0.00  0.00    +0.000 OA
BRANCH   3   4
ATOM      4  C   UNL     1       6.403   5.739  16.227  0.00  0.00    +0.000 C 
ATOM      5  O   UNL     1       7.408   5.565  15.551  0.00  0.00    +0.000 OA
BRANCH   4   6
ATOM      6  C   UNL     1       5.079   5.065  15.957  0.00  0.00    +0.000 C 
BRANCH   6   7
ATOM      7  C   UNL     1       4.175   5.089  17.182  0.00  0.00    +0.000 C 
BRANCH   7   9
ATOM      8  N   UNL     1       3.565   3.138  18.493  0.00  0.00    +0.000 N 
ATOM      9  C   UNL     1       3.382   3.806  17.301  0.00  0.00    +0.000 C 
ATOM     10  O   UNL     1       2.667   3.382  16.400  0.00  0.00    +0.000 OA
ATOM     11  H   UNL     1       4.214   3.485  19.186  0.00  0.00    +0.000 HD
BRANCH   8  12
ATOM     12  C   UNL     1       2.879   1.893  18.768  0.00  0.00    +0.000 C 
BRANCH  12  13
ATOM     13  C   UNL     1       1.601   2.102  19.578  0.00  0.00    +0.000 C 
BRANCH  13  14
ATOM     14  C   UNL     1       1.095   3.557  19.531  0.00  0.00    +0.000 C 
BRANCH  14  16
ATOM     15  C   UNL     1       2.147   3.466  21.702  0.00  0.00    +0.000 C 
ATOM     16  N   UNL     1       1.340   4.284  20.793  0.00  0.00    +0.000 NA
ATOM     17  C   UNL     1       2.030   5.556  20.556  0.00  0.00    +0.000 C 
ENDBRANCH  14  16
ENDBRANCH  13  14
ENDBRANCH  12  13
ENDBRANCH   8  12
ENDBRANCH   7   9
ENDBRANCH   6   7
ENDBRANCH   4   6
ENDBRANCH   3   4
ENDBRANCH   2   3
ENDBRANCH   1   2
BRANCH   1  18
ATOM     18  C   UNL     1       8.656   9.095  18.719  0.00  0.00    +0.000 C 
BRANCH  18  19
ATOM     19  C   UNL     1       9.089  10.527  18.378  0.00  0.00    +0.000 C 
BRANCH  19  20
ATOM     20  C   UNL     1      10.024  11.106  19.443  0.00  0.00    +0.000 C 
BRANCH  20  21
ATOM     21  C   UNL     1      11.278  11.729  18.821  0.00  0.00    +0.000 C 
BRANCH  21  22
ATOM     22  S   UNL     1      10.777  12.910  17.514  0.00  0.00    +0.000 S 
BRANCH  22  23
ATOM     23  C   UNL     1       9.841  14.077  18.455  0.00  0.00    +0.000 A 
ATOM     24  C   UNL     1      10.448  14.952  19.382  0.00  0.00    +0.000 A 
ATOM     25  C   UNL     1       9.727  15.936  20.114  0.00  0.00    +0.000 A 
ATOM     26  C   UNL     1       8.341  16.106  19.943  0.00  0.00    +0.000 A 
ATOM     27  C   UNL     1       7.692  15.282  19.012  0.00  0.00    +0.000 A 
ATOM     28  N   UNL     1       6.416  15.224  18.604  0.00  0.00    +0.000 NA
ATOM     29  O   UNL     1       6.363  14.226  17.647  0.00  0.00    +0.000 OA
ATOM     30  N   UNL     1       7.594  13.644  17.440  0.00  0.00    +0.000 NA
ATOM     31  C   UNL     1       8.448  14.267  18.265  0.00  0.00    +0.000 A 
BRANCH  26  32
ATOM     32  N   UNL     1       7.587  17.080  20.691  0.00  0.00    +0.000 N 
ATOM     33  O   UNL     1       6.981  16.661  21.699  0.00  0.00    +0.000 OA
ATOM     34  O   UNL     1       7.525  18.220  20.242  0.00  0.00    +0.000 OA
ENDBRANCH  26  32
ENDBRANCH  22  23
ENDBRANCH  21  22
ENDBRANCH  20  21
ENDBRANCH  19  20
ENDBRANCH  18  19
ENDBRANCH   1  18
TORSDOF 17
ENDMDL
MODEL 4
REMARK VINA RESULT:      -6.0      4.441      9.793
REMARK  Name = 
REMARK  19 active torsions:
REMARK  status: ('A' for Active; 'I' for Inactive)
REMARK    1  A    between atoms: C_1  and  N_2
REMARK    2  A    between atoms: N_2  and  C_3
REMARK    3  A    between atoms: N_2  and  C_4
REMARK    4  A    between atoms: C_4  and  C_5
REMARK    5  A    between atoms: C_5  and  C_6
REMARK    6  A    between atoms: C_6  and  N_7
REMARK    7  A    between atoms: C_8  and  C_10
REMARK    8  A    between atoms: C_10  and  C_11
REMARK    9  A    between atoms: C_11  and  C_12
REMARK   10  A    between atoms: C_12  and  O_14
REMARK   11  A    between atoms: O_14  and  C_15
REMARK   12  A    between atoms: C_15  and  C_16
REMARK   13  A    between atoms: C_16  and  C_17
REMARK   14  A    between atoms: C_17  and  C_18
REMARK   15  A    between atoms: C_18  and  C_19
REMARK   16  A    between atoms: C_19  and  C_20
REMARK   17  A    between atoms: C_20  and  S_21
REMARK   18  A    between atoms: S_21  and  C_22
REMARK   19  A    between atoms: C_25  and  N_26
REMARK                            x       y       z     vdW  Elec       q    Type
REMARK                         _______ _______ _______ _____ _____    ______ ____
ROOT
ATOM      1  C   UNL     1       3.817   5.469  19.157  0.00  0.00    +0.000 C 
ENDROOT
BRANCH   1   2
ATOM      2  C   UNL     1       3.945   4.702  17.842  0.00  0.00    +0.000 C 
BRANCH   2   3
ATOM      3  O   UNL     1       5.213   4.034  17.765  0.00  0.00    +0.000 OA
BRANCH   3   4
ATOM      4  C   UNL     1       6.056   4.543  16.819  0.00  0.00    +0.000 C 
ATOM      5  O   UNL     1       5.734   4.831  15.674  0.00  0.00    +0.000 OA
BRANCH   4   6
ATOM      6  C   UNL     1       7.441   4.748  17.382  0.00  0.00    +0.000 C 
BRANCH   6   7
ATOM      7  C   UNL     1       7.459   5.830  18.454  0.00  0.00    +0.000 C 
BRANCH   7   9
ATOM      8  N   UNL     1       8.370   8.068  18.681  0.00  0.00    +0.000 N 
ATOM      9  C   UNL     1       7.705   7.194  17.849  0.00  0.00    +0.000 C 
ATOM     10  O   UNL     1       7.315   7.503  16.729  0.00  0.00    +0.000 OA
ATOM     11  H   UNL     1       8.618   7.799  19.623  0.00  0.00    +0.000 HD
BRANCH   8  12
ATOM     12  C   UNL     1       8.686   9.416  18.255  0.00  0.00    +0.000 C 
BRANCH  12  13
ATOM     13  C   UNL     1       9.464  10.192  19.315  0.00  0.00    +0.000 C 
BRANCH  13  14
ATOM     14  C   UNL     1       9.280  11.717  19.193  0.00  0.00    +0.000 C 
BRANCH  14  16
ATOM     15  C   UNL     1      11.504  12.080  20.062  0.00  0.00    +0.000 C 
ATOM     16  N   UNL     1      10.559  12.430  18.997  0.00  0.00    +0.000 NA
ATOM     17  C   UNL     1      11.162  12.108  17.700  0.00  0.00    +0.000 C 
ENDBRANCH  14  16
ENDBRANCH  13  14
ENDBRANCH  12  13
ENDBRANCH   8  12
ENDBRANCH   7   9
ENDBRANCH   6   7
ENDBRANCH   4   6
ENDBRANCH   3   4
ENDBRANCH   2   3
ENDBRANCH   1   2
BRANCH   1  18
ATOM     18  C   UNL     1       2.651   6.462  19.137  0.00  0.00    +0.000 C 
BRANCH  18  19
ATOM     19  C   UNL     1       1.763   6.362  20.384  0.00  0.00    +0.000 C 
BRANCH  19  20
ATOM     20  C   UNL     1       1.463   7.740  20.981  0.00  0.00    +0.000 C 
BRANCH  20  21
ATOM     21  C   UNL     1       1.471   8.837  19.912  0.00  0.00    +0.000 C 
BRANCH  21  22
ATOM     22  S   UNL     1       0.671  10.339  20.588  0.00  0.00    +0.000 S 
BRANCH  22  23
ATOM     23  C   UNL     1      -0.598  10.613  19.389  0.00  0.00    +0.000 A 
ATOM     24  C   UNL     1      -0.614   9.942  18.146  0.00  0.00    +0.000 A 
ATOM     25  C   UNL     1      -1.650  10.105  17.185  0.00  0.00    +0.000 A 
ATOM     26  C   UNL     1      -2.748  10.949  17.427  0.00  0.00    +0.000 A 
ATOM     27  C   UNL     1      -2.798  11.618  18.659  0.00  0.00    +0.000 A 
ATOM     28  N   UNL     1      -3.709  12.445  19.192  0.00  0.00    +0.000 NA
ATOM     29  O   UNL     1      -3.236  12.779  20.450  0.00  0.00    +0.000 OA
ATOM     30  N   UNL     1      -2.029  12.174  20.723  0.00  0.00    +0.000 NA
ATOM     31  C   UNL     1      -1.719  11.444  19.642  0.00  0.00    +0.000 A 
BRANCH  26  32
ATOM     32  N   UNL     1      -3.796  11.146  16.458  0.00  0.00    +0.000 N 
ATOM     33  O   UNL     1      -3.440  11.511  15.318  0.00  0.00    +0.000 OA
ATOM     34  O   UNL     1      -4.955  11.027  16.841  0.00  0.00    +0.000 OA
ENDBRANCH  26  32
ENDBRANCH  22  23
ENDBRANCH  21  22
ENDBRANCH  20  21
ENDBRANCH  19  20
ENDBRANCH  18  19
ENDBRANCH   1  18
TORSDOF 17
ENDMDL
MODEL 5
REMARK VINA RESULT:      -6.0      3.796     10.579
REMARK  Name = 
REMARK  19 active torsions:
REMARK  status: ('A' for Active; 'I' for Inactive)
REMARK    1  A    between atoms: C_1  and  N_2
REMARK    2  A    between atoms: N_2  and  C_3
REMARK    3  A    between atoms: N_2  and  C_4
REMARK    4  A    between atoms: C_4  and  C_5
REMARK    5  A    between atoms: C_5  and  C_6
REMARK    6  A    between atoms: C_6  and  N_7
REMARK    7  A    between atoms: C_8  and  C_10
REMARK    8  A    between atoms: C_10  and  C_11
REMARK    9  A    between atoms: C_11  and  C_12
REMARK   10  A    between atoms: C_12  and  O_14
REMARK   11  A    between atoms: O_14  and  C_15
REMARK   12  A    between atoms: C_15  and  C_16
REMARK   13  A    between atoms: C_16  and  C_17
REMARK   14  A    between atoms: C_17  and  C_18
REMARK   15  A    between atoms: C_18  and  C_19
REMARK   16  A    between atoms: C_19  and  C_20
REMARK   17  A    between atoms: C_20  and  S_21
REMARK   18  A    between atoms: S_21  and  C_22
REMARK   19  A    between atoms: C_25  and  N_26
REMARK                            x       y       z     vdW  Elec       q    Type
REMARK                         _______ _______ _______ _____ _____    ______ ____
ROOT
ATOM      1  C   UNL     1       2.133   7.480  19.079  0.00  0.00    +0.000 C 
ENDROOT
BRANCH   1   2
ATOM      2  C   UNL     1       2.343   6.350  20.086  0.00  0.00    +0.000 C 
BRANCH   2   3
ATOM      3  O   UNL     1       1.639   5.169  19.677  0.00  0.00    +0.000 OA
BRANCH   3   4
ATOM      4  C   UNL     1       1.664   4.158  20.595  0.00  0.00    +0.000 C 
ATOM      5  O   UNL     1       2.255   4.196  21.666  0.00  0.00    +0.000 OA
BRANCH   4   6
ATOM      6  C   UNL     1       0.825   2.990  20.137  0.00  0.00    +0.000 C 
BRANCH   6   7
ATOM      7  C   UNL     1       1.035   2.691  18.658  0.00  0.00    +0.000 C 
BRANCH   7   9
ATOM      8  N   UNL     1       3.059   3.525  17.609  0.00  0.00    +0.000 N 
ATOM      9  C   UNL     1       2.503   2.501  18.343  0.00  0.00    +0.000 C 
ATOM     10  O   UNL     1       3.130   1.505  18.684  0.00  0.00    +0.000 OA
ATOM     11  H   UNL     1       2.494   4.300  17.289  0.00  0.00    +0.000 HD
BRANCH   8  12
ATOM     12  C   UNL     1       4.455   3.500  17.224  0.00  0.00    +0.000 C 
BRANCH  12  13
ATOM     13  C   UNL     1       4.741   4.394  16.019  0.00  0.00    +0.000 C 
BRANCH  13  14
ATOM     14  C   UNL     1       5.073   5.845  16.417  0.00  0.00    +0.000 C 
BRANCH  14  16
ATOM     15  C   UNL     1       7.189   6.577  17.320  0.00  0.00    +0.000 C 
ATOM     16  N   UNL     1       6.466   6.218  16.097  0.00  0.00    +0.000 NA
ATOM     17  C   UNL     1       7.176   5.124  15.426  0.00  0.00    +0.000 C 
ENDBRANCH  14  16
ENDBRANCH  13  14
ENDBRANCH  12  13
ENDBRANCH   8  12
ENDBRANCH   7   9
ENDBRANCH   6   7
ENDBRANCH   4   6
ENDBRANCH   3   4
ENDBRANCH   2   3
ENDBRANCH   1   2
BRANCH   1  18
ATOM     18  C   UNL     1       1.621   8.762  19.744  0.00  0.00    +0.000 C 
BRANCH  18  19
ATOM     19  C   UNL     1       0.677   8.485  20.921  0.00  0.00    +0.000 C 
BRANCH  19  20
ATOM     20  C   UNL     1       0.972   9.399  22.114  0.00  0.00    +0.000 C 
BRANCH  20  21
ATOM     21  C   UNL     1      -0.130  10.444  22.317  0.00  0.00    +0.000 C 
BRANCH  21  22
ATOM     22  S   UNL     1       0.167  11.857  21.191  0.00  0.00    +0.000 S 
BRANCH  22  23
ATOM     23  C   UNL     1      -1.272  11.781  20.168  0.00  0.00    +0.000 A 
ATOM     24  C   UNL     1      -1.334  10.963  19.018  0.00  0.00    +0.000 A 
ATOM     25  C   UNL     1      -2.496  10.843  18.207  0.00  0.00    +0.000 A 
ATOM     26  C   UNL     1      -3.680  11.535  18.517  0.00  0.00    +0.000 A 
ATOM     27  C   UNL     1      -3.683  12.340  19.666  0.00  0.00    +0.000 A 
ATOM     28  N   UNL     1      -4.645  13.081  20.237  0.00  0.00    +0.000 NA
ATOM     29  O   UNL     1      -4.078  13.640  21.370  0.00  0.00    +0.000 OA
ATOM     30  N   UNL     1      -2.762  13.264  21.526  0.00  0.00    +0.000 NA
ATOM     31  C   UNL     1      -2.475  12.458  20.494  0.00  0.00    +0.000 A 
BRANCH  26  32
ATOM     32  N   UNL     1      -4.861  11.447  17.697  0.00  0.00    +0.000 N 
ATOM     33  O   UNL     1      -5.766  10.689  18.102  0.00  0.00    +0.000 OA
ATOM     34  O   UNL     1      -4.858  12.049  16.628  0.00  0.00    +0.000 OA
ENDBRANCH  26  32
ENDBRANCH  22  23
ENDBRANCH  21  22
ENDBRANCH  20  21
ENDBRANCH  19  20
ENDBRANCH  18  19
ENDBRANCH   1  18
TORSDOF 17
ENDMDL
MODEL 6
REMARK VINA RESULT:      -6.0      1.622      2.604
REMARK  Name = 
REMARK  19 active torsions:
REMARK  status: ('A' for Active; 'I' for Inactive)
REMARK    1  A    between atoms: C_1  and  N_2
REMARK    2  A    between atoms: N_2  and  C_3
REMARK    3  A    between atoms: N_2  and  C_4
REMARK    4  A    between atoms: C_4  and  C_5
REMARK    5  A    between atoms: C_5  and  C_6
REMARK    6  A    between atoms: C_6  and  N_7
REMARK    7  A    between atoms: C_8  and  C_10
REMARK    8  A    between atoms: C_10  and  C_11
REMARK    9  A    between atoms: C_11  and  C_12
REMARK   10  A    between atoms: C_12  and  O_14
REMARK   11  A    between atoms: O_14  and  C_15
REMARK   12  A    between atoms: C_15  and  C_16
REMARK   13  A    between atoms: C_16  and  C_17
REMARK   14  A    between atoms: C_17  and  C_18
REMARK   15  A    between atoms: C_18  and  C_19
REMARK   16  A    between atoms: C_19  and  C_20
REMARK   17  A    between atoms: C_20  and  S_21
REMARK   18  A    between atoms: S_21  and  C_22
REMARK   19  A    between atoms: C_25  and  N_26
REMARK                            x       y       z     vdW  Elec       q    Type
REMARK                         _______ _______ _______ _____ _____    ______ ____
ROOT
ATOM      1  C   UNL     1       1.798   5.008  19.451  0.00  0.00    +0.000 C 
ENDROOT
BRANCH   1   2
ATOM      2  C   UNL     1       2.194   6.482  19.532  0.00  0.00    +0.000 C 
BRANCH   2   3
ATOM      3  O   UNL     1       1.737   7.194  18.373  0.00  0.00    +0.000 OA
BRANCH   3   4
ATOM      4  C   UNL     1       2.593   8.166  17.941  0.00  0.00    +0.000 C 
ATOM      5  O   UNL     1       3.742   7.973  17.566  0.00  0.00    +0.000 OA
BRANCH   4   6
ATOM      6  C   UNL     1       1.923   9.518  17.943  0.00  0.00    +0.000 C 
BRANCH   6   7
ATOM      7  C   UNL     1       0.445   9.414  18.298  0.00  0.00    +0.000 C 
BRANCH   7   9
ATOM      8  N   UNL     1       0.210  11.033  20.091  0.00  0.00    +0.000 N 
ATOM      9  C   UNL     1      -0.095  10.742  18.779  0.00  0.00    +0.000 C 
ATOM     10  O   UNL     1      -0.774  11.478  18.072  0.00  0.00    +0.000 OA
ATOM     11  H   UNL     1       0.716  10.372  20.664  0.00  0.00    +0.000 HD
BRANCH   8  12
ATOM     12  C   UNL     1      -0.231  12.267  20.708  0.00  0.00    +0.000 C 
BRANCH  12  13
ATOM     13  C   UNL     1      -0.503  12.105  22.202  0.00  0.00    +0.000 C 
BRANCH  13  14
ATOM     14  C   UNL     1      -1.450  13.186  22.757  0.00  0.00    +0.000 C 
BRANCH  14  16
ATOM     15  C   UNL     1      -0.139  15.213  22.692  0.00  0.00    +0.000 C 
ATOM     16  N   UNL     1      -0.742  14.201  23.564  0.00  0.00    +0.000 NA
ATOM     17  C   UNL     1      -1.646  14.863  24.510  0.00  0.00    +0.000 C 
ENDBRANCH  14  16
ENDBRANCH  13  14
ENDBRANCH  12  13
ENDBRANCH   8  12
ENDBRANCH   7   9
ENDBRANCH   6   7
ENDBRANCH   4   6
ENDBRANCH   3   4
ENDBRANCH   2   3
ENDBRANCH   1   2
BRANCH   1  18
ATOM     18  C   UNL     1       1.407   4.438  20.818  0.00  0.00    +0.000 C 
BRANCH  18  19
ATOM     19  C   UNL     1       1.386   2.904  20.839  0.00  0.00    +0.000 C 
BRANCH  19  20
ATOM     20  C   UNL     1       1.836   2.310  19.501  0.00  0.00    +0.000 C 
BRANCH  20  21
ATOM     21  C   UNL     1       3.360   2.184  19.419  0.00  0.00    +0.000 C 
BRANCH  21  22
ATOM     22  S   UNL     1       3.881   2.327  17.669  0.00  0.00    +0.000 S 
BRANCH  22  23
ATOM     23  C   UNL     1       4.936   3.743  17.746  0.00  0.00    +0.000 A 
ATOM     24  C   UNL     1       5.136   4.466  18.943  0.00  0.00    +0.000 A 
ATOM     25  C   UNL     1       6.019   5.576  19.045  0.00  0.00    +0.000 A 
ATOM     26  C   UNL     1       6.769   6.019  17.942  0.00  0.00    +0.000 A 
ATOM     27  C   UNL     1       6.630   5.319  16.735  0.00  0.00    +0.000 A 
ATOM     28  N   UNL     1       7.221   5.469  15.540  0.00  0.00    +0.000 NA
ATOM     29  O   UNL     1       6.707   4.472  14.729  0.00  0.00    +0.000 OA
ATOM     30  N   UNL     1       5.791   3.687  15.395  0.00  0.00    +0.000 NA
ATOM     31  C   UNL     1       5.712   4.175  16.641  0.00  0.00    +0.000 A 
BRANCH  26  32
ATOM     32  N   UNL     1       7.651   7.157  18.017  0.00  0.00    +0.000 N 
ATOM     33  O   UNL     1       7.534   8.013  17.116  0.00  0.00    +0.000 OA
ATOM     34  O   UNL     1       8.501   7.160  18.901  0.00  0.00    +0.000 OA
ENDBRANCH  26  32
ENDBRANCH  22  23
ENDBRANCH  21  22
ENDBRANCH  20  21
ENDBRANCH  19  20
ENDBRANCH  18  19
ENDBRANCH   1  18
TORSDOF 17
ENDMDL
MODEL 7
REMARK VINA RESULT:      -6.0      3.326      8.977
REMARK  Name = 
REMARK  19 active torsions:
REMARK  status: ('A' for Active; 'I' for Inactive)
REMARK    1  A    between atoms: C_1  and  N_2
REMARK    2  A    between atoms: N_2  and  C_3
REMARK    3  A    between atoms: N_2  and  C_4
REMARK    4  A    between atoms: C_4  and  C_5
REMARK    5  A    between atoms: C_5  and  C_6
REMARK    6  A    between atoms: C_6  and  N_7
REMARK    7  A    between atoms: C_8  and  C_10
REMARK    8  A    between atoms: C_10  and  C_11
REMARK    9  A    between atoms: C_11  and  C_12
REMARK   10  A    between atoms: C_12  and  O_14
REMARK   11  A    between atoms: O_14  and  C_15
REMARK   12  A    between atoms: C_15  and  C_16
REMARK   13  A    between atoms: C_16  and  C_17
REMARK   14  A    between atoms: C_17  and  C_18
REMARK   15  A    between atoms: C_18  and  C_19
REMARK   16  A    between atoms: C_19  and  C_20
REMARK   17  A    between atoms: C_20  and  S_21
REMARK   18  A    between atoms: S_21  and  C_22
REMARK   19  A    between atoms: C_25  and  N_26
REMARK                            x       y       z     vdW  Elec       q    Type
REMARK                         _______ _______ _______ _____ _____    ______ ____
ROOT
ATOM      1  C   UNL     1       1.276   2.429  18.557  0.00  0.00    +0.000 C 
ENDROOT
BRANCH   1   2
ATOM      2  C   UNL     1       2.459   2.818  17.670  0.00  0.00    +0.000 C 
BRANCH   2   3
ATOM      3  O   UNL     1       3.685   2.298  18.204  0.00  0.00    +0.000 OA
BRANCH   3   4
ATOM      4  C   UNL     1       4.520   3.250  18.715  0.00  0.00    +0.000 C 
ATOM      5  O   UNL     1       5.149   3.147  19.759  0.00  0.00    +0.000 OA
BRANCH   4   6
ATOM      6  C   UNL     1       4.603   4.445  17.796  0.00  0.00    +0.000 C 
BRANCH   6   7
ATOM      7  C   UNL     1       5.156   5.670  18.513  0.00  0.00    +0.000 C 
BRANCH   7   9
ATOM      8  N   UNL     1       6.825   7.386  18.107  0.00  0.00    +0.000 N 
ATOM      9  C   UNL     1       6.518   6.049  17.974  0.00  0.00    +0.000 C 
ATOM     10  O   UNL     1       7.267   5.241  17.437  0.00  0.00    +0.000 OA
ATOM     11  H   UNL     1       6.155   8.035  18.496  0.00  0.00    +0.000 HD
BRANCH   8  12
ATOM     12  C   UNL     1       8.091   7.915  17.644  0.00  0.00    +0.000 C 
BRANCH  12  13
ATOM     13  C   UNL     1       8.179   9.431  17.802  0.00  0.00    +0.000 C 
BRANCH  13  14
ATOM     14  C   UNL     1       8.870   9.856  19.112  0.00  0.00    +0.000 C 
BRANCH  14  16
ATOM     15  C   UNL     1      10.609  11.280  19.995  0.00  0.00    +0.000 C 
ATOM     16  N   UNL     1       9.536  11.170  19.003  0.00  0.00    +0.000 NA
ATOM     17  C   UNL     1      10.099  11.380  17.665  0.00  0.00    +0.000 C 
ENDBRANCH  14  16
ENDBRANCH  13  14
ENDBRANCH  12  13
ENDBRANCH   8  12
ENDBRANCH   7   9
ENDBRANCH   6   7
ENDBRANCH   4   6
ENDBRANCH   3   4
ENDBRANCH   2   3
ENDBRANCH   1   2
BRANCH   1  18
ATOM     18  C   UNL     1       0.813   3.588  19.445  0.00  0.00    +0.000 C 
BRANCH  18  19
ATOM     19  C   UNL     1       1.578   3.664  20.772  0.00  0.00    +0.000 C 
BRANCH  19  20
ATOM     20  C   UNL     1       2.100   5.077  21.048  0.00  0.00    +0.000 C 
BRANCH  20  21
ATOM     21  C   UNL     1       1.163   6.149  20.483  0.00  0.00    +0.000 C 
BRANCH  21  22
ATOM     22  S   UNL     1       2.163   7.468  19.700  0.00  0.00    +0.000 S 
BRANCH  22  23
ATOM     23  C   UNL     1       1.142   8.882  19.989  0.00  0.00    +0.000 A 
ATOM     24  C   UNL     1       0.452   9.535  18.944  0.00  0.00    +0.000 A 
ATOM     25  C   UNL     1      -0.417  10.641  19.154  0.00  0.00    +0.000 A 
ATOM     26  C   UNL     1      -0.656  11.150  20.443  0.00  0.00    +0.000 A 
ATOM     27  C   UNL     1      -0.018  10.520  21.522  0.00  0.00    +0.000 A 
ATOM     28  N   UNL     1      -0.067  10.740  22.844  0.00  0.00    +0.000 NA
ATOM     29  O   UNL     1       0.755   9.789  23.424  0.00  0.00    +0.000 OA
ATOM     30  N   UNL     1       1.331   8.964  22.483  0.00  0.00    +0.000 NA
ATOM     31  C   UNL     1       0.881   9.380  21.290  0.00  0.00    +0.000 A 
BRANCH  26  32
ATOM     32  N   UNL     1      -1.513  12.284  20.677  0.00  0.00    +0.000 N 
ATOM     33  O   UNL     1      -2.738  12.098  20.525  0.00  0.00    +0.000 OA
ATOM     34  O   UNL     1      -0.978  13.361  20.923  0.00  0.00    +0.000 OA
ENDBRANCH  26  32
ENDBRANCH  22  23
ENDBRANCH  21  22
ENDBRANCH  20  21
ENDBRANCH  19  20
ENDBRANCH  18  19
ENDBRANCH   1  18
TORSDOF 17
ENDMDL
MODEL 8
REMARK VINA RESULT:      -5.9      2.354      3.554
REMARK  Name = 
REMARK  19 active torsions:
REMARK  status: ('A' for Active; 'I' for Inactive)
REMARK    1  A    between atoms: C_1  and  N_2
REMARK    2  A    between atoms: N_2  and  C_3
REMARK    3  A    between atoms: N_2  and  C_4
REMARK    4  A    between atoms: C_4  and  C_5
REMARK    5  A    between atoms: C_5  and  C_6
REMARK    6  A    between atoms: C_6  and  N_7
REMARK    7  A    between atoms: C_8  and  C_10
REMARK    8  A    between atoms: C_10  and  C_11
REMARK    9  A    between atoms: C_11  and  C_12
REMARK   10  A    between atoms: C_12  and  O_14
REMARK   11  A    between atoms: O_14  and  C_15
REMARK   12  A    between atoms: C_15  and  C_16
REMARK   13  A    between atoms: C_16  and  C_17
REMARK   14  A    between atoms: C_17  and  C_18
REMARK   15  A    between atoms: C_18  and  C_19
REMARK   16  A    between atoms: C_19  and  C_20
REMARK   17  A    between atoms: C_20  and  S_21
REMARK   18  A    between atoms: S_21  and  C_22
REMARK   19  A    between atoms: C_25  and  N_26
REMARK                            x       y       z     vdW  Elec       q    Type
REMARK                         _______ _______ _______ _____ _____    ______ ____
ROOT
ATOM      1  C   UNL     1       1.980   6.101  19.532  0.00  0.00    +0.000 C 
ENDROOT
BRANCH   1   2
ATOM      2  C   UNL     1       1.532   7.268  20.411  0.00  0.00    +0.000 C 
BRANCH   2   3
ATOM      3  O   UNL     1       2.073   8.505  19.926  0.00  0.00    +0.000 OA
BRANCH   3   4
ATOM      4  C   UNL     1       1.402   9.028  18.858  0.00  0.00    +0.000 C 
ATOM      5  O   UNL     1       1.632   8.763  17.686  0.00  0.00    +0.000 OA
BRANCH   4   6
ATOM      6  C   UNL     1       0.299   9.954  19.313  0.00  0.00    +0.000 C 
BRANCH   6   7
ATOM      7  C   UNL     1       0.676  11.416  19.119  0.00  0.00    +0.000 C 
BRANCH   7   9
ATOM      8  N   UNL     1       0.488  13.437  20.451  0.00  0.00    +0.000 N 
ATOM      9  C   UNL     1       0.866  12.112  20.449  0.00  0.00    +0.000 C 
ATOM     10  O   UNL     1       1.347  11.552  21.427  0.00  0.00    +0.000 OA
ATOM     11  H   UNL     1       0.156  13.883  19.607  0.00  0.00    +0.000 HD
BRANCH   8  12
ATOM     12  C   UNL     1       0.603  14.248  21.646  0.00  0.00    +0.000 C 
BRANCH  12  13
ATOM     13  C   UNL     1       1.668  15.333  21.510  0.00  0.00    +0.000 C 
BRANCH  13  14
ATOM     14  C   UNL     1       1.916  15.747  20.046  0.00  0.00    +0.000 C 
BRANCH  14  16
ATOM     15  C   UNL     1       3.110  15.329  17.990  0.00  0.00    +0.000 C 
ATOM     16  N   UNL     1       2.909  14.886  19.372  0.00  0.00    +0.000 NA
ATOM     17  C   UNL     1       4.199  14.903  20.071  0.00  0.00    +0.000 C 
ENDBRANCH  14  16
ENDBRANCH  13  14
ENDBRANCH  12  13
ENDBRANCH   8  12
ENDBRANCH   7   9
ENDBRANCH   6   7
ENDBRANCH   4   6
ENDBRANCH   3   4
ENDBRANCH   2   3
ENDBRANCH   1   2
BRANCH   1  18
ATOM     18  C   UNL     1       1.895   4.758  20.264  0.00  0.00    +0.000 C 
BRANCH  18  19
ATOM     19  C   UNL     1       1.448   3.609  19.350  0.00  0.00    +0.000 C 
BRANCH  19  20
ATOM     20  C   UNL     1       2.054   2.271  19.781  0.00  0.00    +0.000 C 
BRANCH  20  21
ATOM     21  C   UNL     1       3.540   2.177  19.420  0.00  0.00    +0.000 C 
BRANCH  21  22
ATOM     22  S   UNL     1       3.746   2.519  17.633  0.00  0.00    +0.000 S 
BRANCH  22  23
ATOM     23  C   UNL     1       4.874   3.880  17.679  0.00  0.00    +0.000 A 
ATOM     24  C   UNL     1       5.065   4.657  18.843  0.00  0.00    +0.000 A 
ATOM     25  C   UNL     1       6.003   5.723  18.923  0.00  0.00    +0.000 A 
ATOM     26  C   UNL     1       6.820   6.064  17.831  0.00  0.00    +0.000 A 
ATOM     27  C   UNL     1       6.692   5.305  16.658  0.00  0.00    +0.000 A 
ATOM     28  N   UNL     1       7.337   5.357  15.484  0.00  0.00    +0.000 NA
ATOM     29  O   UNL     1       6.802   4.344  14.706  0.00  0.00    +0.000 OA
ATOM     30  N   UNL     1       5.819   3.647  15.373  0.00  0.00    +0.000 NA
ATOM     31  C   UNL     1       5.716   4.208  16.587  0.00  0.00    +0.000 A 
BRANCH  26  32
ATOM     32  N   UNL     1       7.759   7.156  17.883  0.00  0.00    +0.000 N 
ATOM     33  O   UNL     1       8.518   7.192  18.874  0.00  0.00    +0.000 OA
ATOM     34  O   UNL     1       7.690   8.008  17.004  0.00  0.00    +0.000 OA
ENDBRANCH  26  32
ENDBRANCH  22  23
ENDBRANCH  21  22
ENDBRANCH  20  21
ENDBRANCH  19  20
ENDBRANCH  18  19
ENDBRANCH   1  18
TORSDOF 17
ENDMDL
MODEL 9
REMARK VINA RESULT:      -5.9      2.188      3.015
REMARK  Name = 
REMARK  19 active torsions:
REMARK  status: ('A' for Active; 'I' for Inactive)
REMARK    1  A    between atoms: C_1  and  N_2
REMARK    2  A    between atoms: N_2  and  C_3
REMARK    3  A    between atoms: N_2  and  C_4
REMARK    4  A    between atoms: C_4  and  C_5
REMARK    5  A    between atoms: C_5  and  C_6
REMARK    6  A    between atoms: C_6  and  N_7
REMARK    7  A    between atoms: C_8  and  C_10
REMARK    8  A    between atoms: C_10  and  C_11
REMARK    9  A    between atoms: C_11  and  C_12
REMARK   10  A    between atoms: C_12  and  O_14
REMARK   11  A    between atoms: O_14  and  C_15
REMARK   12  A    between atoms: C_15  and  C_16
REMARK   13  A    between atoms: C_16  and  C_17
REMARK   14  A    between atoms: C_17  and  C_18
REMARK   15  A    between atoms: C_18  and  C_19
REMARK   16  A    between atoms: C_19  and  C_20
REMARK   17  A    between atoms: C_20  and  S_21
REMARK   18  A    between atoms: S_21  and  C_22
REMARK   19  A    between atoms: C_25  and  N_26
REMARK                            x       y       z     vdW  Elec       q    Type
REMARK                         _______ _______ _______ _____ _____    ______ ____
ROOT
ATOM      1  C   UNL     1       1.326   8.678  17.903  0.00  0.00    +0.000 C 
ENDROOT
BRANCH   1   2
ATOM      2  C   UNL     1       1.170  10.174  18.170  0.00  0.00    +0.000 C 
BRANCH   2   3
ATOM      3  O   UNL     1       0.485  10.400  19.410  0.00  0.00    +0.000 OA
BRANCH   3   4
ATOM      4  C   UNL     1      -0.641  11.163  19.295  0.00  0.00    +0.000 C 
ATOM      5  O   UNL     1      -1.681  10.805  18.760  0.00  0.00    +0.000 OA
BRANCH   4   6
ATOM      6  C   UNL     1      -0.453  12.507  19.958  0.00  0.00    +0.000 C 
BRANCH   6   7
ATOM      7  C   UNL     1       0.207  12.374  21.323  0.00  0.00    +0.000 C 
BRANCH   7   9
ATOM      8  N   UNL     1      -2.030  12.525  22.253  0.00  0.00    +0.000 N 
ATOM      9  C   UNL     1      -0.791  11.934  22.372  0.00  0.00    +0.000 C 
ATOM     10  O   UNL     1      -0.508  11.147  23.267  0.00  0.00    +0.000 OA
ATOM     11  H   UNL     1      -2.207  13.220  21.541  0.00  0.00    +0.000 HD
BRANCH   8  12
ATOM     12  C   UNL     1      -3.102  12.212  23.176  0.00  0.00    +0.000 C 
BRANCH  12  13
ATOM     13  C   UNL     1      -4.281  13.173  23.044  0.00  0.00    +0.000 C 
BRANCH  13  14
ATOM     14  C   UNL     1      -5.072  12.970  21.737  0.00  0.00    +0.000 C 
BRANCH  14  16
ATOM     15  C   UNL     1      -6.872  12.571  23.297  0.00  0.00    +0.000 C 
ATOM     16  N   UNL     1      -6.361  12.281  21.954  0.00  0.00    +0.000 NA
ATOM     17  C   UNL     1      -7.363  12.688  20.964  0.00  0.00    +0.000 C 
ENDBRANCH  14  16
ENDBRANCH  13  14
ENDBRANCH  12  13
ENDBRANCH   8  12
ENDBRANCH   7   9
ENDBRANCH   6   7
ENDBRANCH   4   6
ENDBRANCH   3   4
ENDBRANCH   2   3
ENDBRANCH   1   2
BRANCH   1  18
ATOM     18  C   UNL     1       2.389   8.037  18.800  0.00  0.00    +0.000 C 
BRANCH  18  19
ATOM     19  C   UNL     1       1.812   7.498  20.116  0.00  0.00    +0.000 C 
BRANCH  19  20
ATOM     20  C   UNL     1       1.811   5.967  20.151  0.00  0.00    +0.000 C 
BRANCH  20  21
ATOM     21  C   UNL     1       3.231   5.399  20.229  0.00  0.00    +0.000 C 
BRANCH  21  22
ATOM     22  S   UNL     1       3.244   3.713  19.514  0.00  0.00    +0.000 S 
BRANCH  22  23
ATOM     23  C   UNL     1       4.309   3.946  18.122  0.00  0.00    +0.000 A 
ATOM     24  C   UNL     1       3.840   3.843  16.794  0.00  0.00    +0.000 A 
ATOM     25  C   UNL     1       4.661   4.076  15.656  0.00  0.00    +0.000 A 
ATOM     26  C   UNL     1       6.012   4.443  15.792  0.00  0.00    +0.000 A 
ATOM     27  C   UNL     1       6.522   4.588  17.090  0.00  0.00    +0.000 A 
ATOM     28  N   UNL     1       7.731   4.953  17.541  0.00  0.00    +0.000 NA
ATOM     29  O   UNL     1       7.646   4.941  18.923  0.00  0.00    +0.000 OA
ATOM     30  N   UNL     1       6.393   4.569  19.359  0.00  0.00    +0.000 NA
ATOM     31  C   UNL     1       5.664   4.340  18.257  0.00  0.00    +0.000 A 
BRANCH  26  32
ATOM     32  N   UNL     1       6.869   4.661  14.653  0.00  0.00    +0.000 N 
ATOM     33  O   UNL     1       7.643   5.638  14.717  0.00  0.00    +0.000 OA
ATOM     34  O   UNL     1       6.718   3.930  13.679  0.00  0.00    +0.000 OA
ENDBRANCH  26  32
ENDBRANCH  22  23
ENDBRANCH  21  22
ENDBRANCH  20  21
ENDBRANCH  19  20
ENDBRANCH  18  19
ENDBRANCH   1  18
TORSDOF 17
ENDMDL
