MODEL 1
REMARK VINA RESULT:      -7.3      0.000      0.000
REMARK  Name = 
REMARK  8 active torsions:
REMARK  status: ('A' for Active; 'I' for Inactive)
REMARK    1  A    between atoms: C_1  and  N_2
REMARK    2  A    between atoms: N_2  and  C_3
REMARK    3  A    between atoms: N_2  and  S_10
REMARK    4  A    between atoms: C_3  and  C_4
REMARK    5  A    between atoms: C_4  and  C_5
REMARK    6  A    between atoms: S_10  and  C_13
REMARK    7  A    between atoms: C_18  and  S_19
REMARK    8  A    between atoms: S_19  and  N_20
REMARK                            x       y       z     vdW  Elec       q    Type
REMARK                         _______ _______ _______ _____ _____    ______ ____
ROOT
ATOM      1  C   UNL     1       2.448   6.973  19.034  0.00  0.00    +0.000 A 
ATOM      2  C   UNL     1       2.351   7.649  17.815  0.00  0.00    +0.000 A 
ATOM      3  C   UNL     1       1.800   8.931  17.779  0.00  0.00    +0.000 A 
ATOM      4  C   UNL     1       1.332   9.540  18.951  0.00  0.00    +0.000 A 
ATOM      5 CL   UNL     1       0.642  11.113  18.775  0.00  0.00    +0.000 Cl
ATOM      6  C   UNL     1       1.413   8.847  20.163  0.00  0.00    +0.000 A 
ATOM      7  C   UNL     1       1.979   7.564  20.210  0.00  0.00    +0.000 A 
ENDROOT
BRANCH   1   8
ATOM      8  S   UNL     1       2.894   5.250  19.029  0.00  0.00    +0.000 S 
ATOM      9  O   UNL     1       2.011   4.617  18.074  0.00  0.00    +0.000 OA
ATOM     10  O   UNL     1       2.930   4.834  20.414  0.00  0.00    +0.000 OA
BRANCH   8  12
ATOM     11  C   UNL     1       5.575   5.348  19.372  0.00  0.00    +0.000 C 
ATOM     12  N   UNL     1       4.468   5.225  18.403  0.00  0.00    +0.000 NA
BRANCH  12  13
ATOM     13  C   UNL     1       4.753   4.307  17.251  0.00  0.00    +0.000 C 
BRANCH  13  14
ATOM     14  C   UNL     1       5.408   4.933  15.986  0.00  0.00    +0.000 C 
ATOM     15  C   UNL     1       5.141   6.434  15.821  0.00  0.00    +0.000 C 
ATOM     16  C   UNL     1       6.926   4.691  15.983  0.00  0.00    +0.000 C 
ATOM     17  C   UNL     1       7.259   4.731  14.508  0.00  0.00    +0.000 C 
ATOM     18  C   UNL     1       6.044   4.071  13.892  0.00  0.00    +0.000 C 
ATOM     19  O   UNL     1       4.947   4.254  14.798  0.00  0.00    +0.000 OA
ENDBRANCH  13  14
ENDBRANCH  12  13
ENDBRANCH   8  12
ENDBRANCH   1   8
BRANCH   6  20
ATOM     20  S   UNL     1       0.740   9.512  21.651  0.00  0.00    +0.000 S 
ATOM     21  O   UNL     1       0.755  10.952  21.571  0.00  0.00    +0.000 OA
ATOM     22  O   UNL     1      -0.460   8.785  21.999  0.00  0.00    +0.000 OA
BRANCH  20  23
ATOM     23  N   UNL     1       1.911   9.128  22.788  0.00  0.00    +0.000 NA
ATOM     24  H   UNL     1       1.546   8.453  23.462  0.00  0.00    +0.000 HD
ATOM     25  H   UNL     1       2.775   8.843  22.329  0.00  0.00    +0.000 HD
ENDBRANCH  20  23
ENDBRANCH   6  20
TORSDOF 6
ENDMDL
MODEL 2
REMARK VINA RESULT:      -6.8      1.451      1.846
REMARK  Name = 
REMARK  8 active torsions:
REMARK  status: ('A' for Active; 'I' for Inactive)
REMARK    1  A    between atoms: C_1  and  N_2
REMARK    2  A    between atoms: N_2  and  C_3
REMARK    3  A    between atoms: N_2  and  S_10
REMARK    4  A    between atoms: C_3  and  C_4
REMARK    5  A    between atoms: C_4  and  C_5
REMARK    6  A    between atoms: S_10  and  C_13
REMARK    7  A    between atoms: C_18  and  S_19
REMARK    8  A    between atoms: S_19  and  N_20
REMARK                            x       y       z     vdW  Elec       q    Type
REMARK                         _______ _______ _______ _____ _____    ______ ____
ROOT
ATOM      1  C   UNL     1       2.188   6.314  19.205  0.00  0.00    +0.000 A 
ATOM      2  C   UNL     1       2.495   6.953  18.001  0.00  0.00    +0.000 A 
ATOM      3  C   UNL     1       2.284   8.327  17.875  0.00  0.00    +0.000 A 
ATOM      4  C   UNL     1       1.755   9.068  18.941  0.00  0.00    +0.000 A 
ATOM      5 CL   UNL     1       1.508  10.752  18.656  0.00  0.00    +0.000 Cl
ATOM      6  C   UNL     1       1.430   8.417  20.135  0.00  0.00    +0.000 A 
ATOM      7  C   UNL     1       1.653   7.037  20.274  0.00  0.00    +0.000 A 
ENDROOT
BRANCH   1   8
ATOM      8  S   UNL     1       2.202   4.535  19.263  0.00  0.00    +0.000 S 
ATOM      9  O   UNL     1       1.314   4.099  18.208  0.00  0.00    +0.000 OA
ATOM     10  O   UNL     1       1.970   4.170  20.644  0.00  0.00    +0.000 OA
BRANCH   8  12
ATOM     11  C   UNL     1       4.404   2.996  19.582  0.00  0.00    +0.000 C 
ATOM     12  N   UNL     1       3.787   4.113  18.840  0.00  0.00    +0.000 NA
BRANCH  12  13
ATOM     13  C   UNL     1       4.170   4.179  17.391  0.00  0.00    +0.000 C 
BRANCH  13  14
ATOM     14  C   UNL     1       5.483   4.934  17.034  0.00  0.00    +0.000 C 
ATOM     15  C   UNL     1       5.424   5.700  15.706  0.00  0.00    +0.000 C 
ATOM     16  C   UNL     1       5.874   5.908  18.157  0.00  0.00    +0.000 C 
ATOM     17  C   UNL     1       7.373   6.014  17.989  0.00  0.00    +0.000 C 
ATOM     18  C   UNL     1       7.746   4.604  17.583  0.00  0.00    +0.000 C 
ATOM     19  O   UNL     1       6.590   4.008  16.977  0.00  0.00    +0.000 OA
ENDBRANCH  13  14
ENDBRANCH  12  13
ENDBRANCH   8  12
ENDBRANCH   1   8
BRANCH   6  20
ATOM     20  S   UNL     1       0.658   9.270  21.471  0.00  0.00    +0.000 S 
ATOM     21  O   UNL     1       1.604   9.405  22.551  0.00  0.00    +0.000 OA
ATOM     22  O   UNL     1      -0.069  10.408  20.954  0.00  0.00    +0.000 OA
BRANCH  20  23
ATOM     23  N   UNL     1      -0.469   8.156  22.017  0.00  0.00    +0.000 NA
ATOM     24  H   UNL     1      -0.938   7.706  21.229  0.00  0.00    +0.000 HD
ATOM     25  H   UNL     1      -0.040   7.509  22.679  0.00  0.00    +0.000 HD
ENDBRANCH  20  23
ENDBRANCH   6  20
TORSDOF 6
ENDMDL
MODEL 3
REMARK VINA RESULT:      -6.8      2.866      4.236
REMARK  Name = 
REMARK  8 active torsions:
REMARK  status: ('A' for Active; 'I' for Inactive)
REMARK    1  A    between atoms: C_1  and  N_2
REMARK    2  A    between atoms: N_2  and  C_3
REMARK    3  A    between atoms: N_2  and  S_10
REMARK    4  A    between atoms: C_3  and  C_4
REMARK    5  A    between atoms: C_4  and  C_5
REMARK    6  A    between atoms: S_10  and  C_13
REMARK    7  A    between atoms: C_18  and  S_19
REMARK    8  A    between atoms: S_19  and  N_20
REMARK                            x       y       z     vdW  Elec       q    Type
REMARK                         _______ _______ _______ _____ _____    ______ ____
ROOT
ATOM      1  C   UNL     1       3.299   6.779  18.513  0.00  0.00    +0.000 A 
ATOM      2  C   UNL     1       2.973   6.125  19.703  0.00  0.00    +0.000 A 
ATOM      3  C   UNL     1       2.014   6.676  20.555  0.00  0.00    +0.000 A 
ATOM      4  C   UNL     1       1.387   7.887  20.232  0.00  0.00    +0.000 A 
ATOM      5 CL   UNL     1       0.242   8.486  21.378  0.00  0.00    +0.000 Cl
ATOM      6  C   UNL     1       1.735   8.547  19.050  0.00  0.00    +0.000 A 
ATOM      7  C   UNL     1       2.687   7.991  18.181  0.00  0.00    +0.000 A 
ENDROOT
BRANCH   1   8
ATOM      8  S   UNL     1       4.705   6.216  17.578  0.00  0.00    +0.000 S 
ATOM      9  O   UNL     1       5.842   6.334  18.465  0.00  0.00    +0.000 OA
ATOM     10  O   UNL     1       4.660   6.915  16.312  0.00  0.00    +0.000 OA
BRANCH   8  12
ATOM     11  C   UNL     1       4.812   4.017  16.006  0.00  0.00    +0.000 C 
ATOM     12  N   UNL     1       4.401   4.571  17.311  0.00  0.00    +0.000 NA
BRANCH  12  13
ATOM     13  C   UNL     1       4.570   3.627  18.465  0.00  0.00    +0.000 C 
BRANCH  13  14
ATOM     14  C   UNL     1       3.376   2.688  18.800  0.00  0.00    +0.000 C 
ATOM     15  C   UNL     1       3.603   1.223  18.407  0.00  0.00    +0.000 C 
ATOM     16  C   UNL     1       3.030   2.758  20.296  0.00  0.00    +0.000 C 
ATOM     17  C   UNL     1       1.565   2.381  20.309  0.00  0.00    +0.000 C 
ATOM     18  C   UNL     1       1.060   3.028  19.038  0.00  0.00    +0.000 C 
ATOM     19  O   UNL     1       2.176   3.155  18.145  0.00  0.00    +0.000 OA
ENDBRANCH  13  14
ENDBRANCH  12  13
ENDBRANCH   8  12
ENDBRANCH   1   8
BRANCH   6  20
ATOM     20  S   UNL     1       1.065  10.127  18.643  0.00  0.00    +0.000 S 
ATOM     21  O   UNL     1      -0.181   9.941  17.941  0.00  0.00    +0.000 OA
ATOM     22  O   UNL     1       1.164  10.997  19.793  0.00  0.00    +0.000 OA
BRANCH  20  23
ATOM     23  N   UNL     1       2.136  10.694  17.485  0.00  0.00    +0.000 NA
ATOM     24  H   UNL     1       2.574  11.562  17.798  0.00  0.00    +0.000 HD
ATOM     25  H   UNL     1       2.793   9.961  17.216  0.00  0.00    +0.000 HD
ENDBRANCH  20  23
ENDBRANCH   6  20
TORSDOF 6
ENDMDL
MODEL 4
REMARK VINA RESULT:      -6.8      0.840      1.120
REMARK  Name = 
REMARK  8 active torsions:
REMARK  status: ('A' for Active; 'I' for Inactive)
REMARK    1  A    between atoms: C_1  and  N_2
REMARK    2  A    between atoms: N_2  and  C_3
REMARK    3  A    between atoms: N_2  and  S_10
REMARK    4  A    between atoms: C_3  and  C_4
REMARK    5  A    between atoms: C_4  and  C_5
REMARK    6  A    between atoms: S_10  and  C_13
REMARK    7  A    between atoms: C_18  and  S_19
REMARK    8  A    between atoms: S_19  and  N_20
REMARK                            x       y       z     vdW  Elec       q    Type
REMARK                         _______ _______ _______ _____ _____    ______ ____
ROOT
ATOM      1  C   UNL     1       2.477   7.090  19.031  0.00  0.00    +0.000 A 
ATOM      2  C   UNL     1       2.683   7.817  17.857  0.00  0.00    +0.000 A 
ATOM      3  C   UNL     1       2.216   9.129  17.766  0.00  0.00    +0.000 A 
ATOM      4  C   UNL     1       1.532   9.718  18.837  0.00  0.00    +0.000 A 
ATOM      5 CL   UNL     1       0.974  11.334  18.596  0.00  0.00    +0.000 Cl
ATOM      6  C   UNL     1       1.310   8.975  20.001  0.00  0.00    +0.000 A 
ATOM      7  C   UNL     1       1.789   7.660  20.105  0.00  0.00    +0.000 A 
ENDROOT
BRANCH   1   8
ATOM      8  S   UNL     1       2.829   5.345  19.036  0.00  0.00    +0.000 S 
ATOM      9  O   UNL     1       1.922   4.756  18.076  0.00  0.00    +0.000 OA
ATOM     10  O   UNL     1       2.831   4.933  20.423  0.00  0.00    +0.000 OA
BRANCH   8  12
ATOM     11  C   UNL     1       5.507   5.247  19.407  0.00  0.00    +0.000 C 
ATOM     12  N   UNL     1       4.405   5.232  18.424  0.00  0.00    +0.000 NA
BRANCH  12  13
ATOM     13  C   UNL     1       4.640   4.337  17.244  0.00  0.00    +0.000 C 
BRANCH  13  14
ATOM     14  C   UNL     1       5.370   4.952  16.016  0.00  0.00    +0.000 C 
ATOM     15  C   UNL     1       5.117   6.453  15.825  0.00  0.00    +0.000 C 
ATOM     16  C   UNL     1       6.885   4.706  16.103  0.00  0.00    +0.000 C 
ATOM     17  C   UNL     1       7.303   4.734  14.650  0.00  0.00    +0.000 C 
ATOM     18  C   UNL     1       6.125   4.074  13.968  0.00  0.00    +0.000 C 
ATOM     19  O   UNL     1       4.977   4.265  14.807  0.00  0.00    +0.000 OA
ENDBRANCH  13  14
ENDBRANCH  12  13
ENDBRANCH   8  12
ENDBRANCH   1   8
BRANCH   6  20
ATOM     20  S   UNL     1       0.358   9.619  21.339  0.00  0.00    +0.000 S 
ATOM     21  O   UNL     1      -0.209   8.521  22.083  0.00  0.00    +0.000 OA
ATOM     22  O   UNL     1       1.104  10.671  21.992  0.00  0.00    +0.000 OA
BRANCH  20  23
ATOM     23  N   UNL     1      -0.942  10.331  20.557  0.00  0.00    +0.000 NA
ATOM     24  H   UNL     1      -1.696   9.653  20.429  0.00  0.00    +0.000 HD
ATOM     25  H   UNL     1      -1.221  11.188  21.033  0.00  0.00    +0.000 HD
ENDBRANCH  20  23
ENDBRANCH   6  20
TORSDOF 6
ENDMDL
MODEL 5
REMARK VINA RESULT:      -6.8      1.399      1.931
REMARK  Name = 
REMARK  8 active torsions:
REMARK  status: ('A' for Active; 'I' for Inactive)
REMARK    1  A    between atoms: C_1  and  N_2
REMARK    2  A    between atoms: N_2  and  C_3
REMARK    3  A    between atoms: N_2  and  S_10
REMARK    4  A    between atoms: C_3  and  C_4
REMARK    5  A    between atoms: C_4  and  C_5
REMARK    6  A    between atoms: S_10  and  C_13
REMARK    7  A    between atoms: C_18  and  S_19
REMARK    8  A    between atoms: S_19  and  N_20
REMARK                            x       y       z     vdW  Elec       q    Type
REMARK                         _______ _______ _______ _____ _____    ______ ____
ROOT
ATOM      1  C   UNL     1       2.261   6.518  19.186  0.00  0.00    +0.000 A 
ATOM      2  C   UNL     1       2.433   7.147  17.951  0.00  0.00    +0.000 A 
ATOM      3  C   UNL     1       2.177   8.514  17.830  0.00  0.00    +0.000 A 
ATOM      4  C   UNL     1       1.738   9.257  18.934  0.00  0.00    +0.000 A 
ATOM      5 CL   UNL     1       1.424  10.931  18.655  0.00  0.00    +0.000 Cl
ATOM      6  C   UNL     1       1.547   8.615  20.161  0.00  0.00    +0.000 A 
ATOM      7  C   UNL     1       1.816   7.244  20.294  0.00  0.00    +0.000 A 
ENDROOT
BRANCH   1   8
ATOM      8  S   UNL     1       2.323   4.740  19.263  0.00  0.00    +0.000 S 
ATOM      9  O   UNL     1       1.547   4.269  18.137  0.00  0.00    +0.000 OA
ATOM     10  O   UNL     1       1.978   4.379  20.621  0.00  0.00    +0.000 OA
BRANCH   8  12
ATOM     11  C   UNL     1       4.542   3.298  19.821  0.00  0.00    +0.000 C 
ATOM     12  N   UNL     1       3.952   4.364  18.989  0.00  0.00    +0.000 NA
BRANCH  12  13
ATOM     13  C   UNL     1       4.453   4.396  17.575  0.00  0.00    +0.000 C 
BRANCH  13  14
ATOM     14  C   UNL     1       5.895   4.930  17.341  0.00  0.00    +0.000 C 
ATOM     15  C   UNL     1       6.527   4.469  16.022  0.00  0.00    +0.000 C 
ATOM     16  C   UNL     1       5.923   6.465  17.400  0.00  0.00    +0.000 C 
ATOM     17  C   UNL     1       7.348   6.749  17.821  0.00  0.00    +0.000 C 
ATOM     18  C   UNL     1       7.627   5.611  18.780  0.00  0.00    +0.000 C 
ATOM     19  O   UNL     1       6.758   4.526  18.427  0.00  0.00    +0.000 OA
ENDBRANCH  13  14
ENDBRANCH  12  13
ENDBRANCH   8  12
ENDBRANCH   1   8
BRANCH   6  20
ATOM     20  S   UNL     1       0.889   9.470  21.556  0.00  0.00    +0.000 S 
ATOM     21  O   UNL     1       1.049  10.889  21.355  0.00  0.00    +0.000 OA
ATOM     22  O   UNL     1      -0.388   8.893  21.910  0.00  0.00    +0.000 OA
BRANCH  20  23
ATOM     23  N   UNL     1       1.975   9.079  22.773  0.00  0.00    +0.000 NA
ATOM     24  H   UNL     1       2.841   9.609  22.662  0.00  0.00    +0.000 HD
ATOM     25  H   UNL     1       1.535   9.174  23.688  0.00  0.00    +0.000 HD
ENDBRANCH  20  23
ENDBRANCH   6  20
TORSDOF 6
ENDMDL
MODEL 6
REMARK VINA RESULT:      -6.6      1.647      2.254
REMARK  Name = 
REMARK  8 active torsions:
REMARK  status: ('A' for Active; 'I' for Inactive)
REMARK    1  A    between atoms: C_1  and  N_2
REMARK    2  A    between atoms: N_2  and  C_3
REMARK    3  A    between atoms: N_2  and  S_10
REMARK    4  A    between atoms: C_3  and  C_4
REMARK    5  A    between atoms: C_4  and  C_5
REMARK    6  A    between atoms: S_10  and  C_13
REMARK    7  A    between atoms: C_18  and  S_19
REMARK    8  A    between atoms: S_19  and  N_20
REMARK                            x       y       z     vdW  Elec       q    Type
REMARK                         _______ _______ _______ _____ _____    ______ ____
ROOT
ATOM      1  C   UNL     1       2.354   6.523  18.940  0.00  0.00    +0.000 A 
ATOM      2  C   UNL     1       2.769   7.232  17.810  0.00  0.00    +0.000 A 
ATOM      3  C   UNL     1       2.537   8.606  17.733  0.00  0.00    +0.000 A 
ATOM      4  C   UNL     1       1.882   9.277  18.774  0.00  0.00    +0.000 A 
ATOM      5 CL   UNL     1       1.624  10.970  18.552  0.00  0.00    +0.000 Cl
ATOM      6  C   UNL     1       1.451   8.556  19.892  0.00  0.00    +0.000 A 
ATOM      7  C   UNL     1       1.693   7.176  19.982  0.00  0.00    +0.000 A 
ENDROOT
BRANCH   1   8
ATOM      8  S   UNL     1       2.407   4.744  18.906  0.00  0.00    +0.000 S 
ATOM      9  O   UNL     1       1.780   4.353  17.663  0.00  0.00    +0.000 OA
ATOM     10  O   UNL     1       1.893   4.296  20.183  0.00  0.00    +0.000 OA
BRANCH   8  12
ATOM     11  C   UNL     1       4.573   3.372  19.769  0.00  0.00    +0.000 C 
ATOM     12  N   UNL     1       4.058   4.373  18.815  0.00  0.00    +0.000 NA
BRANCH  12  13
ATOM     13  C   UNL     1       4.693   4.319  17.457  0.00  0.00    +0.000 C 
BRANCH  13  14
ATOM     14  C   UNL     1       6.118   4.927  17.312  0.00  0.00    +0.000 C 
ATOM     15  C   UNL     1       6.832   4.545  16.009  0.00  0.00    +0.000 C 
ATOM     16  C   UNL     1       6.071   6.459  17.427  0.00  0.00    +0.000 C 
ATOM     17  C   UNL     1       7.460   6.791  17.926  0.00  0.00    +0.000 C 
ATOM     18  C   UNL     1       7.748   5.632  18.855  0.00  0.00    +0.000 C 
ATOM     19  O   UNL     1       6.948   4.522  18.423  0.00  0.00    +0.000 OA
ENDBRANCH  13  14
ENDBRANCH  12  13
ENDBRANCH   8  12
ENDBRANCH   1   8
BRANCH   6  20
ATOM     20  S   UNL     1       0.522   9.321  21.181  0.00  0.00    +0.000 S 
ATOM     21  O   UNL     1      -0.207   8.305  21.900  0.00  0.00    +0.000 OA
ATOM     22  O   UNL     1       1.358  10.281  21.866  0.00  0.00    +0.000 OA
BRANCH  20  23
ATOM     23  N   UNL     1      -0.645  10.177  20.336  0.00  0.00    +0.000 NA
ATOM     24  H   UNL     1      -1.444  10.383  20.940  0.00  0.00    +0.000 HD
ATOM     25  H   UNL     1      -0.234  10.994  19.886  0.00  0.00    +0.000 HD
ENDBRANCH  20  23
ENDBRANCH   6  20
TORSDOF 6
ENDMDL
MODEL 7
REMARK VINA RESULT:      -6.5      3.567      6.736
REMARK  Name = 
REMARK  8 active torsions:
REMARK  status: ('A' for Active; 'I' for Inactive)
REMARK    1  A    between atoms: C_1  and  N_2
REMARK    2  A    between atoms: N_2  and  C_3
REMARK    3  A    between atoms: N_2  and  S_10
REMARK    4  A    between atoms: C_3  and  C_4
REMARK    5  A    between atoms: C_4  and  C_5
REMARK    6  A    between atoms: S_10  and  C_13
REMARK    7  A    between atoms: C_18  and  S_19
REMARK    8  A    between atoms: S_19  and  N_20
REMARK                            x       y       z     vdW  Elec       q    Type
REMARK                         _______ _______ _______ _____ _____    ______ ____
ROOT
ATOM      1  C   UNL     1       4.057   6.007  18.268  0.00  0.00    +0.000 A 
ATOM      2  C   UNL     1       4.818   5.740  19.408  0.00  0.00    +0.000 A 
ATOM      3  C   UNL     1       6.118   5.251  19.271  0.00  0.00    +0.000 A 
ATOM      4  C   UNL     1       6.661   5.014  18.001  0.00  0.00    +0.000 A 
ATOM      5 CL   UNL     1       8.266   4.378  17.960  0.00  0.00    +0.000 Cl
ATOM      6  C   UNL     1       5.884   5.263  16.866  0.00  0.00    +0.000 A 
ATOM      7  C   UNL     1       4.581   5.769  16.995  0.00  0.00    +0.000 A 
ENDROOT
BRANCH   1   8
ATOM      8  S   UNL     1       2.323   6.365  18.455  0.00  0.00    +0.000 S 
ATOM      9  O   UNL     1       1.632   5.431  17.594  0.00  0.00    +0.000 OA
ATOM     10  O   UNL     1       2.182   7.795  18.285  0.00  0.00    +0.000 OA
BRANCH   8  12
ATOM     11  C   UNL     1       1.826   7.085  21.015  0.00  0.00    +0.000 C 
ATOM     12  N   UNL     1       1.983   5.965  20.066  0.00  0.00    +0.000 NA
BRANCH  12  13
ATOM     13  C   UNL     1       1.072   4.802  20.325  0.00  0.00    +0.000 C 
BRANCH  13  14
ATOM     14  C   UNL     1       1.719   3.388  20.378  0.00  0.00    +0.000 C 
ATOM     15  C   UNL     1       1.396   2.599  21.653  0.00  0.00    +0.000 C 
ATOM     16  C   UNL     1       1.307   2.554  19.155  0.00  0.00    +0.000 C 
ATOM     17  C   UNL     1       2.461   1.585  19.017  0.00  0.00    +0.000 C 
ATOM     18  C   UNL     1       3.643   2.445  19.407  0.00  0.00    +0.000 C 
ATOM     19  O   UNL     1       3.155   3.492  20.257  0.00  0.00    +0.000 OA
ENDBRANCH  13  14
ENDBRANCH  12  13
ENDBRANCH   8  12
ENDBRANCH   1   8
BRANCH   6  20
ATOM     20  S   UNL     1       6.468   4.880  15.246  0.00  0.00    +0.000 S 
ATOM     21  O   UNL     1       7.756   5.500  15.053  0.00  0.00    +0.000 OA
ATOM     22  O   UNL     1       6.257   3.474  14.983  0.00  0.00    +0.000 OA
BRANCH  20  23
ATOM     23  N   UNL     1       5.419   5.742  14.263  0.00  0.00    +0.000 NA
ATOM     24  H   UNL     1       4.593   5.182  14.045  0.00  0.00    +0.000 HD
ATOM     25  H   UNL     1       5.216   6.654  14.671  0.00  0.00    +0.000 HD
ENDBRANCH  20  23
ENDBRANCH   6  20
TORSDOF 6
ENDMDL
MODEL 8
REMARK VINA RESULT:      -6.4      3.803      6.259
REMARK  Name = 
REMARK  8 active torsions:
REMARK  status: ('A' for Active; 'I' for Inactive)
REMARK    1  A    between atoms: C_1  and  N_2
REMARK    2  A    between atoms: N_2  and  C_3
REMARK    3  A    between atoms: N_2  and  S_10
REMARK    4  A    between atoms: C_3  and  C_4
REMARK    5  A    between atoms: C_4  and  C_5
REMARK    6  A    between atoms: S_10  and  C_13
REMARK    7  A    between atoms: C_18  and  S_19
REMARK    8  A    between atoms: S_19  and  N_20
REMARK                            x       y       z     vdW  Elec       q    Type
REMARK                         _______ _______ _______ _____ _____    ______ ____
ROOT
ATOM      1  C   UNL     1       4.203   3.142  18.415  0.00  0.00    +0.000 A 
ATOM      2  C   UNL     1       3.757   3.156  17.091  0.00  0.00    +0.000 A 
ATOM      3  C   UNL     1       4.536   3.767  16.107  0.00  0.00    +0.000 A 
ATOM      4  C   UNL     1       5.754   4.377  16.438  0.00  0.00    +0.000 A 
ATOM      5 CL   UNL     1       6.612   5.127  15.142  0.00  0.00    +0.000 Cl
ATOM      6  C   UNL     1       6.182   4.377  17.769  0.00  0.00    +0.000 A 
ATOM      7  C   UNL     1       5.411   3.752  18.762  0.00  0.00    +0.000 A 
ENDROOT
BRANCH   1   8
ATOM      8  S   UNL     1       3.085   2.609  19.694  0.00  0.00    +0.000 S 
ATOM      9  O   UNL     1       3.917   2.065  20.744  0.00  0.00    +0.000 OA
ATOM     10  O   UNL     1       2.073   1.806  19.041  0.00  0.00    +0.000 OA
BRANCH   8  12
ATOM     11  C   UNL     1       1.702   3.984  21.568  0.00  0.00    +0.000 C 
ATOM     12  N   UNL     1       2.376   4.041  20.256  0.00  0.00    +0.000 NA
BRANCH  12  13
ATOM     13  C   UNL     1       3.086   5.333  19.980  0.00  0.00    +0.000 C 
BRANCH  13  14
ATOM     14  C   UNL     1       2.520   6.229  18.841  0.00  0.00    +0.000 C 
ATOM     15  C   UNL     1       1.443   5.549  17.986  0.00  0.00    +0.000 C 
ATOM     16  C   UNL     1       1.954   7.540  19.410  0.00  0.00    +0.000 C 
ATOM     17  C   UNL     1       2.087   8.487  18.237  0.00  0.00    +0.000 C 
ATOM     18  C   UNL     1       3.390   8.037  17.613  0.00  0.00    +0.000 C 
ATOM     19  O   UNL     1       3.588   6.662  17.970  0.00  0.00    +0.000 OA
ENDBRANCH  13  14
ENDBRANCH  12  13
ENDBRANCH   8  12
ENDBRANCH   1   8
BRANCH   6  20
ATOM     20  S   UNL     1       7.646   5.224  18.267  0.00  0.00    +0.000 S 
ATOM     21  O   UNL     1       8.778   4.347  18.090  0.00  0.00    +0.000 OA
ATOM     22  O   UNL     1       7.632   6.563  17.722  0.00  0.00    +0.000 OA
BRANCH  20  23
ATOM     23  N   UNL     1       7.452   5.350  19.927  0.00  0.00    +0.000 NA
ATOM     24  H   UNL     1       7.264   4.433  20.336  0.00  0.00    +0.000 HD
ATOM     25  H   UNL     1       8.241   5.845  20.343  0.00  0.00    +0.000 HD
ENDBRANCH  20  23
ENDBRANCH   6  20
TORSDOF 6
ENDMDL
MODEL 9
REMARK VINA RESULT:      -6.4      1.068      1.327
REMARK  Name = 
REMARK  8 active torsions:
REMARK  status: ('A' for Active; 'I' for Inactive)
REMARK    1  A    between atoms: C_1  and  N_2
REMARK    2  A    between atoms: N_2  and  C_3
REMARK    3  A    between atoms: N_2  and  S_10
REMARK    4  A    between atoms: C_3  and  C_4
REMARK    5  A    between atoms: C_4  and  C_5
REMARK    6  A    between atoms: S_10  and  C_13
REMARK    7  A    between atoms: C_18  and  S_19
REMARK    8  A    between atoms: S_19  and  N_20
REMARK                            x       y       z     vdW  Elec       q    Type
REMARK                         _______ _______ _______ _____ _____    ______ ____
ROOT
ATOM      1  C   UNL     1       2.244   6.617  19.220  0.00  0.00    +0.000 A 
ATOM      2  C   UNL     1       2.294   7.224  17.964  0.00  0.00    +0.000 A 
ATOM      3  C   UNL     1       1.958   8.573  17.834  0.00  0.00    +0.000 A 
ATOM      4  C   UNL     1       1.559   9.318  18.952  0.00  0.00    +0.000 A 
ATOM      5 CL   UNL     1       1.137  10.967  18.662  0.00  0.00    +0.000 Cl
ATOM      6  C   UNL     1       1.490   8.697  20.202  0.00  0.00    +0.000 A 
ATOM      7  C   UNL     1       1.840   7.344  20.343  0.00  0.00    +0.000 A 
ENDROOT
BRANCH   1   8
ATOM      8  S   UNL     1       2.406   4.847  19.328  0.00  0.00    +0.000 S 
ATOM      9  O   UNL     1       2.078   4.340  18.014  0.00  0.00    +0.000 OA
ATOM     10  O   UNL     1       1.663   4.440  20.501  0.00  0.00    +0.000 OA
BRANCH   8  12
ATOM     11  C   UNL     1       4.573   3.229  19.373  0.00  0.00    +0.000 C 
ATOM     12  N   UNL     1       4.058   4.592  19.606  0.00  0.00    +0.000 NA
BRANCH  12  13
ATOM     13  C   UNL     1       5.011   5.688  19.230  0.00  0.00    +0.000 C 
BRANCH  13  14
ATOM     14  C   UNL     1       5.628   5.638  17.802  0.00  0.00    +0.000 C 
ATOM     15  C   UNL     1       5.817   7.015  17.154  0.00  0.00    +0.000 C 
ATOM     16  C   UNL     1       6.977   4.902  17.817  0.00  0.00    +0.000 C 
ATOM     17  C   UNL     1       7.077   4.377  16.402  0.00  0.00    +0.000 C 
ATOM     18  C   UNL     1       5.639   4.021  16.094  0.00  0.00    +0.000 C 
ATOM     19  O   UNL     1       4.804   4.832  16.932  0.00  0.00    +0.000 OA
ENDBRANCH  13  14
ENDBRANCH  12  13
ENDBRANCH   8  12
ENDBRANCH   1   8
BRANCH   6  20
ATOM     20  S   UNL     1       0.887   9.549  21.624  0.00  0.00    +0.000 S 
ATOM     21  O   UNL     1       1.099  10.964  21.447  0.00  0.00    +0.000 OA
ATOM     22  O   UNL     1      -0.407   9.015  21.987  0.00  0.00    +0.000 OA
BRANCH  20  23
ATOM     23  N   UNL     1       1.975   9.093  22.815  0.00  0.00    +0.000 NA
ATOM     24  H   UNL     1       2.930   9.111  22.452  0.00  0.00    +0.000 HD
ATOM     25  H   UNL     1       1.833   9.646  23.660  0.00  0.00    +0.000 HD
ENDBRANCH  20  23
ENDBRANCH   6  20
TORSDOF 6
ENDMDL
