MODEL 1
REMARK VINA RESULT:      -8.4      0.000      0.000
REMARK  Name = 
REMARK  10 active torsions:
REMARK  status: ('A' for Active; 'I' for Inactive)
REMARK    1  A    between atoms: C_1  and  C_2
REMARK    2  A    between atoms: C_2  and  C_3
REMARK    3  A    between atoms: C_2  and  C_4
REMARK    4  A    between atoms: C_4  and  O_5
REMARK    5  A    between atoms: C_4  and  C_17
REMARK    6  A    between atoms: O_5  and  C_6
REMARK    7  A    between atoms: C_6  and  C_8
REMARK    8  A    between atoms: N_15  and  C_16
REMARK    9  A    between atoms: N_19  and  C_20
REMARK   10  A    between atoms: C_20  and  C_21
REMARK                            x       y       z     vdW  Elec       q    Type
REMARK                         _______ _______ _______ _____ _____    ______ ____
ROOT
ATOM      1  C   UNL     1       6.585   6.624  17.583  0.00  0.00    +0.000 C 
ENDROOT
BRANCH   1   2
ATOM      2  C   UNL     1       7.806   6.779  18.515  0.00  0.00    +0.000 C 
ATOM      3  O   UNL     1       8.236   5.859  19.211  0.00  0.00    +0.000 OA
ATOM      4  N   UNL     1       8.455   7.981  18.553  0.00  0.00    +0.000 N 
ATOM      5  H   UNL     1       9.253   7.992  19.176  0.00  0.00    +0.000 HD
BRANCH   4   6
ATOM      6  C   UNL     1       8.108   9.210  17.878  0.00  0.00    +0.000 C 
BRANCH   6   7
ATOM      7  C   UNL     1       8.829  10.389  18.451  0.00  0.00    +0.000 A 
ATOM      8  C   UNL     1       9.465  10.293  19.711  0.00  0.00    +0.000 A 
ATOM      9  C   UNL     1      10.069  11.409  20.290  0.00  0.00    +0.000 A 
ATOM     10  C   UNL     1      10.021  12.594  19.588  0.00  0.00    +0.000 A 
ATOM     11  C   UNL     1       9.424  12.682  18.353  0.00  0.00    +0.000 A 
ATOM     12  C   UNL     1       8.830  11.603  17.748  0.00  0.00    +0.000 A 
ATOM     13  O   UNL     1       9.478  13.935  17.833  0.00  0.00    +0.000 OA
ATOM     14  C   UNL     1      10.132  14.641  18.906  0.00  0.00    +0.000 C 
ATOM     15  O   UNL     1      10.523  13.788  20.002  0.00  0.00    +0.000 OA
ENDBRANCH   6   7
ENDBRANCH   4   6
ENDBRANCH   1   2
BRANCH   1  17
ATOM     16  C   UNL     1       7.094   4.271  16.588  0.00  0.00    +0.000 C 
ATOM     17  C   UNL     1       6.886   5.762  16.328  0.00  0.00    +0.000 C 
ATOM     18  C   UNL     1       5.817   5.935  15.242  0.00  0.00    +0.000 C 
ENDBRANCH   1  17
BRANCH   1  19
ATOM     19  O   UNL     1       5.533   5.973  18.317  0.00  0.00    +0.000 OA
BRANCH  19  20
ATOM     20  C   UNL     1       4.264   6.364  18.022  0.00  0.00    +0.000 C 
ATOM     21  O   UNL     1       3.957   7.457  17.569  0.00  0.00    +0.000 OA
BRANCH  20  22
ATOM     22  C   UNL     1       3.364   5.250  18.243  0.00  0.00    +0.000 A 
ATOM     23  C   UNL     1       3.258   4.089  17.472  0.00  0.00    +0.000 A 
ATOM     24  C   UNL     1       2.222   3.363  18.066  0.00  0.00    +0.000 A 
ATOM     25  O   UNL     1       1.578   2.188  17.860  0.00  0.00    +0.000 OA
ATOM     26  C   UNL     1       0.650   2.129  18.856  0.00  0.00    +0.000 A 
ATOM     27  C   UNL     1       0.675   3.232  19.683  0.00  0.00    +0.000 A 
ATOM     28  C   UNL     1       1.712   4.015  19.129  0.00  0.00    +0.000 A 
ATOM     29  N   UNL     1       2.409   5.192  19.256  0.00  0.00    +0.000 N 
ATOM     30  C   UNL     1       2.135   6.179  20.271  0.00  0.00    +0.000 C 
ENDBRANCH  20  22
ENDBRANCH  19  20
ENDBRANCH   1  19
TORSDOF 7
ENDMDL
MODEL 2
REMARK VINA RESULT:      -8.3      4.300      7.197
REMARK  Name = 
REMARK  10 active torsions:
REMARK  status: ('A' for Active; 'I' for Inactive)
REMARK    1  A    between atoms: C_1  and  C_2
REMARK    2  A    between atoms: C_2  and  C_3
REMARK    3  A    between atoms: C_2  and  C_4
REMARK    4  A    between atoms: C_4  and  O_5
REMARK    5  A    between atoms: C_4  and  C_17
REMARK    6  A    between atoms: O_5  and  C_6
REMARK    7  A    between atoms: C_6  and  C_8
REMARK    8  A    between atoms: N_15  and  C_16
REMARK    9  A    between atoms: N_19  and  C_20
REMARK   10  A    between atoms: C_20  and  C_21
REMARK                            x       y       z     vdW  Elec       q    Type
REMARK                         _______ _______ _______ _____ _____    ______ ____
ROOT
ATOM      1  C   UNL     1       3.341   4.844  19.538  0.00  0.00    +0.000 C 
ENDROOT
BRANCH   1   2
ATOM      2  C   UNL     1       2.495   4.992  18.255  0.00  0.00    +0.000 C 
ATOM      3  O   UNL     1       1.928   4.040  17.717  0.00  0.00    +0.000 OA
ATOM      4  N   UNL     1       2.345   6.234  17.707  0.00  0.00    +0.000 N 
ATOM      5  H   UNL     1       1.762   6.244  16.878  0.00  0.00    +0.000 HD
BRANCH   4   6
ATOM      6  C   UNL     1       2.952   7.477  18.121  0.00  0.00    +0.000 C 
BRANCH   6   7
ATOM      7  C   UNL     1       1.997   8.343  18.882  0.00  0.00    +0.000 A 
ATOM      8  C   UNL     1       1.712   8.067  20.240  0.00  0.00    +0.000 A 
ATOM      9  C   UNL     1       0.762   8.818  20.933  0.00  0.00    +0.000 A 
ATOM     10  C   UNL     1       0.124   9.827  20.247  0.00  0.00    +0.000 A 
ATOM     11  C   UNL     1       0.419  10.111  18.934  0.00  0.00    +0.000 A 
ATOM     12  C   UNL     1       1.354   9.402  18.224  0.00  0.00    +0.000 A 
ATOM     13  O   UNL     1      -0.323  11.135  18.440  0.00  0.00    +0.000 OA
ATOM     14  C   UNL     1      -1.157  11.432  19.577  0.00  0.00    +0.000 C 
ATOM     15  O   UNL     1      -0.848  10.640  20.742  0.00  0.00    +0.000 OA
ENDBRANCH   6   7
ENDBRANCH   4   6
ENDBRANCH   1   2
BRANCH   1  17
ATOM     16  C   UNL     1       1.048   4.337  20.663  0.00  0.00    +0.000 C 
ATOM     17  C   UNL     1       2.566   4.174  20.703  0.00  0.00    +0.000 C 
ATOM     18  C   UNL     1       2.905   2.684  20.839  0.00  0.00    +0.000 C 
ENDBRANCH   1  17
BRANCH   1  19
ATOM     19  O   UNL     1       4.479   4.017  19.239  0.00  0.00    +0.000 OA
BRANCH  19  20
ATOM     20  C   UNL     1       5.637   4.669  18.948  0.00  0.00    +0.000 C 
ATOM     21  O   UNL     1       6.381   5.175  19.776  0.00  0.00    +0.000 OA
BRANCH  20  22
ATOM     22  C   UNL     1       5.883   4.581  17.523  0.00  0.00    +0.000 A 
ATOM     23  C   UNL     1       5.404   3.604  16.646  0.00  0.00    +0.000 A 
ATOM     24  C   UNL     1       5.960   3.936  15.408  0.00  0.00    +0.000 A 
ATOM     25  O   UNL     1       5.948   3.449  14.143  0.00  0.00    +0.000 OA
ATOM     26  C   UNL     1       6.738   4.309  13.439  0.00  0.00    +0.000 A 
ATOM     27  C   UNL     1       7.259   5.321  14.217  0.00  0.00    +0.000 A 
ATOM     28  C   UNL     1       6.731   5.037  15.495  0.00  0.00    +0.000 A 
ATOM     29  N   UNL     1       6.696   5.454  16.804  0.00  0.00    +0.000 N 
ATOM     30  C   UNL     1       7.424   6.596  17.301  0.00  0.00    +0.000 C 
ENDBRANCH  20  22
ENDBRANCH  19  20
ENDBRANCH   1  19
TORSDOF 7
ENDMDL
MODEL 3
REMARK VINA RESULT:      -8.2      4.418      7.222
REMARK  Name = 
REMARK  10 active torsions:
REMARK  status: ('A' for Active; 'I' for Inactive)
REMARK    1  A    between atoms: C_1  and  C_2
REMARK    2  A    between atoms: C_2  and  C_3
REMARK    3  A    between atoms: C_2  and  C_4
REMARK    4  A    between atoms: C_4  and  O_5
REMARK    5  A    between atoms: C_4  and  C_17
REMARK    6  A    between atoms: O_5  and  C_6
REMARK    7  A    between atoms: C_6  and  C_8
REMARK    8  A    between atoms: N_15  and  C_16
REMARK    9  A    between atoms: N_19  and  C_20
REMARK   10  A    between atoms: C_20  and  C_21
REMARK                            x       y       z     vdW  Elec       q    Type
REMARK                         _______ _______ _______ _____ _____    ______ ____
ROOT
ATOM      1  C   UNL     1       3.356   4.019  19.299  0.00  0.00    +0.000 C 
ENDROOT
BRANCH   1   2
ATOM      2  C   UNL     1       2.355   4.334  18.167  0.00  0.00    +0.000 C 
ATOM      3  O   UNL     1       1.625   3.478  17.665  0.00  0.00    +0.000 OA
ATOM      4  N   UNL     1       2.253   5.620  17.719  0.00  0.00    +0.000 N 
ATOM      5  H   UNL     1       1.562   5.742  16.988  0.00  0.00    +0.000 HD
BRANCH   4   6
ATOM      6  C   UNL     1       3.033   6.771  18.109  0.00  0.00    +0.000 C 
BRANCH   6   7
ATOM      7  C   UNL     1       2.193   7.829  18.752  0.00  0.00    +0.000 A 
ATOM      8  C   UNL     1       1.778   8.959  18.007  0.00  0.00    +0.000 A 
ATOM      9  C   UNL     1       1.065   9.991  18.619  0.00  0.00    +0.000 A 
ATOM     10  C   UNL     1       0.785   9.861  19.961  0.00  0.00    +0.000 A 
ATOM     11  C   UNL     1       1.167   8.752  20.679  0.00  0.00    +0.000 A 
ATOM     12  C   UNL     1       1.860   7.714  20.109  0.00  0.00    +0.000 A 
ATOM     13  O   UNL     1       0.801   8.822  21.984  0.00  0.00    +0.000 OA
ATOM     14  C   UNL     1       0.189  10.126  22.021  0.00  0.00    +0.000 C 
ATOM     15  O   UNL     1       0.132  10.772  20.732  0.00  0.00    +0.000 OA
ENDBRANCH   6   7
ENDBRANCH   4   6
ENDBRANCH   1   2
BRANCH   1  17
ATOM     16  C   UNL     1       3.854   2.073  20.957  0.00  0.00    +0.000 C 
ATOM     17  C   UNL     1       2.810   2.991  20.325  0.00  0.00    +0.000 C 
ATOM     18  C   UNL     1       1.997   3.664  21.438  0.00  0.00    +0.000 C 
ENDBRANCH   1  17
BRANCH   1  19
ATOM     19  O   UNL     1       4.544   3.459  18.712  0.00  0.00    +0.000 OA
BRANCH  19  20
ATOM     20  C   UNL     1       5.580   4.319  18.516  0.00  0.00    +0.000 C 
ATOM     21  O   UNL     1       6.188   4.896  19.407  0.00  0.00    +0.000 OA
BRANCH  20  22
ATOM     22  C   UNL     1       5.898   4.361  17.103  0.00  0.00    +0.000 A 
ATOM     23  C   UNL     1       5.464   3.470  16.118  0.00  0.00    +0.000 A 
ATOM     24  C   UNL     1       6.082   3.913  14.944  0.00  0.00    +0.000 A 
ATOM     25  O   UNL     1       6.134   3.544  13.641  0.00  0.00    +0.000 OA
ATOM     26  C   UNL     1       6.958   4.461  13.060  0.00  0.00    +0.000 A 
ATOM     27  C   UNL     1       7.438   5.396  13.952  0.00  0.00    +0.000 A 
ATOM     28  C   UNL     1       6.847   4.999  15.171  0.00  0.00    +0.000 A 
ATOM     29  N   UNL     1       6.745   5.293  16.509  0.00  0.00    +0.000 N 
ATOM     30  C   UNL     1       7.446   6.382  17.144  0.00  0.00    +0.000 C 
ENDBRANCH  20  22
ENDBRANCH  19  20
ENDBRANCH   1  19
TORSDOF 7
ENDMDL
MODEL 4
REMARK VINA RESULT:      -8.2      4.901      7.229
REMARK  Name = 
REMARK  10 active torsions:
REMARK  status: ('A' for Active; 'I' for Inactive)
REMARK    1  A    between atoms: C_1  and  C_2
REMARK    2  A    between atoms: C_2  and  C_3
REMARK    3  A    between atoms: C_2  and  C_4
REMARK    4  A    between atoms: C_4  and  O_5
REMARK    5  A    between atoms: C_4  and  C_17
REMARK    6  A    between atoms: O_5  and  C_6
REMARK    7  A    between atoms: C_6  and  C_8
REMARK    8  A    between atoms: N_15  and  C_16
REMARK    9  A    between atoms: N_19  and  C_20
REMARK   10  A    between atoms: C_20  and  C_21
REMARK                            x       y       z     vdW  Elec       q    Type
REMARK                         _______ _______ _______ _____ _____    ______ ____
ROOT
ATOM      1  C   UNL     1       2.562   3.697  19.743  0.00  0.00    +0.000 C 
ENDROOT
BRANCH   1   2
ATOM      2  C   UNL     1       2.328   4.417  21.088  0.00  0.00    +0.000 C 
ATOM      3  O   UNL     1       2.219   3.815  22.157  0.00  0.00    +0.000 OA
ATOM      4  N   UNL     1       2.265   5.781  21.101  0.00  0.00    +0.000 N 
ATOM      5  H   UNL     1       2.126   6.173  22.025  0.00  0.00    +0.000 HD
BRANCH   4   6
ATOM      6  C   UNL     1       2.308   6.692  19.981  0.00  0.00    +0.000 C 
BRANCH   6   7
ATOM      7  C   UNL     1       1.594   7.975  20.271  0.00  0.00    +0.000 A 
ATOM      8  C   UNL     1       1.042   8.209  21.553  0.00  0.00    +0.000 A 
ATOM      9  C   UNL     1       0.304   9.366  21.808  0.00  0.00    +0.000 A 
ATOM     10  C   UNL     1       0.141  10.258  20.772  0.00  0.00    +0.000 A 
ATOM     11  C   UNL     1       0.697  10.041  19.533  0.00  0.00    +0.000 A 
ATOM     12  C   UNL     1       1.437   8.922  19.248  0.00  0.00    +0.000 A 
ATOM     13  O   UNL     1       0.413  11.033  18.651  0.00  0.00    +0.000 OA
ATOM     14  C   UNL     1      -0.430  11.877  19.460  0.00  0.00    +0.000 C 
ATOM     15  O   UNL     1      -0.569  11.417  20.820  0.00  0.00    +0.000 OA
ENDBRANCH   6   7
ENDBRANCH   4   6
ENDBRANCH   1   2
BRANCH   1  17
ATOM     16  C   UNL     1       1.418   4.248  17.469  0.00  0.00    +0.000 C 
ATOM     17  C   UNL     1       1.287   3.631  18.860  0.00  0.00    +0.000 C 
ATOM     18  C   UNL     1       0.755   2.199  18.723  0.00  0.00    +0.000 C 
ENDBRANCH   1  17
BRANCH   1  19
ATOM     19  O   UNL     1       3.564   4.421  19.008  0.00  0.00    +0.000 OA
BRANCH  19  20
ATOM     20  C   UNL     1       4.767   3.802  18.862  0.00  0.00    +0.000 C 
ATOM     21  O   UNL     1       5.293   3.090  19.706  0.00  0.00    +0.000 OA
BRANCH  20  22
ATOM     22  C   UNL     1       5.266   4.048  17.524  0.00  0.00    +0.000 A 
ATOM     23  C   UNL     1       4.644   3.707  16.320  0.00  0.00    +0.000 A 
ATOM     24  C   UNL     1       5.545   4.111  15.330  0.00  0.00    +0.000 A 
ATOM     25  O   UNL     1       5.620   4.089  13.977  0.00  0.00    +0.000 OA
ATOM     26  C   UNL     1       6.820   4.669  13.693  0.00  0.00    +0.000 A 
ATOM     27  C   UNL     1       7.515   5.051  14.821  0.00  0.00    +0.000 A 
ATOM     28  C   UNL     1       6.650   4.663  15.867  0.00  0.00    +0.000 A 
ATOM     29  N   UNL     1       6.495   4.634  17.232  0.00  0.00    +0.000 N 
ATOM     30  C   UNL     1       7.488   5.116  18.161  0.00  0.00    +0.000 C 
ENDBRANCH  20  22
ENDBRANCH  19  20
ENDBRANCH   1  19
TORSDOF 7
ENDMDL
MODEL 5
REMARK VINA RESULT:      -8.2      5.046      7.027
REMARK  Name = 
REMARK  10 active torsions:
REMARK  status: ('A' for Active; 'I' for Inactive)
REMARK    1  A    between atoms: C_1  and  C_2
REMARK    2  A    between atoms: C_2  and  C_3
REMARK    3  A    between atoms: C_2  and  C_4
REMARK    4  A    between atoms: C_4  and  O_5
REMARK    5  A    between atoms: C_4  and  C_17
REMARK    6  A    between atoms: O_5  and  C_6
REMARK    7  A    between atoms: C_6  and  C_8
REMARK    8  A    between atoms: N_15  and  C_16
REMARK    9  A    between atoms: N_19  and  C_20
REMARK   10  A    between atoms: C_20  and  C_21
REMARK                            x       y       z     vdW  Elec       q    Type
REMARK                         _______ _______ _______ _____ _____    ______ ____
ROOT
ATOM      1  C   UNL     1       3.249   4.014  19.118  0.00  0.00    +0.000 C 
ENDROOT
BRANCH   1   2
ATOM      2  C   UNL     1       4.616   3.419  19.521  0.00  0.00    +0.000 C 
ATOM      3  O   UNL     1       4.725   2.420  20.232  0.00  0.00    +0.000 OA
ATOM      4  N   UNL     1       5.754   4.009  19.047  0.00  0.00    +0.000 N 
ATOM      5  H   UNL     1       6.605   3.547  19.345  0.00  0.00    +0.000 HD
BRANCH   4   6
ATOM      6  C   UNL     1       5.879   5.209  18.253  0.00  0.00    +0.000 C 
BRANCH   6   7
ATOM      7  C   UNL     1       5.993   4.907  16.792  0.00  0.00    +0.000 A 
ATOM      8  C   UNL     1       5.127   3.964  16.189  0.00  0.00    +0.000 A 
ATOM      9  C   UNL     1       5.279   3.615  14.847  0.00  0.00    +0.000 A 
ATOM     10  C   UNL     1       6.296   4.222  14.143  0.00  0.00    +0.000 A 
ATOM     11  C   UNL     1       7.123   5.156  14.722  0.00  0.00    +0.000 A 
ATOM     12  C   UNL     1       6.996   5.532  16.036  0.00  0.00    +0.000 A 
ATOM     13  O   UNL     1       8.062   5.629  13.864  0.00  0.00    +0.000 OA
ATOM     14  C   UNL     1       7.766   4.848  12.689  0.00  0.00    +0.000 C 
ATOM     15  O   UNL     1       6.618   3.988  12.843  0.00  0.00    +0.000 OA
ENDBRANCH   6   7
ENDBRANCH   4   6
ENDBRANCH   1   2
BRANCH   1  17
ATOM     16  C   UNL     1       0.909   3.876  20.253  0.00  0.00    +0.000 C 
ATOM     17  C   UNL     1       2.050   3.134  19.561  0.00  0.00    +0.000 C 
ATOM     18  C   UNL     1       1.479   2.312  18.398  0.00  0.00    +0.000 C 
ENDBRANCH   1  17
BRANCH   1  19
ATOM     19  O   UNL     1       3.106   5.296  19.755  0.00  0.00    +0.000 OA
BRANCH  19  20
ATOM     20  C   UNL     1       2.760   6.333  18.946  0.00  0.00    +0.000 C 
ATOM     21  O   UNL     1       2.929   6.362  17.735  0.00  0.00    +0.000 OA
BRANCH  20  22
ATOM     22  C   UNL     1       2.081   7.342  19.734  0.00  0.00    +0.000 A 
ATOM     23  C   UNL     1       1.663   7.228  21.063  0.00  0.00    +0.000 A 
ATOM     24  C   UNL     1       1.024   8.441  21.337  0.00  0.00    +0.000 A 
ATOM     25  O   UNL     1       0.383   9.020  22.382  0.00  0.00    +0.000 OA
ATOM     26  C   UNL     1       0.009  10.244  21.916  0.00  0.00    +0.000 A 
ATOM     27  C   UNL     1       0.382  10.460  20.606  0.00  0.00    +0.000 A 
ATOM     28  C   UNL     1       1.037   9.257  20.265  0.00  0.00    +0.000 A 
ATOM     29  N   UNL     1       1.691   8.591  19.257  0.00  0.00    +0.000 N 
ATOM     30  C   UNL     1       1.885   9.132  17.934  0.00  0.00    +0.000 C 
ENDBRANCH  20  22
ENDBRANCH  19  20
ENDBRANCH   1  19
TORSDOF 7
ENDMDL
MODEL 6
REMARK VINA RESULT:      -8.0      1.037      1.485
REMARK  Name = 
REMARK  10 active torsions:
REMARK  status: ('A' for Active; 'I' for Inactive)
REMARK    1  A    between atoms: C_1  and  C_2
REMARK    2  A    between atoms: C_2  and  C_3
REMARK    3  A    between atoms: C_2  and  C_4
REMARK    4  A    between atoms: C_4  and  O_5
REMARK    5  A    between atoms: C_4  and  C_17
REMARK    6  A    between atoms: O_5  and  C_6
REMARK    7  A    between atoms: C_6  and  C_8
REMARK    8  A    between atoms: N_15  and  C_16
REMARK    9  A    between atoms: N_19  and  C_20
REMARK   10  A    between atoms: C_20  and  C_21
REMARK                            x       y       z     vdW  Elec       q    Type
REMARK                         _______ _______ _______ _____ _____    ______ ____
ROOT
ATOM      1  C   UNL     1       6.511   6.462  17.548  0.00  0.00    +0.000 C 
ENDROOT
BRANCH   1   2
ATOM      2  C   UNL     1       7.717   6.641  18.496  0.00  0.00    +0.000 C 
ATOM      3  O   UNL     1       8.136   5.736  19.219  0.00  0.00    +0.000 OA
ATOM      4  N   UNL     1       8.363   7.844  18.517  0.00  0.00    +0.000 N 
ATOM      5  H   UNL     1       9.151   7.870  19.153  0.00  0.00    +0.000 HD
BRANCH   4   6
ATOM      6  C   UNL     1       8.026   9.057  17.810  0.00  0.00    +0.000 C 
BRANCH   6   7
ATOM      7  C   UNL     1       8.721  10.253  18.381  0.00  0.00    +0.000 A 
ATOM      8  C   UNL     1       9.404  10.158  19.616  0.00  0.00    +0.000 A 
ATOM      9  C   UNL     1       9.984  11.286  20.196  0.00  0.00    +0.000 A 
ATOM     10  C   UNL     1       9.865  12.481  19.521  0.00  0.00    +0.000 A 
ATOM     11  C   UNL     1       9.221  12.569  18.309  0.00  0.00    +0.000 A 
ATOM     12  C   UNL     1       8.648  11.479  17.704  0.00  0.00    +0.000 A 
ATOM     13  O   UNL     1       9.207  13.833  17.814  0.00  0.00    +0.000 OA
ATOM     14  C   UNL     1       9.871  14.543  18.877  0.00  0.00    +0.000 C 
ATOM     15  O   UNL     1      10.334  13.686  19.942  0.00  0.00    +0.000 OA
ENDBRANCH   6   7
ENDBRANCH   4   6
ENDBRANCH   1   2
BRANCH   1  17
ATOM     16  C   UNL     1       7.285   4.296  16.326  0.00  0.00    +0.000 C 
ATOM     17  C   UNL     1       6.886   5.767  16.213  0.00  0.00    +0.000 C 
ATOM     18  C   UNL     1       5.779   5.904  15.161  0.00  0.00    +0.000 C 
ENDBRANCH   1  17
BRANCH   1  19
ATOM     19  O   UNL     1       5.532   5.641  18.207  0.00  0.00    +0.000 OA
BRANCH  19  20
ATOM     20  C   UNL     1       4.259   6.121  18.227  0.00  0.00    +0.000 C 
ATOM     21  O   UNL     1       3.874   7.103  17.609  0.00  0.00    +0.000 OA
BRANCH  20  22
ATOM     22  C   UNL     1       3.430   5.230  19.014  0.00  0.00    +0.000 A 
ATOM     23  C   UNL     1       3.116   5.355  20.370  0.00  0.00    +0.000 A 
ATOM     24  C   UNL     1       2.339   4.229  20.658  0.00  0.00    +0.000 A 
ATOM     25  O   UNL     1       1.713   3.694  21.735  0.00  0.00    +0.000 OA
ATOM     26  C   UNL     1       1.137   2.553  21.262  0.00  0.00    +0.000 A 
ATOM     27  C   UNL     1       1.383   2.340  19.922  0.00  0.00    +0.000 A 
ATOM     28  C   UNL     1       2.175   3.454  19.568  0.00  0.00    +0.000 A 
ATOM     29  N   UNL     1       2.847   4.060  18.535  0.00  0.00    +0.000 N 
ATOM     30  C   UNL     1       2.926   3.514  17.202  0.00  0.00    +0.000 C 
ENDBRANCH  20  22
ENDBRANCH  19  20
ENDBRANCH   1  19
TORSDOF 7
ENDMDL
MODEL 7
REMARK VINA RESULT:      -8.0      4.810      7.680
REMARK  Name = 
REMARK  10 active torsions:
REMARK  status: ('A' for Active; 'I' for Inactive)
REMARK    1  A    between atoms: C_1  and  C_2
REMARK    2  A    between atoms: C_2  and  C_3
REMARK    3  A    between atoms: C_2  and  C_4
REMARK    4  A    between atoms: C_4  and  O_5
REMARK    5  A    between atoms: C_4  and  C_17
REMARK    6  A    between atoms: O_5  and  C_6
REMARK    7  A    between atoms: C_6  and  C_8
REMARK    8  A    between atoms: N_15  and  C_16
REMARK    9  A    between atoms: N_19  and  C_20
REMARK   10  A    between atoms: C_20  and  C_21
REMARK                            x       y       z     vdW  Elec       q    Type
REMARK                         _______ _______ _______ _____ _____    ______ ____
ROOT
ATOM      1  C   UNL     1       3.205   5.479  19.774  0.00  0.00    +0.000 C 
ENDROOT
BRANCH   1   2
ATOM      2  C   UNL     1       2.816   6.659  18.857  0.00  0.00    +0.000 C 
ATOM      3  O   UNL     1       3.105   6.697  17.661  0.00  0.00    +0.000 OA
ATOM      4  N   UNL     1       2.100   7.694  19.387  0.00  0.00    +0.000 N 
ATOM      5  H   UNL     1       1.873   8.417  18.715  0.00  0.00    +0.000 HD
BRANCH   4   6
ATOM      6  C   UNL     1       1.698   7.897  20.759  0.00  0.00    +0.000 C 
BRANCH   6   7
ATOM      7  C   UNL     1       0.758   9.052  20.905  0.00  0.00    +0.000 A 
ATOM      8  C   UNL     1       0.351   9.788  19.767  0.00  0.00    +0.000 A 
ATOM      9  C   UNL     1      -0.459  10.916  19.902  0.00  0.00    +0.000 A 
ATOM     10  C   UNL     1      -0.842  11.275  21.175  0.00  0.00    +0.000 A 
ATOM     11  C   UNL     1      -0.466  10.547  22.279  0.00  0.00    +0.000 A 
ATOM     12  C   UNL     1       0.320   9.426  22.184  0.00  0.00    +0.000 A 
ATOM     13  O   UNL     1      -0.941  11.070  23.439  0.00  0.00    +0.000 OA
ATOM     14  C   UNL     1      -1.616  12.243  22.945  0.00  0.00    +0.000 C 
ATOM     15  O   UNL     1      -1.599  12.355  21.507  0.00  0.00    +0.000 OA
ENDBRANCH   6   7
ENDBRANCH   4   6
ENDBRANCH   1   2
BRANCH   1  17
ATOM     16  C   UNL     1       1.271   3.821  19.228  0.00  0.00    +0.000 C 
ATOM     17  C   UNL     1       1.979   4.674  20.280  0.00  0.00    +0.000 C 
ATOM     18  C   UNL     1       2.327   3.792  21.486  0.00  0.00    +0.000 C 
ENDBRANCH   1  17
BRANCH   1  19
ATOM     19  O   UNL     1       4.039   4.577  19.025  0.00  0.00    +0.000 OA
BRANCH  19  20
ATOM     20  C   UNL     1       5.369   4.861  19.009  0.00  0.00    +0.000 C 
ATOM     21  O   UNL     1       6.055   5.051  20.003  0.00  0.00    +0.000 OA
BRANCH  20  22
ATOM     22  C   UNL     1       5.847   4.809  17.642  0.00  0.00    +0.000 A 
ATOM     23  C   UNL     1       6.967   5.459  17.118  0.00  0.00    +0.000 A 
ATOM     24  C   UNL     1       6.964   5.130  15.760  0.00  0.00    +0.000 A 
ATOM     25  O   UNL     1       7.715   5.400  14.663  0.00  0.00    +0.000 OA
ATOM     26  C   UNL     1       7.100   4.721  13.654  0.00  0.00    +0.000 A 
ATOM     27  C   UNL     1       5.978   4.036  14.070  0.00  0.00    +0.000 A 
ATOM     28  C   UNL     1       5.923   4.333  15.449  0.00  0.00    +0.000 A 
ATOM     29  N   UNL     1       5.215   4.122  16.608  0.00  0.00    +0.000 N 
ATOM     30  C   UNL     1       4.009   3.334  16.676  0.00  0.00    +0.000 C 
ENDBRANCH  20  22
ENDBRANCH  19  20
ENDBRANCH   1  19
TORSDOF 7
ENDMDL
MODEL 8
REMARK VINA RESULT:      -8.0      5.087      7.413
REMARK  Name = 
REMARK  10 active torsions:
REMARK  status: ('A' for Active; 'I' for Inactive)
REMARK    1  A    between atoms: C_1  and  C_2
REMARK    2  A    between atoms: C_2  and  C_3
REMARK    3  A    between atoms: C_2  and  C_4
REMARK    4  A    between atoms: C_4  and  O_5
REMARK    5  A    between atoms: C_4  and  C_17
REMARK    6  A    between atoms: O_5  and  C_6
REMARK    7  A    between atoms: C_6  and  C_8
REMARK    8  A    between atoms: N_15  and  C_16
REMARK    9  A    between atoms: N_19  and  C_20
REMARK   10  A    between atoms: C_20  and  C_21
REMARK                            x       y       z     vdW  Elec       q    Type
REMARK                         _______ _______ _______ _____ _____    ______ ____
ROOT
ATOM      1  C   UNL     1       2.466   4.294  19.328  0.00  0.00    +0.000 C 
ENDROOT
BRANCH   1   2
ATOM      2  C   UNL     1       1.837   4.959  18.086  0.00  0.00    +0.000 C 
ATOM      3  O   UNL     1       1.204   4.327  17.239  0.00  0.00    +0.000 OA
ATOM      4  N   UNL     1       1.963   6.310  17.929  0.00  0.00    +0.000 N 
ATOM      5  H   UNL     1       1.508   6.667  17.098  0.00  0.00    +0.000 HD
BRANCH   4   6
ATOM      6  C   UNL     1       2.698   7.244  18.750  0.00  0.00    +0.000 C 
BRANCH   6   7
ATOM      7  C   UNL     1       1.797   8.229  19.426  0.00  0.00    +0.000 A 
ATOM      8  C   UNL     1       1.331   9.367  18.725  0.00  0.00    +0.000 A 
ATOM      9  C   UNL     1       0.559  10.333  19.371  0.00  0.00    +0.000 A 
ATOM     10  C   UNL     1       0.273  10.132  20.704  0.00  0.00    +0.000 A 
ATOM     11  C   UNL     1       0.706   9.015  21.378  0.00  0.00    +0.000 A 
ATOM     12  C   UNL     1       1.457   8.039  20.774  0.00  0.00    +0.000 A 
ATOM     13  O   UNL     1       0.324   9.009  22.681  0.00  0.00    +0.000 OA
ATOM     14  C   UNL     1      -0.355  10.277  22.766  0.00  0.00    +0.000 C 
ATOM     15  O   UNL     1      -0.434  10.973  21.504  0.00  0.00    +0.000 OA
ENDBRANCH   6   7
ENDBRANCH   4   6
ENDBRANCH   1   2
BRANCH   1  17
ATOM     16  C   UNL     1       0.645   2.505  19.842  0.00  0.00    +0.000 C 
ATOM     17  C   UNL     1       1.410   3.737  20.320  0.00  0.00    +0.000 C 
ATOM     18  C   UNL     1       2.013   3.447  21.700  0.00  0.00    +0.000 C 
ENDBRANCH   1  17
BRANCH   1  19
ATOM     19  O   UNL     1       3.278   3.189  18.891  0.00  0.00    +0.000 OA
BRANCH  19  20
ATOM     20  C   UNL     1       4.623   3.346  19.014  0.00  0.00    +0.000 C 
ATOM     21  O   UNL     1       5.264   3.111  20.029  0.00  0.00    +0.000 OA
BRANCH  20  22
ATOM     22  C   UNL     1       5.172   3.740  17.733  0.00  0.00    +0.000 A 
ATOM     23  C   UNL     1       4.738   3.328  16.470  0.00  0.00    +0.000 A 
ATOM     24  C   UNL     1       5.618   3.944  15.575  0.00  0.00    +0.000 A 
ATOM     25  O   UNL     1       5.809   3.991  14.234  0.00  0.00    +0.000 OA
ATOM     26  C   UNL     1       6.884   4.814  14.072  0.00  0.00    +0.000 A 
ATOM     27  C   UNL     1       7.388   5.284  15.267  0.00  0.00    +0.000 A 
ATOM     28  C   UNL     1       6.536   4.688  16.222  0.00  0.00    +0.000 A 
ATOM     29  N   UNL     1       6.275   4.574  17.566  0.00  0.00    +0.000 N 
ATOM     30  C   UNL     1       7.065   5.211  18.591  0.00  0.00    +0.000 C 
ENDBRANCH  20  22
ENDBRANCH  19  20
ENDBRANCH   1  19
TORSDOF 7
ENDMDL
MODEL 9
REMARK VINA RESULT:      -8.0      4.997      6.980
REMARK  Name = 
REMARK  10 active torsions:
REMARK  status: ('A' for Active; 'I' for Inactive)
REMARK    1  A    between atoms: C_1  and  C_2
REMARK    2  A    between atoms: C_2  and  C_3
REMARK    3  A    between atoms: C_2  and  C_4
REMARK    4  A    between atoms: C_4  and  O_5
REMARK    5  A    between atoms: C_4  and  C_17
REMARK    6  A    between atoms: O_5  and  C_6
REMARK    7  A    between atoms: C_6  and  C_8
REMARK    8  A    between atoms: N_15  and  C_16
REMARK    9  A    between atoms: N_19  and  C_20
REMARK   10  A    between atoms: C_20  and  C_21
REMARK                            x       y       z     vdW  Elec       q    Type
REMARK                         _______ _______ _______ _____ _____    ______ ____
ROOT
ATOM      1  C   UNL     1       2.736   3.454  19.335  0.00  0.00    +0.000 C 
ENDROOT
BRANCH   1   2
ATOM      2  C   UNL     1       4.092   2.737  19.158  0.00  0.00    +0.000 C 
ATOM      3  O   UNL     1       4.663   2.153  20.079  0.00  0.00    +0.000 OA
ATOM      4  N   UNL     1       4.672   2.726  17.921  0.00  0.00    +0.000 N 
ATOM      5  H   UNL     1       5.550   2.221  17.888  0.00  0.00    +0.000 HD
BRANCH   4   6
ATOM      6  C   UNL     1       4.226   3.382  16.714  0.00  0.00    +0.000 C 
BRANCH   6   7
ATOM      7  C   UNL     1       5.361   3.980  15.945  0.00  0.00    +0.000 A 
ATOM      8  C   UNL     1       6.258   4.873  16.578  0.00  0.00    +0.000 A 
ATOM      9  C   UNL     1       7.270   5.500  15.850  0.00  0.00    +0.000 A 
ATOM     10  C   UNL     1       7.357   5.213  14.505  0.00  0.00    +0.000 A 
ATOM     11  C   UNL     1       6.500   4.327  13.895  0.00  0.00    +0.000 A 
ATOM     12  C   UNL     1       5.501   3.684  14.581  0.00  0.00    +0.000 A 
ATOM     13  O   UNL     1       6.748   4.189  12.568  0.00  0.00    +0.000 OA
ATOM     14  C   UNL     1       7.827   5.129  12.398  0.00  0.00    +0.000 C 
ATOM     15  O   UNL     1       8.251   5.747  13.631  0.00  0.00    +0.000 OA
ENDBRANCH   6   7
ENDBRANCH   4   6
ENDBRANCH   1   2
BRANCH   1  17
ATOM     16  C   UNL     1       1.262   2.928  21.417  0.00  0.00    +0.000 C 
ATOM     17  C   UNL     1       1.655   2.553  19.989  0.00  0.00    +0.000 C 
ATOM     18  C   UNL     1       0.386   2.461  19.131  0.00  0.00    +0.000 C 
ENDBRANCH   1  17
BRANCH   1  19
ATOM     19  O   UNL     1       2.932   4.592  20.193  0.00  0.00    +0.000 OA
BRANCH  19  20
ATOM     20  C   UNL     1       3.817   5.528  19.756  0.00  0.00    +0.000 C 
ATOM     21  O   UNL     1       5.030   5.380  19.722  0.00  0.00    +0.000 OA
BRANCH  20  22
ATOM     22  C   UNL     1       3.084   6.674  19.257  0.00  0.00    +0.000 A 
ATOM     23  C   UNL     1       3.257   7.311  18.025  0.00  0.00    +0.000 A 
ATOM     24  C   UNL     1       2.355   8.378  18.049  0.00  0.00    +0.000 A 
ATOM     25  O   UNL     1       1.989   9.397  17.232  0.00  0.00    +0.000 OA
ATOM     26  C   UNL     1       1.025  10.062  17.930  0.00  0.00    +0.000 A 
ATOM     27  C   UNL     1       0.773   9.507  19.166  0.00  0.00    +0.000 A 
ATOM     28  C   UNL     1       1.665   8.413  19.206  0.00  0.00    +0.000 A 
ATOM     29  N   UNL     1       2.105   7.361  19.972  0.00  0.00    +0.000 N 
ATOM     30  C   UNL     1       1.619   7.079  21.300  0.00  0.00    +0.000 C 
ENDBRANCH  20  22
ENDBRANCH  19  20
ENDBRANCH   1  19
TORSDOF 7
ENDMDL
