MODEL 1
REMARK VINA RESULT:      -7.6      0.000      0.000
REMARK  Name = 
REMARK  6 active torsions:
REMARK  status: ('A' for Active; 'I' for Inactive)
REMARK    1  A    between atoms: C_4  and  C_5
REMARK    2  A    between atoms: C_15  and  N_16
REMARK    3  A    between atoms: N_16  and  C_17
REMARK    4  A    between atoms: C_17  and  C_18
REMARK    5  A    between atoms: C_18  and  C_19
REMARK    6  A    between atoms: C_19  and  O_20
REMARK                            x       y       z     vdW  Elec       q    Type
REMARK                         _______ _______ _______ _____ _____    ______ ____
ROOT
ATOM      1  O   UNL     1       7.532   6.152  15.804  0.00  0.00    +0.000 OA
ATOM      2  C   UNL     1       6.935   5.899  16.847  0.00  0.00    +0.000 C 
ATOM      3  C   UNL     1       5.542   5.338  16.853  0.00  0.00    +0.000 C 
ATOM      4  C   UNL     1       5.329   4.325  17.986  0.00  0.00    +0.000 C 
ATOM      5  C   UNL     1       5.749   4.852  19.367  0.00  0.00    +0.000 C 
ATOM      6  C   UNL     1       7.142   5.440  19.356  0.00  0.00    +0.000 C 
ATOM      7  O   UNL     1       7.904   5.338  20.313  0.00  0.00    +0.000 OA
ATOM      8  C   UNL     1       7.480   6.266  18.174  0.00  0.00    +0.000 C 
ATOM      9  C   UNL     1       7.968   7.501  18.372  0.00  0.00    +0.000 C 
ENDROOT
BRANCH   4  10
ATOM     10  C   UNL     1       3.876   3.877  17.988  0.00  0.00    +0.000 A 
ATOM     11  C   UNL     1       2.853   4.802  17.734  0.00  0.00    +0.000 A 
ATOM     12  C   UNL     1       1.513   4.414  17.816  0.00  0.00    +0.000 A 
ATOM     13  C   UNL     1       1.179   3.106  18.153  0.00  0.00    +0.000 A 
ATOM     14  C   UNL     1       2.183   2.172  18.389  0.00  0.00    +0.000 A 
ATOM     15  C   UNL     1       3.521   2.552  18.297  0.00  0.00    +0.000 A 
ENDBRANCH   4  10
BRANCH   9  16
ATOM     16  N   UNL     1       8.102   8.500  17.437  0.00  0.00    +0.000 N 
ATOM     17  H   UNL     1       8.263   8.180  16.475  0.00  0.00    +0.000 HD
BRANCH  16  18
ATOM     18  C   UNL     1       8.312   9.908  17.699  0.00  0.00    +0.000 C 
BRANCH  18  19
ATOM     19  C   UNL     1       9.168  10.093  18.951  0.00  0.00    +0.000 C 
BRANCH  19  20
ATOM     20  C   UNL     1      10.174  11.230  18.812  0.00  0.00    +0.000 C 
BRANCH  20  21
ATOM     21  O   UNL     1      10.663  11.286  17.476  0.00  0.00    +0.000 OA
ATOM     22  H   UNL     1      10.133  11.941  16.992  0.00  0.00    +0.000 HD
ENDBRANCH  20  21
ENDBRANCH  19  20
ENDBRANCH  18  19
ENDBRANCH  16  18
ENDBRANCH   9  16
TORSDOF 6
ENDMDL
MODEL 2
REMARK VINA RESULT:      -7.5      3.606      6.795
REMARK  Name = 
REMARK  6 active torsions:
REMARK  status: ('A' for Active; 'I' for Inactive)
REMARK    1  A    between atoms: C_4  and  C_5
REMARK    2  A    between atoms: C_15  and  N_16
REMARK    3  A    between atoms: N_16  and  C_17
REMARK    4  A    between atoms: C_17  and  C_18
REMARK    5  A    between atoms: C_18  and  C_19
REMARK    6  A    between atoms: C_19  and  O_20
REMARK                            x       y       z     vdW  Elec       q    Type
REMARK                         _______ _______ _______ _____ _____    ______ ____
ROOT
ATOM      1  O   UNL     1       3.303   6.134  17.758  0.00  0.00    +0.000 OA
ATOM      2  C   UNL     1       4.358   5.559  17.504  0.00  0.00    +0.000 C 
ATOM      3  C   UNL     1       4.740   5.176  16.103  0.00  0.00    +0.000 C 
ATOM      4  C   UNL     1       6.247   5.328  15.850  0.00  0.00    +0.000 C 
ATOM      5  C   UNL     1       7.119   4.627  16.903  0.00  0.00    +0.000 C 
ATOM      6  C   UNL     1       6.718   4.993  18.314  0.00  0.00    +0.000 C 
ATOM      7  O   UNL     1       7.539   5.108  19.219  0.00  0.00    +0.000 OA
ATOM      8  C   UNL     1       5.261   5.065  18.569  0.00  0.00    +0.000 C 
ATOM      9  C   UNL     1       4.754   4.370  19.599  0.00  0.00    +0.000 C 
ENDROOT
BRANCH   4  10
ATOM     10  C   UNL     1       6.571   4.833  14.450  0.00  0.00    +0.000 A 
ATOM     11  C   UNL     1       7.620   5.412  13.723  0.00  0.00    +0.000 A 
ATOM     12  C   UNL     1       7.870   5.018  12.406  0.00  0.00    +0.000 A 
ATOM     13  C   UNL     1       7.078   4.047  11.800  0.00  0.00    +0.000 A 
ATOM     14  C   UNL     1       6.044   3.450  12.515  0.00  0.00    +0.000 A 
ATOM     15  C   UNL     1       5.799   3.832  13.833  0.00  0.00    +0.000 A 
ENDBRANCH   4  10
BRANCH   9  16
ATOM     16  N   UNL     1       3.428   4.103  19.847  0.00  0.00    +0.000 N 
ATOM     17  H   UNL     1       2.971   4.739  20.511  0.00  0.00    +0.000 HD
BRANCH  16  18
ATOM     18  C   UNL     1       2.709   2.896  19.500  0.00  0.00    +0.000 C 
BRANCH  18  19
ATOM     19  C   UNL     1       1.333   2.887  20.163  0.00  0.00    +0.000 C 
BRANCH  19  20
ATOM     20  C   UNL     1       1.413   2.754  21.681  0.00  0.00    +0.000 C 
BRANCH  20  21
ATOM     21  O   UNL     1       2.750   2.461  22.073  0.00  0.00    +0.000 OA
ATOM     22  H   UNL     1       2.824   1.498  22.182  0.00  0.00    +0.000 HD
ENDBRANCH  20  21
ENDBRANCH  19  20
ENDBRANCH  18  19
ENDBRANCH  16  18
ENDBRANCH   9  16
TORSDOF 6
ENDMDL
MODEL 3
REMARK VINA RESULT:      -7.4      3.882      6.861
REMARK  Name = 
REMARK  6 active torsions:
REMARK  status: ('A' for Active; 'I' for Inactive)
REMARK    1  A    between atoms: C_4  and  C_5
REMARK    2  A    between atoms: C_15  and  N_16
REMARK    3  A    between atoms: N_16  and  C_17
REMARK    4  A    between atoms: C_17  and  C_18
REMARK    5  A    between atoms: C_18  and  C_19
REMARK    6  A    between atoms: C_19  and  O_20
REMARK                            x       y       z     vdW  Elec       q    Type
REMARK                         _______ _______ _______ _____ _____    ______ ____
ROOT
ATOM      1  O   UNL     1       2.894   4.923  17.787  0.00  0.00    +0.000 OA
ATOM      2  C   UNL     1       4.054   4.653  17.490  0.00  0.00    +0.000 C 
ATOM      3  C   UNL     1       4.491   4.471  16.064  0.00  0.00    +0.000 C 
ATOM      4  C   UNL     1       5.905   5.017  15.817  0.00  0.00    +0.000 C 
ATOM      5  C   UNL     1       6.948   4.493  16.816  0.00  0.00    +0.000 C 
ATOM      6  C   UNL     1       6.497   4.652  18.251  0.00  0.00    +0.000 C 
ATOM      7  O   UNL     1       7.281   4.913  19.159  0.00  0.00    +0.000 OA
ATOM      8  C   UNL     1       5.075   4.336  18.515  0.00  0.00    +0.000 C 
ATOM      9  C   UNL     1       4.781   3.468  19.497  0.00  0.00    +0.000 C 
ENDROOT
BRANCH   4  10
ATOM     10  C   UNL     1       6.314   4.712  14.385  0.00  0.00    +0.000 A 
ATOM     11  C   UNL     1       5.625   3.739  13.648  0.00  0.00    +0.000 A 
ATOM     12  C   UNL     1       6.048   3.396  12.361  0.00  0.00    +0.000 A 
ATOM     13  C   UNL     1       7.160   4.015  11.798  0.00  0.00    +0.000 A 
ATOM     14  C   UNL     1       7.843   4.996  12.510  0.00  0.00    +0.000 A 
ATOM     15  C   UNL     1       7.417   5.350  13.790  0.00  0.00    +0.000 A 
ENDBRANCH   4  10
BRANCH   9  16
ATOM     16  N   UNL     1       3.571   2.858  19.731  0.00  0.00    +0.000 N 
ATOM     17  H   UNL     1       3.029   2.626  18.890  0.00  0.00    +0.000 HD
BRANCH  16  18
ATOM     18  C   UNL     1       2.881   2.765  20.999  0.00  0.00    +0.000 C 
BRANCH  18  19
ATOM     19  C   UNL     1       2.156   4.074  21.307  0.00  0.00    +0.000 C 
BRANCH  19  20
ATOM     20  C   UNL     1       0.887   4.251  20.481  0.00  0.00    +0.000 C 
BRANCH  20  21
ATOM     21  O   UNL     1       0.505   3.008  19.903  0.00  0.00    +0.000 OA
ATOM     22  H   UNL     1       0.932   2.299  20.413  0.00  0.00    +0.000 HD
ENDBRANCH  20  21
ENDBRANCH  19  20
ENDBRANCH  18  19
ENDBRANCH  16  18
ENDBRANCH   9  16
TORSDOF 6
ENDMDL
MODEL 4
REMARK VINA RESULT:      -7.4      3.828      6.863
REMARK  Name = 
REMARK  6 active torsions:
REMARK  status: ('A' for Active; 'I' for Inactive)
REMARK    1  A    between atoms: C_4  and  C_5
REMARK    2  A    between atoms: C_15  and  N_16
REMARK    3  A    between atoms: N_16  and  C_17
REMARK    4  A    between atoms: C_17  and  C_18
REMARK    5  A    between atoms: C_18  and  C_19
REMARK    6  A    between atoms: C_19  and  O_20
REMARK                            x       y       z     vdW  Elec       q    Type
REMARK                         _______ _______ _______ _____ _____    ______ ____
ROOT
ATOM      1  O   UNL     1       2.837   4.840  17.786  0.00  0.00    +0.000 OA
ATOM      2  C   UNL     1       4.018   4.618  17.533  0.00  0.00    +0.000 C 
ATOM      3  C   UNL     1       4.502   4.377  16.131  0.00  0.00    +0.000 C 
ATOM      4  C   UNL     1       5.889   4.986  15.884  0.00  0.00    +0.000 C 
ATOM      5  C   UNL     1       6.933   4.582  16.936  0.00  0.00    +0.000 C 
ATOM      6  C   UNL     1       6.437   4.801  18.348  0.00  0.00    +0.000 C 
ATOM      7  O   UNL     1       7.181   5.159  19.256  0.00  0.00    +0.000 OA
ATOM      8  C   UNL     1       5.028   4.421  18.599  0.00  0.00    +0.000 C 
ATOM      9  C   UNL     1       4.756   3.599  19.625  0.00  0.00    +0.000 C 
ENDROOT
BRANCH   4  10
ATOM     10  C   UNL     1       6.352   4.620  14.483  0.00  0.00    +0.000 A 
ATOM     11  C   UNL     1       7.469   5.256  13.921  0.00  0.00    +0.000 A 
ATOM     12  C   UNL     1       7.849   4.984  12.605  0.00  0.00    +0.000 A 
ATOM     13  C   UNL     1       7.123   4.080  11.835  0.00  0.00    +0.000 A 
ATOM     14  C   UNL     1       6.024   3.427  12.384  0.00  0.00    +0.000 A 
ATOM     15  C   UNL     1       5.648   3.687  13.701  0.00  0.00    +0.000 A 
ENDBRANCH   4  10
BRANCH   9  16
ATOM     16  N   UNL     1       3.576   2.936  19.868  0.00  0.00    +0.000 N 
ATOM     17  H   UNL     1       2.916   2.916  19.081  0.00  0.00    +0.000 HD
BRANCH  16  18
ATOM     18  C   UNL     1       3.067   2.522  21.157  0.00  0.00    +0.000 C 
BRANCH  18  19
ATOM     19  C   UNL     1       1.549   2.687  21.208  0.00  0.00    +0.000 C 
BRANCH  19  20
ATOM     20  C   UNL     1       1.065   3.912  20.439  0.00  0.00    +0.000 C 
BRANCH  20  21
ATOM     21  O   UNL     1       0.712   3.544  19.110  0.00  0.00    +0.000 OA
ATOM     22  H   UNL     1       1.304   2.825  18.833  0.00  0.00    +0.000 HD
ENDBRANCH  20  21
ENDBRANCH  19  20
ENDBRANCH  18  19
ENDBRANCH  16  18
ENDBRANCH   9  16
TORSDOF 6
ENDMDL
MODEL 5
REMARK VINA RESULT:      -7.4      3.418      6.434
REMARK  Name = 
REMARK  6 active torsions:
REMARK  status: ('A' for Active; 'I' for Inactive)
REMARK    1  A    between atoms: C_4  and  C_5
REMARK    2  A    between atoms: C_15  and  N_16
REMARK    3  A    between atoms: N_16  and  C_17
REMARK    4  A    between atoms: C_17  and  C_18
REMARK    5  A    between atoms: C_18  and  C_19
REMARK    6  A    between atoms: C_19  and  O_20
REMARK                            x       y       z     vdW  Elec       q    Type
REMARK                         _______ _______ _______ _____ _____    ______ ____
ROOT
ATOM      1  O   UNL     1       4.182   7.288  17.624  0.00  0.00    +0.000 OA
ATOM      2  C   UNL     1       4.950   6.371  17.344  0.00  0.00    +0.000 C 
ATOM      3  C   UNL     1       5.094   5.852  15.941  0.00  0.00    +0.000 C 
ATOM      4  C   UNL     1       6.540   5.455  15.615  0.00  0.00    +0.000 C 
ATOM      5  C   UNL     1       7.165   4.510  16.652  0.00  0.00    +0.000 C 
ATOM      6  C   UNL     1       6.999   5.019  18.066  0.00  0.00    +0.000 C 
ATOM      7  O   UNL     1       7.856   4.852  18.928  0.00  0.00    +0.000 OA
ATOM      8  C   UNL     1       5.677   5.608  18.384  0.00  0.00    +0.000 C 
ATOM      9  C   UNL     1       5.015   5.157  19.461  0.00  0.00    +0.000 C 
ENDROOT
BRANCH   4  10
ATOM     10  C   UNL     1       6.590   4.852  14.221  0.00  0.00    +0.000 A 
ATOM     11  C   UNL     1       5.670   3.861  13.849  0.00  0.00    +0.000 A 
ATOM     12  C   UNL     1       5.762   3.244  12.599  0.00  0.00    +0.000 A 
ATOM     13  C   UNL     1       6.770   3.604  11.709  0.00  0.00    +0.000 A 
ATOM     14  C   UNL     1       7.679   4.599  12.056  0.00  0.00    +0.000 A 
ATOM     15  C   UNL     1       7.583   5.226  13.298  0.00  0.00    +0.000 A 
ENDBRANCH   4  10
BRANCH   9  16
ATOM     16  N   UNL     1       3.696   5.382  19.778  0.00  0.00    +0.000 N 
ATOM     17  H   UNL     1       3.515   6.245  20.305  0.00  0.00    +0.000 HD
BRANCH  16  18
ATOM     18  C   UNL     1       2.612   4.428  19.696  0.00  0.00    +0.000 C 
BRANCH  18  19
ATOM     19  C   UNL     1       2.106   4.320  18.258  0.00  0.00    +0.000 C 
BRANCH  19  20
ATOM     20  C   UNL     1       2.612   3.069  17.549  0.00  0.00    +0.000 C 
BRANCH  20  21
ATOM     21  O   UNL     1       1.930   1.921  18.042  0.00  0.00    +0.000 OA
ATOM     22  H   UNL     1       1.336   1.604  17.342  0.00  0.00    +0.000 HD
ENDBRANCH  20  21
ENDBRANCH  19  20
ENDBRANCH  18  19
ENDBRANCH  16  18
ENDBRANCH   9  16
TORSDOF 6
ENDMDL
MODEL 6
REMARK VINA RESULT:      -7.4      3.613      6.884
REMARK  Name = 
REMARK  6 active torsions:
REMARK  status: ('A' for Active; 'I' for Inactive)
REMARK    1  A    between atoms: C_4  and  C_5
REMARK    2  A    between atoms: C_15  and  N_16
REMARK    3  A    between atoms: N_16  and  C_17
REMARK    4  A    between atoms: C_17  and  C_18
REMARK    5  A    between atoms: C_18  and  C_19
REMARK    6  A    between atoms: C_19  and  O_20
REMARK                            x       y       z     vdW  Elec       q    Type
REMARK                         _______ _______ _______ _____ _____    ______ ____
ROOT
ATOM      1  O   UNL     1       3.217   5.538  17.829  0.00  0.00    +0.000 OA
ATOM      2  C   UNL     1       4.318   5.108  17.495  0.00  0.00    +0.000 C 
ATOM      3  C   UNL     1       4.659   4.816  16.062  0.00  0.00    +0.000 C 
ATOM      4  C   UNL     1       6.117   5.164  15.730  0.00  0.00    +0.000 C 
ATOM      5  C   UNL     1       7.132   4.549  16.706  0.00  0.00    +0.000 C 
ATOM      6  C   UNL     1       6.775   4.821  18.149  0.00  0.00    +0.000 C 
ATOM      7  O   UNL     1       7.629   5.013  19.010  0.00  0.00    +0.000 OA
ATOM      8  C   UNL     1       5.338   4.702  18.489  0.00  0.00    +0.000 C 
ATOM      9  C   UNL     1       4.985   3.919  19.521  0.00  0.00    +0.000 C 
ENDROOT
BRANCH   4  10
ATOM     10  C   UNL     1       6.415   4.753  14.297  0.00  0.00    +0.000 A 
ATOM     11  C   UNL     1       5.648   3.756  13.676  0.00  0.00    +0.000 A 
ATOM     12  C   UNL     1       5.969   3.315  12.390  0.00  0.00    +0.000 A 
ATOM     13  C   UNL     1       7.055   3.860  11.710  0.00  0.00    +0.000 A 
ATOM     14  C   UNL     1       7.813   4.864  12.305  0.00  0.00    +0.000 A 
ATOM     15  C   UNL     1       7.489   5.314  13.584  0.00  0.00    +0.000 A 
ENDBRANCH   4  10
BRANCH   9  16
ATOM     16  N   UNL     1       3.720   3.480  19.834  0.00  0.00    +0.000 N 
ATOM     17  H   UNL     1       3.255   3.991  20.594  0.00  0.00    +0.000 HD
BRANCH  16  18
ATOM     18  C   UNL     1       3.106   2.240  19.410  0.00  0.00    +0.000 C 
BRANCH  18  19
ATOM     19  C   UNL     1       1.639   2.200  19.837  0.00  0.00    +0.000 C 
BRANCH  19  20
ATOM     20  C   UNL     1       0.698   2.729  18.760  0.00  0.00    +0.000 C 
BRANCH  20  21
ATOM     21  O   UNL     1       1.450   3.218  17.655  0.00  0.00    +0.000 OA
ATOM     22  H   UNL     1       1.485   4.187  17.725  0.00  0.00    +0.000 HD
ENDBRANCH  20  21
ENDBRANCH  19  20
ENDBRANCH  18  19
ENDBRANCH  16  18
ENDBRANCH   9  16
TORSDOF 6
ENDMDL
MODEL 7
REMARK VINA RESULT:      -7.3      3.615      6.636
REMARK  Name = 
REMARK  6 active torsions:
REMARK  status: ('A' for Active; 'I' for Inactive)
REMARK    1  A    between atoms: C_4  and  C_5
REMARK    2  A    between atoms: C_15  and  N_16
REMARK    3  A    between atoms: N_16  and  C_17
REMARK    4  A    between atoms: C_17  and  C_18
REMARK    5  A    between atoms: C_18  and  C_19
REMARK    6  A    between atoms: C_19  and  O_20
REMARK                            x       y       z     vdW  Elec       q    Type
REMARK                         _______ _______ _______ _____ _____    ______ ____
ROOT
ATOM      1  O   UNL     1       3.651   6.782  17.766  0.00  0.00    +0.000 OA
ATOM      2  C   UNL     1       4.557   6.004  17.481  0.00  0.00    +0.000 C 
ATOM      3  C   UNL     1       4.838   5.589  16.065  0.00  0.00    +0.000 C 
ATOM      4  C   UNL     1       6.340   5.426  15.794  0.00  0.00    +0.000 C 
ATOM      5  C   UNL     1       7.052   4.526  16.815  0.00  0.00    +0.000 C 
ATOM      6  C   UNL     1       6.751   4.926  18.241  0.00  0.00    +0.000 C 
ATOM      7  O   UNL     1       7.585   4.839  19.137  0.00  0.00    +0.000 OA
ATOM      8  C   UNL     1       5.344   5.299  18.519  0.00  0.00    +0.000 C 
ATOM      9  C   UNL     1       4.709   4.697  19.538  0.00  0.00    +0.000 C 
ENDROOT
BRANCH   4  10
ATOM     10  C   UNL     1       6.539   4.913  14.377  0.00  0.00    +0.000 A 
ATOM     11  C   UNL     1       5.712   3.900  13.872  0.00  0.00    +0.000 A 
ATOM     12  C   UNL     1       5.943   3.368  12.600  0.00  0.00    +0.000 A 
ATOM     13  C   UNL     1       6.997   3.836  11.822  0.00  0.00    +0.000 A 
ATOM     14  C   UNL     1       7.815   4.855  12.303  0.00  0.00    +0.000 A 
ATOM     15  C   UNL     1       7.581   5.396  13.566  0.00  0.00    +0.000 A 
ENDBRANCH   4  10
BRANCH   9  16
ATOM     16  N   UNL     1       3.359   4.710  19.798  0.00  0.00    +0.000 N 
ATOM     17  H   UNL     1       3.074   5.285  20.600  0.00  0.00    +0.000 HD
BRANCH  16  18
ATOM     18  C   UNL     1       2.365   3.811  19.254  0.00  0.00    +0.000 C 
BRANCH  18  19
ATOM     19  C   UNL     1       1.391   3.371  20.345  0.00  0.00    +0.000 C 
BRANCH  19  20
ATOM     20  C   UNL     1       2.004   3.435  21.740  0.00  0.00    +0.000 C 
BRANCH  20  21
ATOM     21  O   UNL     1       2.950   2.384  21.904  0.00  0.00    +0.000 OA
ATOM     22  H   UNL     1       3.257   2.120  21.021  0.00  0.00    +0.000 HD
ENDBRANCH  20  21
ENDBRANCH  19  20
ENDBRANCH  18  19
ENDBRANCH  16  18
ENDBRANCH   9  16
TORSDOF 6
ENDMDL
MODEL 8
REMARK VINA RESULT:      -7.3      0.953      1.438
REMARK  Name = 
REMARK  6 active torsions:
REMARK  status: ('A' for Active; 'I' for Inactive)
REMARK    1  A    between atoms: C_4  and  C_5
REMARK    2  A    between atoms: C_15  and  N_16
REMARK    3  A    between atoms: N_16  and  C_17
REMARK    4  A    between atoms: C_17  and  C_18
REMARK    5  A    between atoms: C_18  and  C_19
REMARK    6  A    between atoms: C_19  and  O_20
REMARK                            x       y       z     vdW  Elec       q    Type
REMARK                         _______ _______ _______ _____ _____    ______ ____
ROOT
ATOM      1  O   UNL     1       7.428   6.225  15.886  0.00  0.00    +0.000 OA
ATOM      2  C   UNL     1       6.878   5.947  16.948  0.00  0.00    +0.000 C 
ATOM      3  C   UNL     1       5.481   5.399  17.004  0.00  0.00    +0.000 C 
ATOM      4  C   UNL     1       5.311   4.355  18.117  0.00  0.00    +0.000 C 
ATOM      5  C   UNL     1       5.801   4.839  19.490  0.00  0.00    +0.000 C 
ATOM      6  C   UNL     1       7.198   5.414  19.430  0.00  0.00    +0.000 C 
ATOM      7  O   UNL     1       8.003   5.278  20.347  0.00  0.00    +0.000 OA
ATOM      8  C   UNL     1       7.489   6.271  18.258  0.00  0.00    +0.000 C 
ATOM      9  C   UNL     1       7.998   7.496  18.468  0.00  0.00    +0.000 C 
ENDROOT
BRANCH   4  10
ATOM     10  C   UNL     1       3.856   3.920  18.175  0.00  0.00    +0.000 A 
ATOM     11  C   UNL     1       3.527   2.614  18.568  0.00  0.00    +0.000 A 
ATOM     12  C   UNL     1       2.198   2.182  18.543  0.00  0.00    +0.000 A 
ATOM     13  C   UNL     1       1.186   3.043  18.128  0.00  0.00    +0.000 A 
ATOM     14  C   UNL     1       1.495   4.348  17.754  0.00  0.00    +0.000 A 
ATOM     15  C   UNL     1       2.818   4.786  17.787  0.00  0.00    +0.000 A 
ENDBRANCH   4  10
BRANCH   9  16
ATOM     16  N   UNL     1       8.097   8.520  17.556  0.00  0.00    +0.000 N 
ATOM     17  H   UNL     1       8.085   8.231  16.570  0.00  0.00    +0.000 HD
BRANCH  16  18
ATOM     18  C   UNL     1       8.486   9.887  17.830  0.00  0.00    +0.000 C 
BRANCH  18  19
ATOM     19  C   UNL     1       9.403   9.944  19.051  0.00  0.00    +0.000 C 
BRANCH  19  20
ATOM     20  C   UNL     1       9.241  11.235  19.847  0.00  0.00    +0.000 C 
BRANCH  20  21
ATOM     21  O   UNL     1       9.416  10.975  21.235  0.00  0.00    +0.000 OA
ATOM     22  H   UNL     1       8.907  11.639  21.729  0.00  0.00    +0.000 HD
ENDBRANCH  20  21
ENDBRANCH  19  20
ENDBRANCH  18  19
ENDBRANCH  16  18
ENDBRANCH   9  16
TORSDOF 6
ENDMDL
MODEL 9
REMARK VINA RESULT:      -7.3      1.453      1.661
REMARK  Name = 
REMARK  6 active torsions:
REMARK  status: ('A' for Active; 'I' for Inactive)
REMARK    1  A    between atoms: C_4  and  C_5
REMARK    2  A    between atoms: C_15  and  N_16
REMARK    3  A    between atoms: N_16  and  C_17
REMARK    4  A    between atoms: C_17  and  C_18
REMARK    5  A    between atoms: C_18  and  C_19
REMARK    6  A    between atoms: C_19  and  O_20
REMARK                            x       y       z     vdW  Elec       q    Type
REMARK                         _______ _______ _______ _____ _____    ______ ____
ROOT
ATOM      1  O   UNL     1       5.282   7.077  15.687  0.00  0.00    +0.000 OA
ATOM      2  C   UNL     1       5.358   6.350  16.672  0.00  0.00    +0.000 C 
ATOM      3  C   UNL     1       4.139   5.789  17.347  0.00  0.00    +0.000 C 
ATOM      4  C   UNL     1       4.367   4.361  17.864  0.00  0.00    +0.000 C 
ATOM      5  C   UNL     1       5.628   4.216  18.728  0.00  0.00    +0.000 C 
ATOM      6  C   UNL     1       6.851   4.803  18.062  0.00  0.00    +0.000 C 
ATOM      7  O   UNL     1       7.967   4.307  18.186  0.00  0.00    +0.000 OA
ATOM      8  C   UNL     1       6.644   6.092  17.362  0.00  0.00    +0.000 C 
ATOM      9  C   UNL     1       7.457   7.119  17.654  0.00  0.00    +0.000 C 
ENDROOT
BRANCH   4  10
ATOM     10  C   UNL     1       3.129   3.899  18.615  0.00  0.00    +0.000 A 
ATOM     11  C   UNL     1       2.222   3.020  18.006  0.00  0.00    +0.000 A 
ATOM     12  C   UNL     1       1.041   2.657  18.659  0.00  0.00    +0.000 A 
ATOM     13  C   UNL     1       0.751   3.165  19.922  0.00  0.00    +0.000 A 
ATOM     14  C   UNL     1       1.650   4.024  20.547  0.00  0.00    +0.000 A 
ATOM     15  C   UNL     1       2.835   4.379  19.904  0.00  0.00    +0.000 A 
ENDBRANCH   4  10
BRANCH   9  16
ATOM     16  N   UNL     1       7.280   8.440  17.317  0.00  0.00    +0.000 N 
ATOM     17  H   UNL     1       6.507   8.625  16.666  0.00  0.00    +0.000 HD
BRANCH  16  18
ATOM     18  C   UNL     1       8.208   9.525  17.552  0.00  0.00    +0.000 C 
BRANCH  18  19
ATOM     19  C   UNL     1       8.844   9.390  18.934  0.00  0.00    +0.000 C 
BRANCH  19  20
ATOM     20  C   UNL     1       9.582  10.653  19.367  0.00  0.00    +0.000 C 
BRANCH  20  21
ATOM     21  O   UNL     1       9.272  11.724  18.483  0.00  0.00    +0.000 OA
ATOM     22  H   UNL     1       9.780  12.502  18.769  0.00  0.00    +0.000 HD
ENDBRANCH  20  21
ENDBRANCH  19  20
ENDBRANCH  18  19
ENDBRANCH  16  18
ENDBRANCH   9  16
TORSDOF 6
ENDMDL
